MODEL 1
REMARK VINA RESULT:      -7.1      0.000      0.000
REMARK  Name = 
REMARK  5 active torsions:
REMARK  status: ('A' for Active; 'I' for Inactive)
REMARK    1  A    between atoms: C_1  and  O_2
REMARK    2  A    between atoms: O_2  and  C_3
REMARK    3  A    between atoms: C_3  and  O_4
REMARK    4  A    between atoms: C_6  and  C_7
REMARK    5  A    between atoms: C_11  and  C_12
REMARK                            x       y       z     vdW  Elec       q    Type
REMARK                         _______ _______ _______ _____ _____    ______ ____
ROOT
ATOM      1  C   UNL     1       5.020   4.014  16.015  0.00  0.00    +0.000 C 
ATOM      2  C   UNL     1       4.138   4.442  16.944  0.00  0.00    +0.000 C 
ATOM      3  C   UNL     1       3.263   3.657  17.856  0.00  0.00    +0.000 C 
ATOM      4  C   UNL     1       3.041   2.159  17.669  0.00  0.00    +0.000 C 
ATOM      5  N   UNL     1       2.541   4.165  18.782  0.00  0.00    +0.000 NA
ATOM      6  C   UNL     1       2.366   5.589  18.993  0.00  0.00    +0.000 C 
ATOM      7  C   UNL     1       3.251   6.536  18.210  0.00  0.00    +0.000 C 
ATOM      8  C   UNL     1       4.262   5.926  17.250  0.00  0.00    +0.000 C 
ENDROOT
BRANCH   8   9
ATOM      9  C   UNL     1       5.680   6.197  17.776  0.00  0.00    +0.000 A 
ATOM     10  C   UNL     1       6.481   7.216  17.225  0.00  0.00    +0.000 A 
ATOM     11  C   UNL     1       7.747   7.482  17.747  0.00  0.00    +0.000 A 
ATOM     12  C   UNL     1       8.229   6.740  18.824  0.00  0.00    +0.000 A 
ATOM     13  C   UNL     1       7.433   5.753  19.402  0.00  0.00    +0.000 A 
ATOM     14  C   UNL     1       6.169   5.493  18.883  0.00  0.00    +0.000 A 
ATOM     15  F   UNL     1       5.408   4.568  19.485  0.00  0.00    +0.000 F 
ENDBRANCH   8   9
BRANCH   1  17
ATOM     16  C   UNL     1       6.498   4.892  14.270  0.00  0.00    +0.000 C 
ATOM     17  O   UNL     1       5.293   4.921  15.004  0.00  0.00    +0.000 OA
ENDBRANCH   1  17
BRANCH   1  18
ATOM     18  O   UNL     1       5.668   2.804  16.056  0.00  0.00    +0.000 OA
ATOM     19  H   UNL     1       5.676   2.472  16.968  0.00  0.00    +0.000 HD
ENDBRANCH   1  18
TORSDOF 3
ENDMDL
MODEL 2
REMARK VINA RESULT:      -7.1      1.607      2.105
REMARK  Name = 
REMARK  5 active torsions:
REMARK  status: ('A' for Active; 'I' for Inactive)
REMARK    1  A    between atoms: C_1  and  O_2
REMARK    2  A    between atoms: O_2  and  C_3
REMARK    3  A    between atoms: C_3  and  O_4
REMARK    4  A    between atoms: C_6  and  C_7
REMARK    5  A    between atoms: C_11  and  C_12
REMARK                            x       y       z     vdW  Elec       q    Type
REMARK                         _______ _______ _______ _____ _____    ______ ____
ROOT
ATOM      1  C   UNL     1       3.985   3.471  17.550  0.00  0.00    +0.000 C 
ATOM      2  C   UNL     1       3.315   4.368  18.305  0.00  0.00    +0.000 C 
ATOM      3  C   UNL     1       2.508   4.157  19.538  0.00  0.00    +0.000 C 
ATOM      4  C   UNL     1       2.086   2.764  19.997  0.00  0.00    +0.000 C 
ATOM      5  N   UNL     1       2.004   5.098  20.244  0.00  0.00    +0.000 NA
ATOM      6  C   UNL     1       2.032   6.500  19.875  0.00  0.00    +0.000 C 
ATOM      7  C   UNL     1       2.889   6.905  18.694  0.00  0.00    +0.000 C 
ATOM      8  C   UNL     1       3.658   5.810  17.971  0.00  0.00    +0.000 C 
ENDROOT
BRANCH   8   9
ATOM      9  C   UNL     1       5.163   6.018  18.201  0.00  0.00    +0.000 A 
ATOM     10  C   UNL     1       5.818   5.445  19.309  0.00  0.00    +0.000 A 
ATOM     11  C   UNL     1       7.194   5.602  19.476  0.00  0.00    +0.000 A 
ATOM     12  C   UNL     1       7.933   6.329  18.544  0.00  0.00    +0.000 A 
ATOM     13  C   UNL     1       7.303   6.872  17.426  0.00  0.00    +0.000 A 
ATOM     14  C   UNL     1       5.933   6.709  17.258  0.00  0.00    +0.000 A 
ATOM     15  F   UNL     1       5.360   7.205  16.152  0.00  0.00    +0.000 F 
ENDBRANCH   8   9
BRANCH   1  17
ATOM     16  C   UNL     1       5.429   3.639  15.578  0.00  0.00    +0.000 C 
ATOM     17  O   UNL     1       4.199   3.856  16.237  0.00  0.00    +0.000 OA
ENDBRANCH   1  17
BRANCH   1  18
ATOM     18  O   UNL     1       4.485   2.280  18.014  0.00  0.00    +0.000 OA
ATOM     19  H   UNL     1       3.891   1.923  18.695  0.00  0.00    +0.000 HD
ENDBRANCH   1  18
TORSDOF 3
ENDMDL
MODEL 3
REMARK VINA RESULT:      -7.1      1.096      1.579
REMARK  Name = 
REMARK  5 active torsions:
REMARK  status: ('A' for Active; 'I' for Inactive)
REMARK    1  A    between atoms: C_1  and  O_2
REMARK    2  A    between atoms: O_2  and  C_3
REMARK    3  A    between atoms: C_3  and  O_4
REMARK    4  A    between atoms: C_6  and  C_7
REMARK    5  A    between atoms: C_11  and  C_12
REMARK                            x       y       z     vdW  Elec       q    Type
REMARK                         _______ _______ _______ _____ _____    ______ ____
ROOT
ATOM      1  C   UNL     1       4.915   3.905  16.185  0.00  0.00    +0.000 C 
ATOM      2  C   UNL     1       4.033   4.294  17.132  0.00  0.00    +0.000 C 
ATOM      3  C   UNL     1       3.201   3.470  18.049  0.00  0.00    +0.000 C 
ATOM      4  C   UNL     1       3.028   1.967  17.851  0.00  0.00    +0.000 C 
ATOM      5  N   UNL     1       2.477   3.944  18.993  0.00  0.00    +0.000 NA
ATOM      6  C   UNL     1       2.257   5.358  19.221  0.00  0.00    +0.000 C 
ATOM      7  C   UNL     1       3.096   6.343  18.434  0.00  0.00    +0.000 C 
ATOM      8  C   UNL     1       4.111   5.778  17.452  0.00  0.00    +0.000 C 
ENDROOT
BRANCH   8   9
ATOM      9  C   UNL     1       5.527   6.093  17.957  0.00  0.00    +0.000 A 
ATOM     10  C   UNL     1       6.093   5.383  19.034  0.00  0.00    +0.000 A 
ATOM     11  C   UNL     1       7.399   5.647  19.448  0.00  0.00    +0.000 A 
ATOM     12  C   UNL     1       8.156   6.619  18.796  0.00  0.00    +0.000 A 
ATOM     13  C   UNL     1       7.621   7.305  17.707  0.00  0.00    +0.000 A 
ATOM     14  C   UNL     1       6.321   7.036  17.292  0.00  0.00    +0.000 A 
ATOM     15  F   UNL     1       5.846   7.679  16.216  0.00  0.00    +0.000 F 
ENDBRANCH   8   9
BRANCH   1  17
ATOM     16  C   UNL     1       6.298   4.805  14.375  0.00  0.00    +0.000 C 
ATOM     17  O   UNL     1       5.139   4.831  15.179  0.00  0.00    +0.000 OA
ENDBRANCH   1  17
BRANCH   1  18
ATOM     18  O   UNL     1       5.604   2.718  16.203  0.00  0.00    +0.000 OA
ATOM     19  H   UNL     1       6.266   2.739  16.912  0.00  0.00    +0.000 HD
ENDBRANCH   1  18
TORSDOF 3
ENDMDL
MODEL 4
REMARK VINA RESULT:      -6.9      2.202      3.817
REMARK  Name = 
REMARK  5 active torsions:
REMARK  status: ('A' for Active; 'I' for Inactive)
REMARK    1  A    between atoms: C_1  and  O_2
REMARK    2  A    between atoms: O_2  and  C_3
REMARK    3  A    between atoms: C_3  and  O_4
REMARK    4  A    between atoms: C_6  and  C_7
REMARK    5  A    between atoms: C_11  and  C_12
REMARK                            x       y       z     vdW  Elec       q    Type
REMARK                         _______ _______ _______ _____ _____    ______ ____
ROOT
ATOM      1  C   UNL     1       5.047   4.702  18.662  0.00  0.00    +0.000 C 
ATOM      2  C   UNL     1       3.914   3.965  18.662  0.00  0.00    +0.000 C 
ATOM      3  C   UNL     1       3.568   2.756  19.458  0.00  0.00    +0.000 C 
ATOM      4  C   UNL     1       4.620   1.981  20.247  0.00  0.00    +0.000 C 
ATOM      5  N   UNL     1       2.417   2.198  19.463  0.00  0.00    +0.000 NA
ATOM      6  C   UNL     1       1.321   2.579  18.594  0.00  0.00    +0.000 C 
ATOM      7  C   UNL     1       1.469   3.847  17.780  0.00  0.00    +0.000 C 
ATOM      8  C   UNL     1       2.764   4.632  17.926  0.00  0.00    +0.000 C 
ENDROOT
BRANCH   8   9
ATOM      9  C   UNL     1       2.462   5.975  18.610  0.00  0.00    +0.000 A 
ATOM     10  C   UNL     1       2.452   7.180  17.881  0.00  0.00    +0.000 A 
ATOM     11  C   UNL     1       2.127   8.383  18.506  0.00  0.00    +0.000 A 
ATOM     12  C   UNL     1       1.806   8.401  19.863  0.00  0.00    +0.000 A 
ATOM     13  C   UNL     1       1.778   7.212  20.588  0.00  0.00    +0.000 A 
ATOM     14  C   UNL     1       2.097   6.013  19.961  0.00  0.00    +0.000 A 
ATOM     15  F   UNL     1       2.020   4.878  20.671  0.00  0.00    +0.000 F 
ENDBRANCH   8   9
BRANCH   1  17
ATOM     16  C   UNL     1       6.167   6.515  17.455  0.00  0.00    +0.000 C 
ATOM     17  O   UNL     1       5.277   5.420  17.500  0.00  0.00    +0.000 OA
ENDBRANCH   1  17
BRANCH   1  18
ATOM     18  O   UNL     1       5.907   4.808  19.727  0.00  0.00    +0.000 OA
ATOM     19  H   UNL     1       5.480   4.454  20.524  0.00  0.00    +0.000 HD
ENDBRANCH   1  18
TORSDOF 3
ENDMDL
MODEL 5
REMARK VINA RESULT:      -6.8      2.175      3.299
REMARK  Name = 
REMARK  5 active torsions:
REMARK  status: ('A' for Active; 'I' for Inactive)
REMARK    1  A    between atoms: C_1  and  O_2
REMARK    2  A    between atoms: O_2  and  C_3
REMARK    3  A    between atoms: C_3  and  O_4
REMARK    4  A    between atoms: C_6  and  C_7
REMARK    5  A    between atoms: C_11  and  C_12
REMARK                            x       y       z     vdW  Elec       q    Type
REMARK                         _______ _______ _______ _____ _____    ______ ____
ROOT
ATOM      1  C   UNL     1       3.053   3.884  19.045  0.00  0.00    +0.000 C 
ATOM      2  C   UNL     1       2.876   5.203  18.814  0.00  0.00    +0.000 C 
ATOM      3  C   UNL     1       2.298   6.252  19.696  0.00  0.00    +0.000 C 
ATOM      4  C   UNL     1       1.534   5.904  20.971  0.00  0.00    +0.000 C 
ATOM      5  N   UNL     1       2.280   7.502  19.420  0.00  0.00    +0.000 NA
ATOM      6  C   UNL     1       2.700   8.064  18.151  0.00  0.00    +0.000 C 
ATOM      7  C   UNL     1       3.399   7.149  17.167  0.00  0.00    +0.000 C 
ATOM      8  C   UNL     1       3.607   5.699  17.576  0.00  0.00    +0.000 C 
ENDROOT
BRANCH   8   9
ATOM      9  C   UNL     1       5.111   5.442  17.764  0.00  0.00    +0.000 A 
ATOM     10  C   UNL     1       5.761   5.762  18.971  0.00  0.00    +0.000 A 
ATOM     11  C   UNL     1       7.116   5.476  19.143  0.00  0.00    +0.000 A 
ATOM     12  C   UNL     1       7.837   4.868  18.117  0.00  0.00    +0.000 A 
ATOM     13  C   UNL     1       7.198   4.514  16.930  0.00  0.00    +0.000 A 
ATOM     14  C   UNL     1       5.846   4.795  16.764  0.00  0.00    +0.000 A 
ATOM     15  F   UNL     1       5.247   4.406  15.629  0.00  0.00    +0.000 F 
ENDBRANCH   8   9
BRANCH   1  17
ATOM     16  C   UNL     1       3.468   1.727  17.960  0.00  0.00    +0.000 C 
ATOM     17  O   UNL     1       3.126   3.095  17.908  0.00  0.00    +0.000 OA
ENDBRANCH   1  17
BRANCH   1  18
ATOM     18  O   UNL     1       3.209   3.325  20.289  0.00  0.00    +0.000 OA
ATOM     19  H   UNL     1       3.911   2.655  20.257  0.00  0.00    +0.000 HD
ENDBRANCH   1  18
TORSDOF 3
ENDMDL
MODEL 6
REMARK VINA RESULT:      -6.7      2.536      5.161
REMARK  Name = 
REMARK  5 active torsions:
REMARK  status: ('A' for Active; 'I' for Inactive)
REMARK    1  A    between atoms: C_1  and  O_2
REMARK    2  A    between atoms: O_2  and  C_3
REMARK    3  A    between atoms: C_3  and  O_4
REMARK    4  A    between atoms: C_6  and  C_7
REMARK    5  A    between atoms: C_11  and  C_12
REMARK                            x       y       z     vdW  Elec       q    Type
REMARK                         _______ _______ _______ _____ _____    ______ ____
ROOT
ATOM      1  C   UNL     1       4.610   5.879  18.822  0.00  0.00    +0.000 C 
ATOM      2  C   UNL     1       5.235   5.364  17.741  0.00  0.00    +0.000 C 
ATOM      3  C   UNL     1       6.679   5.079  17.526  0.00  0.00    +0.000 C 
ATOM      4  C   UNL     1       7.756   5.610  18.468  0.00  0.00    +0.000 C 
ATOM      5  N   UNL     1       7.155   4.481  16.498  0.00  0.00    +0.000 NA
ATOM      6  C   UNL     1       6.374   4.114  15.333  0.00  0.00    +0.000 C 
ATOM      7  C   UNL     1       4.868   4.251  15.418  0.00  0.00    +0.000 C 
ATOM      8  C   UNL     1       4.278   4.772  16.720  0.00  0.00    +0.000 C 
ENDROOT
BRANCH   8   9
ATOM      9  C   UNL     1       3.481   3.644  17.395  0.00  0.00    +0.000 A 
ATOM     10  C   UNL     1       4.126   2.505  17.915  0.00  0.00    +0.000 A 
ATOM     11  C   UNL     1       3.394   1.514  18.570  0.00  0.00    +0.000 A 
ATOM     12  C   UNL     1       2.014   1.647  18.717  0.00  0.00    +0.000 A 
ATOM     13  C   UNL     1       1.369   2.786  18.238  0.00  0.00    +0.000 A 
ATOM     14  C   UNL     1       2.101   3.774  17.591  0.00  0.00    +0.000 A 
ATOM     15  F   UNL     1       1.462   4.878  17.179  0.00  0.00    +0.000 F 
ENDBRANCH   8   9
BRANCH   1  17
ATOM     16  C   UNL     1       2.498   6.858  19.585  0.00  0.00    +0.000 C 
ATOM     17  O   UNL     1       3.395   6.491  18.559  0.00  0.00    +0.000 OA
ENDBRANCH   1  17
BRANCH   1  18
ATOM     18  O   UNL     1       5.074   5.782  20.110  0.00  0.00    +0.000 OA
ATOM     19  H   UNL     1       4.857   4.905  20.467  0.00  0.00    +0.000 HD
ENDBRANCH   1  18
TORSDOF 3
ENDMDL
MODEL 7
REMARK VINA RESULT:      -6.7      2.476      4.826
REMARK  Name = 
REMARK  5 active torsions:
REMARK  status: ('A' for Active; 'I' for Inactive)
REMARK    1  A    between atoms: C_1  and  O_2
REMARK    2  A    between atoms: O_2  and  C_3
REMARK    3  A    between atoms: C_3  and  O_4
REMARK    4  A    between atoms: C_6  and  C_7
REMARK    5  A    between atoms: C_11  and  C_12
REMARK                            x       y       z     vdW  Elec       q    Type
REMARK                         _______ _______ _______ _____ _____    ______ ____
ROOT
ATOM      1  C   UNL     1       5.010   4.297  18.327  0.00  0.00    +0.000 C 
ATOM      2  C   UNL     1       4.361   5.480  18.257  0.00  0.00    +0.000 C 
ATOM      3  C   UNL     1       4.279   6.452  17.134  0.00  0.00    +0.000 C 
ATOM      4  C   UNL     1       5.196   6.359  15.918  0.00  0.00    +0.000 C 
ATOM      5  N   UNL     1       3.540   7.497  17.133  0.00  0.00    +0.000 NA
ATOM      6  C   UNL     1       2.775   7.957  18.276  0.00  0.00    +0.000 C 
ATOM      7  C   UNL     1       2.674   7.040  19.477  0.00  0.00    +0.000 C 
ATOM      8  C   UNL     1       3.387   5.699  19.403  0.00  0.00    +0.000 C 
ENDROOT
BRANCH   8   9
ATOM      9  C   UNL     1       2.340   4.575  19.373  0.00  0.00    +0.000 A 
ATOM     10  C   UNL     1       1.882   4.035  18.156  0.00  0.00    +0.000 A 
ATOM     11  C   UNL     1       0.968   2.981  18.147  0.00  0.00    +0.000 A 
ATOM     12  C   UNL     1       0.501   2.451  19.349  0.00  0.00    +0.000 A 
ATOM     13  C   UNL     1       0.972   2.952  20.561  0.00  0.00    +0.000 A 
ATOM     14  C   UNL     1       1.887   3.999  20.567  0.00  0.00    +0.000 A 
ATOM     15  F   UNL     1       2.355   4.433  21.746  0.00  0.00    +0.000 F 
ENDBRANCH   8   9
BRANCH   1  17
ATOM     16  C   UNL     1       5.042   2.574  20.069  0.00  0.00    +0.000 C 
ATOM     17  O   UNL     1       5.327   3.878  19.609  0.00  0.00    +0.000 OA
ENDBRANCH   1  17
BRANCH   1  18
ATOM     18  O   UNL     1       5.307   3.506  17.245  0.00  0.00    +0.000 OA
ATOM     19  H   UNL     1       5.553   4.066  16.492  0.00  0.00    +0.000 HD
ENDBRANCH   1  18
TORSDOF 3
ENDMDL
MODEL 8
REMARK VINA RESULT:      -6.6      2.357      4.095
REMARK  Name = 
REMARK  5 active torsions:
REMARK  status: ('A' for Active; 'I' for Inactive)
REMARK    1  A    between atoms: C_1  and  O_2
REMARK    2  A    between atoms: O_2  and  C_3
REMARK    3  A    between atoms: C_3  and  O_4
REMARK    4  A    between atoms: C_6  and  C_7
REMARK    5  A    between atoms: C_11  and  C_12
REMARK                            x       y       z     vdW  Elec       q    Type
REMARK                         _______ _______ _______ _____ _____    ______ ____
ROOT
ATOM      1  C   UNL     1       5.015   4.913  18.789  0.00  0.00    +0.000 C 
ATOM      2  C   UNL     1       3.935   4.109  18.679  0.00  0.00    +0.000 C 
ATOM      3  C   UNL     1       3.650   2.806  19.339  0.00  0.00    +0.000 C 
ATOM      4  C   UNL     1       4.731   2.024  20.081  0.00  0.00    +0.000 C 
ATOM      5  N   UNL     1       2.539   2.177  19.251  0.00  0.00    +0.000 NA
ATOM      6  C   UNL     1       1.443   2.573  18.390  0.00  0.00    +0.000 C 
ATOM      7  C   UNL     1       1.527   3.924  17.711  0.00  0.00    +0.000 C 
ATOM      8  C   UNL     1       2.762   4.772  17.976  0.00  0.00    +0.000 C 
ENDROOT
BRANCH   8   9
ATOM      9  C   UNL     1       2.353   6.016  18.780  0.00  0.00    +0.000 A 
ATOM     10  C   UNL     1       1.958   5.918  20.128  0.00  0.00    +0.000 A 
ATOM     11  C   UNL     1       1.638   7.063  20.858  0.00  0.00    +0.000 A 
ATOM     12  C   UNL     1       1.710   8.318  20.256  0.00  0.00    +0.000 A 
ATOM     13  C   UNL     1       2.133   8.433  18.933  0.00  0.00    +0.000 A 
ATOM     14  C   UNL     1       2.456   7.291  18.209  0.00  0.00    +0.000 A 
ATOM     15  F   UNL     1       2.901   7.434  16.953  0.00  0.00    +0.000 F 
ENDBRANCH   8   9
BRANCH   1  17
ATOM     16  C   UNL     1       6.505   6.263  17.390  0.00  0.00    +0.000 C 
ATOM     17  O   UNL     1       5.227   5.758  17.713  0.00  0.00    +0.000 OA
ENDBRANCH   1  17
BRANCH   1  18
ATOM     18  O   UNL     1       5.838   4.966  19.886  0.00  0.00    +0.000 OA
ATOM     19  H   UNL     1       6.437   4.202  19.879  0.00  0.00    +0.000 HD
ENDBRANCH   1  18
TORSDOF 3
ENDMDL
MODEL 9
REMARK VINA RESULT:      -6.6      2.224      3.765
REMARK  Name = 
REMARK  5 active torsions:
REMARK  status: ('A' for Active; 'I' for Inactive)
REMARK    1  A    between atoms: C_1  and  O_2
REMARK    2  A    between atoms: O_2  and  C_3
REMARK    3  A    between atoms: C_3  and  O_4
REMARK    4  A    between atoms: C_6  and  C_7
REMARK    5  A    between atoms: C_11  and  C_12
REMARK                            x       y       z     vdW  Elec       q    Type
REMARK                         _______ _______ _______ _____ _____    ______ ____
ROOT
ATOM      1  C   UNL     1       5.657   4.545  18.831  0.00  0.00    +0.000 C 
ATOM      2  C   UNL     1       4.583   3.760  18.602  0.00  0.00    +0.000 C 
ATOM      3  C   UNL     1       4.082   2.588  19.371  0.00  0.00    +0.000 C 
ATOM      4  C   UNL     1       4.925   1.911  20.448  0.00  0.00    +0.000 C 
ATOM      5  N   UNL     1       2.983   1.979  19.129  0.00  0.00    +0.000 NA
ATOM      6  C   UNL     1       2.128   2.257  17.991  0.00  0.00    +0.000 C 
ATOM      7  C   UNL     1       2.440   3.478  17.152  0.00  0.00    +0.000 C 
ATOM      8  C   UNL     1       3.635   4.328  17.559  0.00  0.00    +0.000 C 
ENDROOT
BRANCH   8   9
ATOM      9  C   UNL     1       3.133   5.695  18.050  0.00  0.00    +0.000 A 
ATOM     10  C   UNL     1       2.428   5.822  19.262  0.00  0.00    +0.000 A 
ATOM     11  C   UNL     1       2.023   7.077  19.718  0.00  0.00    +0.000 A 
ATOM     12  C   UNL     1       2.318   8.219  18.975  0.00  0.00    +0.000 A 
ATOM     13  C   UNL     1       3.045   8.112  17.792  0.00  0.00    +0.000 A 
ATOM     14  C   UNL     1       3.452   6.860  17.342  0.00  0.00    +0.000 A 
ATOM     15  F   UNL     1       4.188   6.790  16.223  0.00  0.00    +0.000 F 
ENDBRANCH   8   9
BRANCH   1  17
ATOM     16  C   UNL     1       7.336   4.795  17.065  0.00  0.00    +0.000 C 
ATOM     17  O   UNL     1       6.151   5.201  17.715  0.00  0.00    +0.000 OA
ENDBRANCH   1  17
BRANCH   1  18
ATOM     18  O   UNL     1       6.220   4.756  20.066  0.00  0.00    +0.000 OA
ATOM     19  H   UNL     1       7.183   4.652  20.004  0.00  0.00    +0.000 HD
ENDBRANCH   1  18
TORSDOF 3
ENDMDL
