MODEL 1
REMARK VINA RESULT:      -7.6      0.000      0.000
REMARK  Name = 
REMARK  7 active torsions:
REMARK  status: ('A' for Active; 'I' for Inactive)
REMARK    1  A    between atoms: C_2  and  C_3
REMARK    2  A    between atoms: C_3  and  N_4
REMARK    3  A    between atoms: C_5  and  C_6
REMARK    4  A    between atoms: C_9  and  N_10
REMARK    5  A    between atoms: N_18  and  N_19
REMARK    6  A    between atoms: C_20  and  C_21
REMARK    7  A    between atoms: C_22  and  C_23
REMARK                            x       y       z     vdW  Elec       q    Type
REMARK                         _______ _______ _______ _____ _____    ______ ____
ROOT
ATOM      1  N   UNL     1       2.170   6.939  19.769  0.00  0.00    +0.000 N 
ATOM      2  C   UNL     1       2.703   7.348  18.533  0.00  0.00    +0.000 A 
ATOM      3  C   UNL     1       2.240   8.518  18.071  0.00  0.00    +0.000 A 
ATOM      4  S   UNL     1       1.103   9.239  19.166  0.00  0.00    +0.000 S 
ATOM      5  C   UNL     1       1.259   7.853  20.314  0.00  0.00    +0.000 A 
ATOM      6  N   UNL     1       0.609   7.774  21.443  0.00  0.00    +0.000 NA
ENDROOT
BRANCH   2   7
ATOM      7  C   UNL     1       3.676   6.569  17.759  0.00  0.00    +0.000 A 
ATOM      8  C   UNL     1       3.484   5.197  17.557  0.00  0.00    +0.000 A 
ATOM      9  C   UNL     1       4.445   4.440  16.876  0.00  0.00    +0.000 A 
ATOM     10  C   UNL     1       5.595   5.066  16.377  0.00  0.00    +0.000 A 
ATOM     11  C   UNL     1       5.800   6.437  16.575  0.00  0.00    +0.000 A 
ATOM     12  C   UNL     1       4.847   7.178  17.278  0.00  0.00    +0.000 A 
BRANCH  10  13
ATOM     13  N   UNL     1       6.590   4.285  15.633  0.00  0.00    +0.000 N 
ATOM     14  O   UNL     1       7.760   4.301  16.045  0.00  0.00    +0.000 OA
ATOM     15  O   UNL     1       6.204   3.651  14.641  0.00  0.00    +0.000 OA
ENDBRANCH  10  13
ENDBRANCH   2   7
BRANCH   6  16
ATOM     16  N   UNL     1      -0.233   8.864  21.677  0.00  0.00    +0.000 NA
ATOM     17  C   UNL     1      -0.116   9.366  22.863  0.00  0.00    +0.000 C 
BRANCH  17  18
ATOM     18  C   UNL     1      -0.963  10.513  23.252  0.00  0.00    +0.000 C 
ATOM     19  C   UNL     1      -0.870  11.703  22.644  0.00  0.00    +0.000 C 
BRANCH  19  20
ATOM     20  C   UNL     1      -1.697  12.782  23.072  0.00  0.00    +0.000 A 
ATOM     21  C   UNL     1      -3.070  12.954  22.921  0.00  0.00    +0.000 A 
ATOM     22  C   UNL     1      -3.425  14.192  23.512  0.00  0.00    +0.000 A 
ATOM     23  C   UNL     1      -2.257  14.725  23.993  0.00  0.00    +0.000 A 
ATOM     24  O   UNL     1      -1.221  13.892  23.739  0.00  0.00    +0.000 OA
ENDBRANCH  19  20
ENDBRANCH  17  18
ENDBRANCH   6  16
BRANCH   1  25
ATOM     25  C   UNL     1       2.516   5.720  20.491  0.00  0.00    +0.000 C 
BRANCH  25  27
ATOM     26  C   UNL     1       1.446   3.485  20.921  0.00  0.00    +0.000 C 
ATOM     27  C   UNL     1       1.367   4.748  20.485  0.00  0.00    +0.000 C 
ENDBRANCH  25  27
ENDBRANCH   1  25
TORSDOF 7
ENDMDL
MODEL 2
REMARK VINA RESULT:      -7.5      0.528      1.317
REMARK  Name = 
REMARK  7 active torsions:
REMARK  status: ('A' for Active; 'I' for Inactive)
REMARK    1  A    between atoms: C_2  and  C_3
REMARK    2  A    between atoms: C_3  and  N_4
REMARK    3  A    between atoms: C_5  and  C_6
REMARK    4  A    between atoms: C_9  and  N_10
REMARK    5  A    between atoms: N_18  and  N_19
REMARK    6  A    between atoms: C_20  and  C_21
REMARK    7  A    between atoms: C_22  and  C_23
REMARK                            x       y       z     vdW  Elec       q    Type
REMARK                         _______ _______ _______ _____ _____    ______ ____
ROOT
ATOM      1  N   UNL     1       2.260   6.973  19.745  0.00  0.00    +0.000 N 
ATOM      2  C   UNL     1       2.827   7.372  18.521  0.00  0.00    +0.000 A 
ATOM      3  C   UNL     1       2.386   8.544  18.043  0.00  0.00    +0.000 A 
ATOM      4  S   UNL     1       1.230   9.280  19.107  0.00  0.00    +0.000 S 
ATOM      5  C   UNL     1       1.345   7.897  20.264  0.00  0.00    +0.000 A 
ATOM      6  N   UNL     1       0.667   7.829  21.377  0.00  0.00    +0.000 NA
ENDROOT
BRANCH   2   7
ATOM      7  C   UNL     1       3.811   6.582  17.773  0.00  0.00    +0.000 A 
ATOM      8  C   UNL     1       4.991   7.177  17.309  0.00  0.00    +0.000 A 
ATOM      9  C   UNL     1       5.899   6.441  16.537  0.00  0.00    +0.000 A 
ATOM     10  C   UNL     1       5.632   5.097  16.246  0.00  0.00    +0.000 A 
ATOM     11  C   UNL     1       4.454   4.492  16.700  0.00  0.00    +0.000 A 
ATOM     12  C   UNL     1       3.543   5.242  17.449  0.00  0.00    +0.000 A 
BRANCH  10  13
ATOM     13  N   UNL     1       6.596   4.312  15.465  0.00  0.00    +0.000 N 
ATOM     14  O   UNL     1       6.151   3.588  14.561  0.00  0.00    +0.000 OA
ATOM     15  O   UNL     1       7.796   4.420  15.752  0.00  0.00    +0.000 OA
ENDBRANCH  10  13
ENDBRANCH   2   7
BRANCH   6  16
ATOM     16  N   UNL     1      -0.170   8.927  21.587  0.00  0.00    +0.000 NA
ATOM     17  C   UNL     1      -0.202   9.329  22.815  0.00  0.00    +0.000 C 
BRANCH  17  18
ATOM     18  C   UNL     1      -1.063  10.473  23.183  0.00  0.00    +0.000 C 
ATOM     19  C   UNL     1      -0.845  11.707  22.711  0.00  0.00    +0.000 C 
BRANCH  19  20
ATOM     20  C   UNL     1      -1.694  12.779  23.112  0.00  0.00    +0.000 A 
ATOM     21  C   UNL     1      -1.368  14.101  23.402  0.00  0.00    +0.000 A 
ATOM     22  C   UNL     1      -2.560  14.779  23.760  0.00  0.00    +0.000 A 
ATOM     23  C   UNL     1      -3.560  13.845  23.677  0.00  0.00    +0.000 A 
ATOM     24  O   UNL     1      -3.056  12.650  23.290  0.00  0.00    +0.000 OA
ENDBRANCH  19  20
ENDBRANCH  17  18
ENDBRANCH   6  16
BRANCH   1  25
ATOM     25  C   UNL     1       2.578   5.754  20.479  0.00  0.00    +0.000 C 
BRANCH  25  27
ATOM     26  C   UNL     1       1.424   3.576  20.982  0.00  0.00    +0.000 C 
ATOM     27  C   UNL     1       1.505   4.716  20.285  0.00  0.00    +0.000 C 
ENDBRANCH  25  27
ENDBRANCH   1  25
TORSDOF 7
ENDMDL
MODEL 3
REMARK VINA RESULT:      -7.3      0.951      1.121
REMARK  Name = 
REMARK  7 active torsions:
REMARK  status: ('A' for Active; 'I' for Inactive)
REMARK    1  A    between atoms: C_2  and  C_3
REMARK    2  A    between atoms: C_3  and  N_4
REMARK    3  A    between atoms: C_5  and  C_6
REMARK    4  A    between atoms: C_9  and  N_10
REMARK    5  A    between atoms: N_18  and  N_19
REMARK    6  A    between atoms: C_20  and  C_21
REMARK    7  A    between atoms: C_22  and  C_23
REMARK                            x       y       z     vdW  Elec       q    Type
REMARK                         _______ _______ _______ _____ _____    ______ ____
ROOT
ATOM      1  N   UNL     1       2.175   7.466  19.684  0.00  0.00    +0.000 N 
ATOM      2  C   UNL     1       2.695   7.673  18.394  0.00  0.00    +0.000 A 
ATOM      3  C   UNL     1       2.200   8.736  17.743  0.00  0.00    +0.000 A 
ATOM      4  S   UNL     1       1.048   9.603  18.707  0.00  0.00    +0.000 S 
ATOM      5  C   UNL     1       1.242   8.436  20.072  0.00  0.00    +0.000 A 
ATOM      6  N   UNL     1       0.596   8.533  21.203  0.00  0.00    +0.000 NA
ENDROOT
BRANCH   2   7
ATOM      7  C   UNL     1       3.686   6.799  17.756  0.00  0.00    +0.000 A 
ATOM      8  C   UNL     1       3.375   5.462  17.477  0.00  0.00    +0.000 A 
ATOM      9  C   UNL     1       4.342   4.610  16.931  0.00  0.00    +0.000 A 
ATOM     10  C   UNL     1       5.621   5.105  16.643  0.00  0.00    +0.000 A 
ATOM     11  C   UNL     1       5.945   6.439  16.921  0.00  0.00    +0.000 A 
ATOM     12  C   UNL     1       4.980   7.274  17.490  0.00  0.00    +0.000 A 
BRANCH  10  13
ATOM     13  N   UNL     1       6.628   4.225  16.039  0.00  0.00    +0.000 N 
ATOM     14  O   UNL     1       7.814   4.410  16.350  0.00  0.00    +0.000 OA
ATOM     15  O   UNL     1       6.235   3.347  15.258  0.00  0.00    +0.000 OA
ENDBRANCH  10  13
ENDBRANCH   2   7
BRANCH   6  16
ATOM     16  N   UNL     1      -0.273   9.625  21.255  0.00  0.00    +0.000 NA
ATOM     17  C   UNL     1      -0.205  10.292  22.360  0.00  0.00    +0.000 C 
BRANCH  17  18
ATOM     18  C   UNL     1      -1.084  11.464  22.557  0.00  0.00    +0.000 C 
ATOM     19  C   UNL     1      -2.186  11.405  23.317  0.00  0.00    +0.000 C 
BRANCH  19  20
ATOM     20  C   UNL     1      -3.010  12.559  23.457  0.00  0.00    +0.000 A 
ATOM     21  C   UNL     1      -2.662  13.847  23.855  0.00  0.00    +0.000 A 
ATOM     22  C   UNL     1      -3.835  14.642  23.843  0.00  0.00    +0.000 A 
ATOM     23  C   UNL     1      -4.847  13.809  23.443  0.00  0.00    +0.000 A 
ATOM     24  O   UNL     1      -4.367  12.565  23.208  0.00  0.00    +0.000 OA
ENDBRANCH  19  20
ENDBRANCH  17  18
ENDBRANCH   6  16
BRANCH   1  25
ATOM     25  C   UNL     1       2.554   6.396  20.600  0.00  0.00    +0.000 C 
BRANCH  25  27
ATOM     26  C   UNL     1       1.856   3.995  20.865  0.00  0.00    +0.000 C 
ATOM     27  C   UNL     1       1.570   5.259  20.533  0.00  0.00    +0.000 C 
ENDBRANCH  25  27
ENDBRANCH   1  25
TORSDOF 7
ENDMDL
MODEL 4
REMARK VINA RESULT:      -6.9      2.822     11.083
REMARK  Name = 
REMARK  7 active torsions:
REMARK  status: ('A' for Active; 'I' for Inactive)
REMARK    1  A    between atoms: C_2  and  C_3
REMARK    2  A    between atoms: C_3  and  N_4
REMARK    3  A    between atoms: C_5  and  C_6
REMARK    4  A    between atoms: C_9  and  N_10
REMARK    5  A    between atoms: N_18  and  N_19
REMARK    6  A    between atoms: C_20  and  C_21
REMARK    7  A    between atoms: C_22  and  C_23
REMARK                            x       y       z     vdW  Elec       q    Type
REMARK                         _______ _______ _______ _____ _____    ______ ____
ROOT
ATOM      1  N   UNL     1      -0.498  11.459  21.025  0.00  0.00    +0.000 N 
ATOM      2  C   UNL     1      -1.007  11.427  22.336  0.00  0.00    +0.000 A 
ATOM      3  C   UNL     1      -0.716  10.320  23.034  0.00  0.00    +0.000 A 
ATOM      4  S   UNL     1       0.260   9.217  22.117  0.00  0.00    +0.000 S 
ATOM      5  C   UNL     1       0.256  10.327  20.691  0.00  0.00    +0.000 A 
ATOM      6  N   UNL     1       0.869  10.063  19.569  0.00  0.00    +0.000 NA
ENDROOT
BRANCH   2   7
ATOM      7  C   UNL     1      -1.827  12.490  22.927  0.00  0.00    +0.000 A 
ATOM      8  C   UNL     1      -3.220  12.358  22.990  0.00  0.00    +0.000 A 
ATOM      9  C   UNL     1      -4.008  13.401  23.491  0.00  0.00    +0.000 A 
ATOM     10  C   UNL     1      -3.395  14.574  23.951  0.00  0.00    +0.000 A 
ATOM     11  C   UNL     1      -2.004  14.720  23.890  0.00  0.00    +0.000 A 
ATOM     12  C   UNL     1      -1.229  13.683  23.364  0.00  0.00    +0.000 A 
BRANCH  10  13
ATOM     13  N   UNL     1      -4.214  15.657  24.510  0.00  0.00    +0.000 N 
ATOM     14  O   UNL     1      -5.431  15.639  24.272  0.00  0.00    +0.000 OA
ATOM     15  O   UNL     1      -3.644  16.522  25.189  0.00  0.00    +0.000 OA
ENDBRANCH  10  13
ENDBRANCH   2   7
BRANCH   6  16
ATOM     16  N   UNL     1       1.524   8.829  19.570  0.00  0.00    +0.000 NA
ATOM     17  C   UNL     1       2.055   8.522  18.432  0.00  0.00    +0.000 C 
BRANCH  17  18
ATOM     18  C   UNL     1       2.765   7.234  18.286  0.00  0.00    +0.000 C 
ATOM     19  C   UNL     1       2.132   6.058  18.390  0.00  0.00    +0.000 C 
BRANCH  19  20
ATOM     20  C   UNL     1       2.868   4.845  18.260  0.00  0.00    +0.000 A 
ATOM     21  C   UNL     1       2.627   3.753  17.431  0.00  0.00    +0.000 A 
ATOM     22  C   UNL     1       3.638   2.788  17.670  0.00  0.00    +0.000 A 
ATOM     23  C   UNL     1       4.448   3.329  18.634  0.00  0.00    +0.000 A 
ATOM     24  O   UNL     1       4.001   4.555  18.992  0.00  0.00    +0.000 OA
ENDBRANCH  19  20
ENDBRANCH  17  18
ENDBRANCH   6  16
BRANCH   1  25
ATOM     25  C   UNL     1      -0.659  12.549  20.070  0.00  0.00    +0.000 C 
BRANCH  25  27
ATOM     26  C   UNL     1      -3.021  12.072  19.350  0.00  0.00    +0.000 C 
ATOM     27  C   UNL     1      -1.724  12.221  19.058  0.00  0.00    +0.000 C 
ENDBRANCH  25  27
ENDBRANCH   1  25
TORSDOF 7
ENDMDL
MODEL 5
REMARK VINA RESULT:      -6.8      2.583     10.987
REMARK  Name = 
REMARK  7 active torsions:
REMARK  status: ('A' for Active; 'I' for Inactive)
REMARK    1  A    between atoms: C_2  and  C_3
REMARK    2  A    between atoms: C_3  and  N_4
REMARK    3  A    between atoms: C_5  and  C_6
REMARK    4  A    between atoms: C_9  and  N_10
REMARK    5  A    between atoms: N_18  and  N_19
REMARK    6  A    between atoms: C_20  and  C_21
REMARK    7  A    between atoms: C_22  and  C_23
REMARK                            x       y       z     vdW  Elec       q    Type
REMARK                         _______ _______ _______ _____ _____    ______ ____
ROOT
ATOM      1  N   UNL     1      -0.113  10.802  20.373  0.00  0.00    +0.000 N 
ATOM      2  C   UNL     1      -0.308  10.846  21.765  0.00  0.00    +0.000 A 
ATOM      3  C   UNL     1       0.273   9.854  22.455  0.00  0.00    +0.000 A 
ATOM      4  S   UNL     1       1.154   8.778  21.418  0.00  0.00    +0.000 S 
ATOM      5  C   UNL     1       0.687   9.731  19.956  0.00  0.00    +0.000 A 
ATOM      6  N   UNL     1       1.063   9.424  18.744  0.00  0.00    +0.000 NA
ENDROOT
BRANCH   2   7
ATOM      7  C   UNL     1      -1.106  11.868  22.453  0.00  0.00    +0.000 A 
ATOM      8  C   UNL     1      -0.627  13.179  22.570  0.00  0.00    +0.000 A 
ATOM      9  C   UNL     1      -1.355  14.137  23.284  0.00  0.00    +0.000 A 
ATOM     10  C   UNL     1      -2.581  13.786  23.866  0.00  0.00    +0.000 A 
ATOM     11  C   UNL     1      -3.068  12.477  23.759  0.00  0.00    +0.000 A 
ATOM     12  C   UNL     1      -2.321  11.522  23.066  0.00  0.00    +0.000 A 
BRANCH  10  13
ATOM     13  N   UNL     1      -3.365  14.795  24.587  0.00  0.00    +0.000 N 
ATOM     14  O   UNL     1      -4.446  15.146  24.090  0.00  0.00    +0.000 OA
ATOM     15  O   UNL     1      -2.906  15.234  25.651  0.00  0.00    +0.000 OA
ENDBRANCH  10  13
ENDBRANCH   2   7
BRANCH   6  16
ATOM     16  N   UNL     1       1.856   8.276  18.681  0.00  0.00    +0.000 NA
ATOM     17  C   UNL     1       2.818   8.355  17.821  0.00  0.00    +0.000 C 
BRANCH  17  18
ATOM     18  C   UNL     1       3.725   7.202  17.637  0.00  0.00    +0.000 C 
ATOM     19  C   UNL     1       4.491   7.066  16.547  0.00  0.00    +0.000 C 
BRANCH  19  20
ATOM     20  C   UNL     1       5.333   5.925  16.411  0.00  0.00    +0.000 A 
ATOM     21  C   UNL     1       5.375   4.976  15.394  0.00  0.00    +0.000 A 
ATOM     22  C   UNL     1       6.381   4.031  15.716  0.00  0.00    +0.000 A 
ATOM     23  C   UNL     1       6.906   4.439  16.914  0.00  0.00    +0.000 A 
ATOM     24  O   UNL     1       6.292   5.568  17.337  0.00  0.00    +0.000 OA
ENDBRANCH  19  20
ENDBRANCH  17  18
ENDBRANCH   6  16
BRANCH   1  25
ATOM     25  C   UNL     1      -0.624  11.765  19.405  0.00  0.00    +0.000 C 
BRANCH  25  27
ATOM     26  C   UNL     1      -2.245  11.030  17.628  0.00  0.00    +0.000 C 
ATOM     27  C   UNL     1      -1.980  11.349  18.900  0.00  0.00    +0.000 C 
ENDBRANCH  25  27
ENDBRANCH   1  25
TORSDOF 7
ENDMDL
MODEL 6
REMARK VINA RESULT:      -6.8      2.882     11.081
REMARK  Name = 
REMARK  7 active torsions:
REMARK  status: ('A' for Active; 'I' for Inactive)
REMARK    1  A    between atoms: C_2  and  C_3
REMARK    2  A    between atoms: C_3  and  N_4
REMARK    3  A    between atoms: C_5  and  C_6
REMARK    4  A    between atoms: C_9  and  N_10
REMARK    5  A    between atoms: N_18  and  N_19
REMARK    6  A    between atoms: C_20  and  C_21
REMARK    7  A    between atoms: C_22  and  C_23
REMARK                            x       y       z     vdW  Elec       q    Type
REMARK                         _______ _______ _______ _____ _____    ______ ____
ROOT
ATOM      1  N   UNL     1      -0.393  11.292  20.978  0.00  0.00    +0.000 N 
ATOM      2  C   UNL     1      -0.895  11.343  22.291  0.00  0.00    +0.000 A 
ATOM      3  C   UNL     1      -0.626  10.269  23.047  0.00  0.00    +0.000 A 
ATOM      4  S   UNL     1       0.318   9.096  22.186  0.00  0.00    +0.000 S 
ATOM      5  C   UNL     1       0.332  10.126  20.703  0.00  0.00    +0.000 A 
ATOM      6  N   UNL     1       0.932   9.787  19.594  0.00  0.00    +0.000 NA
ENDROOT
BRANCH   2   7
ATOM      7  C   UNL     1      -1.687  12.456  22.827  0.00  0.00    +0.000 A 
ATOM      8  C   UNL     1      -1.050  13.594  23.338  0.00  0.00    +0.000 A 
ATOM      9  C   UNL     1      -1.801  14.627  23.912  0.00  0.00    +0.000 A 
ATOM     10  C   UNL     1      -3.198  14.528  23.955  0.00  0.00    +0.000 A 
ATOM     11  C   UNL     1      -3.846  13.394  23.450  0.00  0.00    +0.000 A 
ATOM     12  C   UNL     1      -3.085  12.358  22.903  0.00  0.00    +0.000 A 
BRANCH  10  13
ATOM     13  N   UNL     1      -3.992  15.624  24.524  0.00  0.00    +0.000 N 
ATOM     14  O   UNL     1      -5.181  15.710  24.182  0.00  0.00    +0.000 OA
ATOM     15  O   UNL     1      -3.431  16.394  25.316  0.00  0.00    +0.000 OA
ENDBRANCH  10  13
ENDBRANCH   2   7
BRANCH   6  16
ATOM     16  N   UNL     1       1.558   8.540  19.658  0.00  0.00    +0.000 NA
ATOM     17  C   UNL     1       2.136   8.190  18.556  0.00  0.00    +0.000 C 
BRANCH  17  18
ATOM     18  C   UNL     1       2.822   6.883  18.478  0.00  0.00    +0.000 C 
ATOM     19  C   UNL     1       2.178   5.729  18.692  0.00  0.00    +0.000 C 
BRANCH  19  20
ATOM     20  C   UNL     1       2.892   4.497  18.624  0.00  0.00    +0.000 A 
ATOM     21  C   UNL     1       3.858   3.990  19.488  0.00  0.00    +0.000 A 
ATOM     22  C   UNL     1       4.274   2.730  18.990  0.00  0.00    +0.000 A 
ATOM     23  C   UNL     1       3.550   2.523  17.845  0.00  0.00    +0.000 A 
ATOM     24  O   UNL     1       2.721   3.569  17.618  0.00  0.00    +0.000 OA
ENDBRANCH  19  20
ENDBRANCH  17  18
ENDBRANCH   6  16
BRANCH   1  25
ATOM     25  C   UNL     1      -0.535  12.332  19.966  0.00  0.00    +0.000 C 
BRANCH  25  27
ATOM     26  C   UNL     1      -1.865  11.773  17.905  0.00  0.00    +0.000 C 
ATOM     27  C   UNL     1      -1.811  12.152  19.187  0.00  0.00    +0.000 C 
ENDBRANCH  25  27
ENDBRANCH   1  25
TORSDOF 7
ENDMDL
MODEL 7
REMARK VINA RESULT:      -6.7      2.902     11.103
REMARK  Name = 
REMARK  7 active torsions:
REMARK  status: ('A' for Active; 'I' for Inactive)
REMARK    1  A    between atoms: C_2  and  C_3
REMARK    2  A    between atoms: C_3  and  N_4
REMARK    3  A    between atoms: C_5  and  C_6
REMARK    4  A    between atoms: C_9  and  N_10
REMARK    5  A    between atoms: N_18  and  N_19
REMARK    6  A    between atoms: C_20  and  C_21
REMARK    7  A    between atoms: C_22  and  C_23
REMARK                            x       y       z     vdW  Elec       q    Type
REMARK                         _______ _______ _______ _____ _____    ______ ____
ROOT
ATOM      1  N   UNL     1      -0.628  11.598  20.868  0.00  0.00    +0.000 N 
ATOM      2  C   UNL     1      -1.058  11.559  22.206  0.00  0.00    +0.000 A 
ATOM      3  C   UNL     1      -0.681  10.472  22.895  0.00  0.00    +0.000 A 
ATOM      4  S   UNL     1       0.283   9.400  21.931  0.00  0.00    +0.000 S 
ATOM      5  C   UNL     1       0.150  10.493  20.499  0.00  0.00    +0.000 A 
ATOM      6  N   UNL     1       0.705  10.243  19.344  0.00  0.00    +0.000 NA
ENDROOT
BRANCH   2   7
ATOM      7  C   UNL     1      -1.883  12.596  22.837  0.00  0.00    +0.000 A 
ATOM      8  C   UNL     1      -3.279  12.479  22.845  0.00  0.00    +0.000 A 
ATOM      9  C   UNL     1      -4.071  13.500  23.386  0.00  0.00    +0.000 A 
ATOM     10  C   UNL     1      -3.459  14.633  23.939  0.00  0.00    +0.000 A 
ATOM     11  C   UNL     1      -2.065  14.762  23.933  0.00  0.00    +0.000 A 
ATOM     12  C   UNL     1      -1.286  13.749  23.368  0.00  0.00    +0.000 A 
BRANCH  10  13
ATOM     13  N   UNL     1      -4.283  15.690  24.538  0.00  0.00    +0.000 N 
ATOM     14  O   UNL     1      -3.752  16.421  25.388  0.00  0.00    +0.000 OA
ATOM     15  O   UNL     1      -5.457  15.795  24.157  0.00  0.00    +0.000 OA
ENDBRANCH  10  13
ENDBRANCH   2   7
BRANCH   6  16
ATOM     16  N   UNL     1       1.409   9.036  19.316  0.00  0.00    +0.000 NA
ATOM     17  C   UNL     1       1.925   8.762  18.163  0.00  0.00    +0.000 C 
BRANCH  17  18
ATOM     18  C   UNL     1       2.682   7.505  17.986  0.00  0.00    +0.000 C 
ATOM     19  C   UNL     1       2.570   6.481  18.843  0.00  0.00    +0.000 C 
BRANCH  19  20
ATOM     20  C   UNL     1       3.337   5.299  18.636  0.00  0.00    +0.000 A 
ATOM     21  C   UNL     1       3.373   4.453  17.530  0.00  0.00    +0.000 A 
ATOM     22  C   UNL     1       4.290   3.409  17.806  0.00  0.00    +0.000 A 
ATOM     23  C   UNL     1       4.771   3.657  19.066  0.00  0.00    +0.000 A 
ATOM     24  O   UNL     1       4.212   4.782  19.569  0.00  0.00    +0.000 OA
ENDBRANCH  19  20
ENDBRANCH  17  18
ENDBRANCH   6  16
BRANCH   1  25
ATOM     25  C   UNL     1      -0.890  12.670  19.915  0.00  0.00    +0.000 C 
BRANCH  25  27
ATOM     26  C   UNL     1       1.114  13.870  18.982  0.00  0.00    +0.000 C 
ATOM     27  C   UNL     1       0.207  13.700  19.951  0.00  0.00    +0.000 C 
ENDBRANCH  25  27
ENDBRANCH   1  25
TORSDOF 7
ENDMDL
MODEL 8
REMARK VINA RESULT:      -6.7      2.741     10.891
REMARK  Name = 
REMARK  7 active torsions:
REMARK  status: ('A' for Active; 'I' for Inactive)
REMARK    1  A    between atoms: C_2  and  C_3
REMARK    2  A    between atoms: C_3  and  N_4
REMARK    3  A    between atoms: C_5  and  C_6
REMARK    4  A    between atoms: C_9  and  N_10
REMARK    5  A    between atoms: N_18  and  N_19
REMARK    6  A    between atoms: C_20  and  C_21
REMARK    7  A    between atoms: C_22  and  C_23
REMARK                            x       y       z     vdW  Elec       q    Type
REMARK                         _______ _______ _______ _____ _____    ______ ____
ROOT
ATOM      1  N   UNL     1      -0.695  11.353  20.438  0.00  0.00    +0.000 N 
ATOM      2  C   UNL     1      -0.752  11.338  21.844  0.00  0.00    +0.000 A 
ATOM      3  C   UNL     1      -0.149  10.293  22.428  0.00  0.00    +0.000 A 
ATOM      4  S   UNL     1       0.582   9.236  21.262  0.00  0.00    +0.000 S 
ATOM      5  C   UNL     1       0.015  10.274  19.897  0.00  0.00    +0.000 A 
ATOM      6  N   UNL     1       0.258  10.012  18.641  0.00  0.00    +0.000 NA
ENDROOT
BRANCH   2   7
ATOM      7  C   UNL     1      -1.436  12.354  22.651  0.00  0.00    +0.000 A 
ATOM      8  C   UNL     1      -2.751  12.145  23.085  0.00  0.00    +0.000 A 
ATOM      9  C   UNL     1      -3.428  13.143  23.798  0.00  0.00    +0.000 A 
ATOM     10  C   UNL     1      -2.776  14.348  24.094  0.00  0.00    +0.000 A 
ATOM     11  C   UNL     1      -1.463  14.570  23.661  0.00  0.00    +0.000 A 
ATOM     12  C   UNL     1      -0.806  13.577  22.929  0.00  0.00    +0.000 A 
BRANCH  10  13
ATOM     13  N   UNL     1      -3.469  15.383  24.869  0.00  0.00    +0.000 N 
ATOM     14  O   UNL     1      -2.855  15.902  25.814  0.00  0.00    +0.000 OA
ATOM     15  O   UNL     1      -4.624  15.683  24.533  0.00  0.00    +0.000 OA
ENDBRANCH  10  13
ENDBRANCH   2   7
BRANCH   6  16
ATOM     16  N   UNL     1       0.993   8.839  18.450  0.00  0.00    +0.000 NA
ATOM     17  C   UNL     1       2.153   9.035  17.913  0.00  0.00    +0.000 C 
BRANCH  17  18
ATOM     18  C   UNL     1       3.029   7.876  17.636  0.00  0.00    +0.000 C 
ATOM     19  C   UNL     1       2.820   6.678  18.195  0.00  0.00    +0.000 C 
BRANCH  19  20
ATOM     20  C   UNL     1       3.707   5.599  17.909  0.00  0.00    +0.000 A 
ATOM     21  C   UNL     1       3.425   4.344  17.377  0.00  0.00    +0.000 A 
ATOM     22  C   UNL     1       4.642   3.623  17.286  0.00  0.00    +0.000 A 
ATOM     23  C   UNL     1       5.611   4.464  17.769  0.00  0.00    +0.000 A 
ATOM     24  O   UNL     1       5.066   5.645  18.141  0.00  0.00    +0.000 OA
ENDBRANCH  19  20
ENDBRANCH  17  18
ENDBRANCH   6  16
BRANCH   1  25
ATOM     25  C   UNL     1      -1.258  12.379  19.569  0.00  0.00    +0.000 C 
BRANCH  25  27
ATOM     26  C   UNL     1      -3.131  11.472  18.158  0.00  0.00    +0.000 C 
ATOM     27  C   UNL     1      -2.703  12.091  19.264  0.00  0.00    +0.000 C 
ENDBRANCH  25  27
ENDBRANCH   1  25
TORSDOF 7
ENDMDL
MODEL 9
REMARK VINA RESULT:      -6.7      2.771     11.269
REMARK  Name = 
REMARK  7 active torsions:
REMARK  status: ('A' for Active; 'I' for Inactive)
REMARK    1  A    between atoms: C_2  and  C_3
REMARK    2  A    between atoms: C_3  and  N_4
REMARK    3  A    between atoms: C_5  and  C_6
REMARK    4  A    between atoms: C_9  and  N_10
REMARK    5  A    between atoms: N_18  and  N_19
REMARK    6  A    between atoms: C_20  and  C_21
REMARK    7  A    between atoms: C_22  and  C_23
REMARK                            x       y       z     vdW  Elec       q    Type
REMARK                         _______ _______ _______ _____ _____    ______ ____
ROOT
ATOM      1  N   UNL     1      -0.826  11.482  20.969  0.00  0.00    +0.000 N 
ATOM      2  C   UNL     1      -1.161  11.548  22.333  0.00  0.00    +0.000 A 
ATOM      3  C   UNL     1      -0.671  10.556  23.090  0.00  0.00    +0.000 A 
ATOM      4  S   UNL     1       0.292   9.452  22.160  0.00  0.00    +0.000 S 
ATOM      5  C   UNL     1      -0.007  10.393  20.647  0.00  0.00    +0.000 A 
ATOM      6  N   UNL     1       0.485  10.064  19.484  0.00  0.00    +0.000 NA
ENDROOT
BRANCH   2   7
ATOM      7  C   UNL     1      -2.006  12.592  22.924  0.00  0.00    +0.000 A 
ATOM      8  C   UNL     1      -3.279  12.277  23.417  0.00  0.00    +0.000 A 
ATOM      9  C   UNL     1      -4.113  13.284  23.919  0.00  0.00    +0.000 A 
ATOM     10  C   UNL     1      -3.661  14.610  23.944  0.00  0.00    +0.000 A 
ATOM     11  C   UNL     1      -2.393  14.938  23.450  0.00  0.00    +0.000 A 
ATOM     12  C   UNL     1      -1.578  13.929  22.929  0.00  0.00    +0.000 A 
BRANCH  10  13
ATOM     13  N   UNL     1      -4.518  15.664  24.500  0.00  0.00    +0.000 N 
ATOM     14  O   UNL     1      -5.712  15.671  24.166  0.00  0.00    +0.000 OA
ATOM     15  O   UNL     1      -4.000  16.483  25.273  0.00  0.00    +0.000 OA
ENDBRANCH  10  13
ENDBRANCH   2   7
BRANCH   6  16
ATOM     16  N   UNL     1       1.260   8.902  19.515  0.00  0.00    +0.000 NA
ATOM     17  C   UNL     1       1.803   8.608  18.379  0.00  0.00    +0.000 C 
BRANCH  17  18
ATOM     18  C   UNL     1       2.636   7.392  18.266  0.00  0.00    +0.000 C 
ATOM     19  C   UNL     1       3.741   7.356  17.511  0.00  0.00    +0.000 C 
BRANCH  19  20
ATOM     20  C   UNL     1       4.497   6.151  17.421  0.00  0.00    +0.000 A 
ATOM     21  C   UNL     1       5.139   5.594  16.318  0.00  0.00    +0.000 A 
ATOM     22  C   UNL     1       5.753   4.385  16.732  0.00  0.00    +0.000 A 
ATOM     23  C   UNL     1       5.458   4.254  18.064  0.00  0.00    +0.000 A 
ATOM     24  O   UNL     1       4.712   5.301  18.486  0.00  0.00    +0.000 OA
ENDBRANCH  19  20
ENDBRANCH  17  18
ENDBRANCH   6  16
BRANCH   1  25
ATOM     25  C   UNL     1      -1.219  12.441  19.942  0.00  0.00    +0.000 C 
BRANCH  25  27
ATOM     26  C   UNL     1      -3.723  12.462  19.711  0.00  0.00    +0.000 C 
ATOM     27  C   UNL     1      -2.521  12.038  19.303  0.00  0.00    +0.000 C 
ENDBRANCH  25  27
ENDBRANCH   1  25
TORSDOF 7
ENDMDL
