MODEL 1
REMARK VINA RESULT:      -7.0      0.000      0.000
REMARK  Name = 
REMARK  4 active torsions:
REMARK  status: ('A' for Active; 'I' for Inactive)
REMARK    1  A    between atoms: N_1  and  C_2
REMARK    2  A    between atoms: C_5  and  C_6
REMARK    3  A    between atoms: C_6  and  C_8
REMARK    4  A    between atoms: C_9  and  C_10
REMARK                            x       y       z     vdW  Elec       q    Type
REMARK                         _______ _______ _______ _____ _____    ______ ____
ROOT
ATOM      1  C   UNL     1       5.881   4.195  16.408  0.00  0.00    +0.000 C 
ATOM      2  O   UNL     1       6.188   3.848  15.271  0.00  0.00    +0.000 OA
ENDROOT
BRANCH   1   6
ATOM      3  C   UNL     1       8.114   7.348  18.315  0.00  0.00    +0.000 A 
ATOM      4  C   UNL     1       7.331   7.591  17.184  0.00  0.00    +0.000 A 
ATOM      5  C   UNL     1       6.631   6.551  16.563  0.00  0.00    +0.000 A 
ATOM      6  C   UNL     1       6.661   5.258  17.100  0.00  0.00    +0.000 A 
ATOM      7  C   UNL     1       7.411   5.018  18.256  0.00  0.00    +0.000 A 
ATOM      8  C   UNL     1       8.109   6.066  18.869  0.00  0.00    +0.000 A 
BRANCH   3   9
ATOM      9  N   UNL     1       8.703   8.412  19.006  0.00  0.00    +0.000 N 
ATOM     10  H   UNL     1       8.115   8.806  19.733  0.00  0.00    +0.000 HD
ATOM     11  H   UNL     1       9.096   9.129  18.403  0.00  0.00    +0.000 HD
ENDBRANCH   3   9
ENDBRANCH   1   6
BRANCH   1  12
ATOM     12  C   UNL     1       4.694   3.632  17.109  0.00  0.00    +0.000 C 
ATOM     13  C   UNL     1       3.774   4.456  17.634  0.00  0.00    +0.000 C 
BRANCH  13  14
ATOM     14  C   UNL     1       2.635   3.937  18.399  0.00  0.00    +0.000 A 
ATOM     15  C   UNL     1       2.202   2.633  18.113  0.00  0.00    +0.000 A 
ATOM     16  C   UNL     1       1.120   2.073  18.797  0.00  0.00    +0.000 A 
ATOM     17  C   UNL     1       0.459   2.810  19.777  0.00  0.00    +0.000 A 
ATOM     18  C   UNL     1       0.875   4.110  20.069  0.00  0.00    +0.000 A 
ATOM     19  C   UNL     1       1.955   4.675  19.381  0.00  0.00    +0.000 A 
ATOM     20 BR   UNL     1       2.448   6.456  19.825  0.00  0.00    +0.000 Br
ENDBRANCH  13  14
ENDBRANCH   1  12
TORSDOF 4
ENDMDL
MODEL 2
REMARK VINA RESULT:      -7.0      0.092      1.138
REMARK  Name = 
REMARK  4 active torsions:
REMARK  status: ('A' for Active; 'I' for Inactive)
REMARK    1  A    between atoms: N_1  and  C_2
REMARK    2  A    between atoms: C_5  and  C_6
REMARK    3  A    between atoms: C_6  and  C_8
REMARK    4  A    between atoms: C_9  and  C_10
REMARK                            x       y       z     vdW  Elec       q    Type
REMARK                         _______ _______ _______ _____ _____    ______ ____
ROOT
ATOM      1  C   UNL     1       5.899   4.236  16.357  0.00  0.00    +0.000 C 
ATOM      2  O   UNL     1       6.259   3.864  15.244  0.00  0.00    +0.000 OA
ENDROOT
BRANCH   1   6
ATOM      3  C   UNL     1       8.012   7.359  18.441  0.00  0.00    +0.000 A 
ATOM      4  C   UNL     1       8.033   6.038  18.894  0.00  0.00    +0.000 A 
ATOM      5  C   UNL     1       7.321   5.040  18.219  0.00  0.00    +0.000 A 
ATOM      6  C   UNL     1       6.621   5.342  17.044  0.00  0.00    +0.000 A 
ATOM      7  C   UNL     1       6.632   6.655  16.563  0.00  0.00    +0.000 A 
ATOM      8  C   UNL     1       7.346   7.646  17.248  0.00  0.00    +0.000 A 
BRANCH   3   9
ATOM      9  N   UNL     1       8.829   8.323  19.042  0.00  0.00    +0.000 N 
ATOM     10  H   UNL     1       8.371   8.846  19.782  0.00  0.00    +0.000 HD
ATOM     11  H   UNL     1       9.302   8.933  18.382  0.00  0.00    +0.000 HD
ENDBRANCH   3   9
ENDBRANCH   1   6
BRANCH   1  12
ATOM     12  C   UNL     1       4.702   3.660  17.029  0.00  0.00    +0.000 C 
ATOM     13  C   UNL     1       3.828   4.469  17.648  0.00  0.00    +0.000 C 
BRANCH  13  14
ATOM     14  C   UNL     1       2.682   3.928  18.387  0.00  0.00    +0.000 A 
ATOM     15  C   UNL     1       2.262   2.627  18.072  0.00  0.00    +0.000 A 
ATOM     16  C   UNL     1       1.175   2.047  18.730  0.00  0.00    +0.000 A 
ATOM     17  C   UNL     1       0.494   2.762  19.713  0.00  0.00    +0.000 A 
ATOM     18  C   UNL     1       0.897   4.059  20.034  0.00  0.00    +0.000 A 
ATOM     19  C   UNL     1       1.983   4.644  19.372  0.00  0.00    +0.000 A 
ATOM     20 BR   UNL     1       2.456   6.420  19.855  0.00  0.00    +0.000 Br
ENDBRANCH  13  14
ENDBRANCH   1  12
TORSDOF 4
ENDMDL
MODEL 3
REMARK VINA RESULT:      -6.6      4.370      6.004
REMARK  Name = 
REMARK  4 active torsions:
REMARK  status: ('A' for Active; 'I' for Inactive)
REMARK    1  A    between atoms: N_1  and  C_2
REMARK    2  A    between atoms: C_5  and  C_6
REMARK    3  A    between atoms: C_6  and  C_8
REMARK    4  A    between atoms: C_9  and  C_10
REMARK                            x       y       z     vdW  Elec       q    Type
REMARK                         _______ _______ _______ _____ _____    ______ ____
ROOT
ATOM      1  C   UNL     1       2.230   8.226  18.361  0.00  0.00    +0.000 C 
ATOM      2  O   UNL     1       2.362   8.886  17.333  0.00  0.00    +0.000 OA
ENDROOT
BRANCH   1   6
ATOM      3  C   UNL     1      -0.051   9.685  21.713  0.00  0.00    +0.000 A 
ATOM      4  C   UNL     1       0.836   8.614  21.846  0.00  0.00    +0.000 A 
ATOM      5  C   UNL     1       1.550   8.137  20.741  0.00  0.00    +0.000 A 
ATOM      6  C   UNL     1       1.429   8.764  19.495  0.00  0.00    +0.000 A 
ATOM      7  C   UNL     1       0.574   9.863  19.366  0.00  0.00    +0.000 A 
ATOM      8  C   UNL     1      -0.138  10.331  20.478  0.00  0.00    +0.000 A 
BRANCH   3   9
ATOM      9  N   UNL     1      -0.661  10.239  22.842  0.00  0.00    +0.000 N 
ATOM     10  H   UNL     1      -0.781   9.584  23.609  0.00  0.00    +0.000 HD
ATOM     11  H   UNL     1      -1.516  10.750  22.641  0.00  0.00    +0.000 HD
ENDBRANCH   3   9
ENDBRANCH   1   6
BRANCH   1  12
ATOM     12  C   UNL     1       2.791   6.854  18.491  0.00  0.00    +0.000 C 
ATOM     13  C   UNL     1       2.132   5.808  17.968  0.00  0.00    +0.000 C 
BRANCH  13  14
ATOM     14  C   UNL     1       2.617   4.435  18.147  0.00  0.00    +0.000 A 
ATOM     15  C   UNL     1       3.503   3.929  17.184  0.00  0.00    +0.000 A 
ATOM     16  C   UNL     1       4.003   2.629  17.285  0.00  0.00    +0.000 A 
ATOM     17  C   UNL     1       3.623   1.819  18.354  0.00  0.00    +0.000 A 
ATOM     18  C   UNL     1       2.739   2.306  19.317  0.00  0.00    +0.000 A 
ATOM     19  C   UNL     1       2.233   3.608  19.214  0.00  0.00    +0.000 A 
ATOM     20 BR   UNL     1       1.020   4.189  20.556  0.00  0.00    +0.000 Br
ENDBRANCH  13  14
ENDBRANCH   1  12
TORSDOF 4
ENDMDL
MODEL 4
REMARK VINA RESULT:      -6.6      4.700      6.743
REMARK  Name = 
REMARK  4 active torsions:
REMARK  status: ('A' for Active; 'I' for Inactive)
REMARK    1  A    between atoms: N_1  and  C_2
REMARK    2  A    between atoms: C_5  and  C_6
REMARK    3  A    between atoms: C_6  and  C_8
REMARK    4  A    between atoms: C_9  and  C_10
REMARK                            x       y       z     vdW  Elec       q    Type
REMARK                         _______ _______ _______ _____ _____    ______ ____
ROOT
ATOM      1  C   UNL     1       1.895   9.350  18.164  0.00  0.00    +0.000 C 
ATOM      2  O   UNL     1       2.064  10.395  17.541  0.00  0.00    +0.000 OA
ENDROOT
BRANCH   1   6
ATOM      3  C   UNL     1      -0.157   9.285  21.953  0.00  0.00    +0.000 A 
ATOM      4  C   UNL     1       0.839   8.354  21.647  0.00  0.00    +0.000 A 
ATOM      5  C   UNL     1       1.478   8.374  20.403  0.00  0.00    +0.000 A 
ATOM      6  C   UNL     1       1.168   9.366  19.464  0.00  0.00    +0.000 A 
ATOM      7  C   UNL     1       0.202  10.326  19.781  0.00  0.00    +0.000 A 
ATOM      8  C   UNL     1      -0.433  10.296  21.029  0.00  0.00    +0.000 A 
BRANCH   3   9
ATOM      9  N   UNL     1      -0.697   9.342  23.241  0.00  0.00    +0.000 N 
ATOM     10  H   UNL     1      -1.700   9.499  23.260  0.00  0.00    +0.000 HD
ATOM     11  H   UNL     1      -0.203   9.968  23.869  0.00  0.00    +0.000 HD
ENDBRANCH   3   9
ENDBRANCH   1   6
BRANCH   1  12
ATOM     12  C   UNL     1       2.337   8.034  17.627  0.00  0.00    +0.000 C 
ATOM     13  C   UNL     1       3.599   7.621  17.822  0.00  0.00    +0.000 C 
BRANCH  13  14
ATOM     14  C   UNL     1       4.088   6.367  17.238  0.00  0.00    +0.000 A 
ATOM     15  C   UNL     1       4.997   6.458  16.174  0.00  0.00    +0.000 A 
ATOM     16  C   UNL     1       5.502   5.308  15.564  0.00  0.00    +0.000 A 
ATOM     17  C   UNL     1       5.105   4.050  16.014  0.00  0.00    +0.000 A 
ATOM     18  C   UNL     1       4.198   3.943  17.068  0.00  0.00    +0.000 A 
ATOM     19  C   UNL     1       3.686   5.096  17.677  0.00  0.00    +0.000 A 
ATOM     20 BR   UNL     1       2.442   4.864  19.094  0.00  0.00    +0.000 Br
ENDBRANCH  13  14
ENDBRANCH   1  12
TORSDOF 4
ENDMDL
MODEL 5
REMARK VINA RESULT:      -6.6      4.552      6.143
REMARK  Name = 
REMARK  4 active torsions:
REMARK  status: ('A' for Active; 'I' for Inactive)
REMARK    1  A    between atoms: N_1  and  C_2
REMARK    2  A    between atoms: C_5  and  C_6
REMARK    3  A    between atoms: C_6  and  C_8
REMARK    4  A    between atoms: C_9  and  C_10
REMARK                            x       y       z     vdW  Elec       q    Type
REMARK                         _______ _______ _______ _____ _____    ______ ____
ROOT
ATOM      1  C   UNL     1       2.129   8.255  18.500  0.00  0.00    +0.000 C 
ATOM      2  O   UNL     1       2.381   8.862  17.462  0.00  0.00    +0.000 OA
ENDROOT
BRANCH   1   6
ATOM      3  C   UNL     1      -0.109  10.073  21.701  0.00  0.00    +0.000 A 
ATOM      4  C   UNL     1       0.638   8.910  21.903  0.00  0.00    +0.000 A 
ATOM      5  C   UNL     1       1.339   8.319  20.847  0.00  0.00    +0.000 A 
ATOM      6  C   UNL     1       1.348   8.918  19.581  0.00  0.00    +0.000 A 
ATOM      7  C   UNL     1       0.636  10.105  19.383  0.00  0.00    +0.000 A 
ATOM      8  C   UNL     1      -0.064  10.687  20.448  0.00  0.00    +0.000 A 
BRANCH   3   9
ATOM      9  N   UNL     1      -0.698  10.730  22.786  0.00  0.00    +0.000 N 
ATOM     10  H   UNL     1      -1.474  10.223  23.202  0.00  0.00    +0.000 HD
ATOM     11  H   UNL     1      -0.933  11.701  22.604  0.00  0.00    +0.000 HD
ENDBRANCH   3   9
ENDBRANCH   1   6
BRANCH   1  12
ATOM     12  C   UNL     1       2.521   6.832  18.693  0.00  0.00    +0.000 C 
ATOM     13  C   UNL     1       2.078   5.894  17.842  0.00  0.00    +0.000 C 
BRANCH  13  14
ATOM     14  C   UNL     1       2.381   4.474  18.049  0.00  0.00    +0.000 A 
ATOM     15  C   UNL     1       1.457   3.714  18.782  0.00  0.00    +0.000 A 
ATOM     16  C   UNL     1       1.680   2.356  19.025  0.00  0.00    +0.000 A 
ATOM     17  C   UNL     1       2.830   1.742  18.535  0.00  0.00    +0.000 A 
ATOM     18  C   UNL     1       3.761   2.485  17.809  0.00  0.00    +0.000 A 
ATOM     19  C   UNL     1       3.542   3.847  17.569  0.00  0.00    +0.000 A 
ATOM     20 BR   UNL     1       4.866   4.792  16.587  0.00  0.00    +0.000 Br
ENDBRANCH  13  14
ENDBRANCH   1  12
TORSDOF 4
ENDMDL
MODEL 6
REMARK VINA RESULT:      -6.5      5.283      6.427
REMARK  Name = 
REMARK  4 active torsions:
REMARK  status: ('A' for Active; 'I' for Inactive)
REMARK    1  A    between atoms: N_1  and  C_2
REMARK    2  A    between atoms: C_5  and  C_6
REMARK    3  A    between atoms: C_6  and  C_8
REMARK    4  A    between atoms: C_9  and  C_10
REMARK                            x       y       z     vdW  Elec       q    Type
REMARK                         _______ _______ _______ _____ _____    ______ ____
ROOT
ATOM      1  C   UNL     1       2.240   8.270  18.271  0.00  0.00    +0.000 C 
ATOM      2  O   UNL     1       2.152   8.918  17.232  0.00  0.00    +0.000 OA
ENDROOT
BRANCH   1   6
ATOM      3  C   UNL     1       4.872   4.876  18.610  0.00  0.00    +0.000 A 
ATOM      4  C   UNL     1       3.842   5.093  19.527  0.00  0.00    +0.000 A 
ATOM      5  C   UNL     1       3.011   6.214  19.417  0.00  0.00    +0.000 A 
ATOM      6  C   UNL     1       3.165   7.107  18.349  0.00  0.00    +0.000 A 
ATOM      7  C   UNL     1       4.169   6.871  17.404  0.00  0.00    +0.000 A 
ATOM      8  C   UNL     1       4.996   5.747  17.525  0.00  0.00    +0.000 A 
BRANCH   3   9
ATOM      9  N   UNL     1       5.613   3.690  18.648  0.00  0.00    +0.000 N 
ATOM     10  H   UNL     1       5.148   2.931  19.137  0.00  0.00    +0.000 HD
ATOM     11  H   UNL     1       6.572   3.812  18.959  0.00  0.00    +0.000 HD
ENDBRANCH   3   9
ENDBRANCH   1   6
BRANCH   1  12
ATOM     12  C   UNL     1       1.492   8.651  19.501  0.00  0.00    +0.000 C 
ATOM     13  C   UNL     1       0.733   9.758  19.506  0.00  0.00    +0.000 C 
BRANCH  13  14
ATOM     14  C   UNL     1       0.048  10.206  20.724  0.00  0.00    +0.000 A 
ATOM     15  C   UNL     1       0.177   9.408  21.871  0.00  0.00    +0.000 A 
ATOM     16  C   UNL     1      -0.451   9.767  23.066  0.00  0.00    +0.000 A 
ATOM     17  C   UNL     1      -1.215  10.931  23.128  0.00  0.00    +0.000 A 
ATOM     18  C   UNL     1      -1.357  11.731  21.994  0.00  0.00    +0.000 A 
ATOM     19  C   UNL     1      -0.732  11.371  20.794  0.00  0.00    +0.000 A 
ATOM     20 BR   UNL     1      -0.989  12.505  19.292  0.00  0.00    +0.000 Br
ENDBRANCH  13  14
ENDBRANCH   1  12
TORSDOF 4
ENDMDL
MODEL 7
REMARK VINA RESULT:      -6.5      5.041      6.745
REMARK  Name = 
REMARK  4 active torsions:
REMARK  status: ('A' for Active; 'I' for Inactive)
REMARK    1  A    between atoms: N_1  and  C_2
REMARK    2  A    between atoms: C_5  and  C_6
REMARK    3  A    between atoms: C_6  and  C_8
REMARK    4  A    between atoms: C_9  and  C_10
REMARK                            x       y       z     vdW  Elec       q    Type
REMARK                         _______ _______ _______ _____ _____    ______ ____
ROOT
ATOM      1  C   UNL     1       1.700   9.300  18.370  0.00  0.00    +0.000 C 
ATOM      2  O   UNL     1       2.152  10.187  17.650  0.00  0.00    +0.000 OA
ENDROOT
BRANCH   1   6
ATOM      3  C   UNL     1      -0.475  10.210  21.976  0.00  0.00    +0.000 A 
ATOM      4  C   UNL     1       0.370   9.100  21.895  0.00  0.00    +0.000 A 
ATOM      5  C   UNL     1       1.049   8.805  20.708  0.00  0.00    +0.000 A 
ATOM      6  C   UNL     1       0.937   9.652  19.599  0.00  0.00    +0.000 A 
ATOM      7  C   UNL     1       0.126  10.788  19.688  0.00  0.00    +0.000 A 
ATOM      8  C   UNL     1      -0.552  11.073  20.881  0.00  0.00    +0.000 A 
BRANCH   3   9
ATOM      9  N   UNL     1      -1.047  10.572  23.200  0.00  0.00    +0.000 N 
ATOM     10  H   UNL     1      -2.020  10.854  23.131  0.00  0.00    +0.000 HD
ATOM     11  H   UNL     1      -0.495  11.237  23.733  0.00  0.00    +0.000 HD
ENDBRANCH   3   9
ENDBRANCH   1   6
BRANCH   1  12
ATOM     12  C   UNL     1       1.829   7.859  18.017  0.00  0.00    +0.000 C 
ATOM     13  C   UNL     1       2.989   7.220  18.229  0.00  0.00    +0.000 C 
BRANCH  13  14
ATOM     14  C   UNL     1       3.175   5.823  17.820  0.00  0.00    +0.000 A 
ATOM     15  C   UNL     1       2.104   4.940  18.024  0.00  0.00    +0.000 A 
ATOM     16  C   UNL     1       2.209   3.594  17.664  0.00  0.00    +0.000 A 
ATOM     17  C   UNL     1       3.386   3.116  17.093  0.00  0.00    +0.000 A 
ATOM     18  C   UNL     1       4.462   3.981  16.889  0.00  0.00    +0.000 A 
ATOM     19  C   UNL     1       4.361   5.329  17.254  0.00  0.00    +0.000 A 
ATOM     20 BR   UNL     1       5.876   6.437  16.958  0.00  0.00    +0.000 Br
ENDBRANCH  13  14
ENDBRANCH   1  12
TORSDOF 4
ENDMDL
MODEL 8
REMARK VINA RESULT:      -6.5      4.910      6.313
REMARK  Name = 
REMARK  4 active torsions:
REMARK  status: ('A' for Active; 'I' for Inactive)
REMARK    1  A    between atoms: N_1  and  C_2
REMARK    2  A    between atoms: C_5  and  C_6
REMARK    3  A    between atoms: C_6  and  C_8
REMARK    4  A    between atoms: C_9  and  C_10
REMARK                            x       y       z     vdW  Elec       q    Type
REMARK                         _______ _______ _______ _____ _____    ______ ____
ROOT
ATOM      1  C   UNL     1       2.690   7.328  18.546  0.00  0.00    +0.000 C 
ATOM      2  O   UNL     1       3.094   8.068  17.653  0.00  0.00    +0.000 OA
ENDROOT
BRANCH   1   6
ATOM      3  C   UNL     1       3.581   3.113  18.450  0.00  0.00    +0.000 A 
ATOM      4  C   UNL     1       2.424   3.627  17.860  0.00  0.00    +0.000 A 
ATOM      5  C   UNL     1       2.137   4.995  17.922  0.00  0.00    +0.000 A 
ATOM      6  C   UNL     1       3.038   5.880  18.528  0.00  0.00    +0.000 A 
ATOM      7  C   UNL     1       4.218   5.377  19.083  0.00  0.00    +0.000 A 
ATOM      8  C   UNL     1       4.494   4.005  19.018  0.00  0.00    +0.000 A 
BRANCH   3   9
ATOM      9  N   UNL     1       3.927   1.770  18.272  0.00  0.00    +0.000 N 
ATOM     10  H   UNL     1       3.414   1.309  17.526  0.00  0.00    +0.000 HD
ATOM     11  H   UNL     1       3.923   1.225  19.129  0.00  0.00    +0.000 HD
ENDBRANCH   3   9
ENDBRANCH   1   6
BRANCH   1  12
ATOM     12  C   UNL     1       1.910   7.845  19.704  0.00  0.00    +0.000 C 
ATOM     13  C   UNL     1       1.255   9.011  19.601  0.00  0.00    +0.000 C 
BRANCH  13  14
ATOM     14  C   UNL     1       0.543   9.587  20.748  0.00  0.00    +0.000 A 
ATOM     15  C   UNL     1       0.685   8.948  21.988  0.00  0.00    +0.000 A 
ATOM     16  C   UNL     1       0.033   9.435  23.123  0.00  0.00    +0.000 A 
ATOM     17  C   UNL     1      -0.768  10.571  23.031  0.00  0.00    +0.000 A 
ATOM     18  C   UNL     1      -0.923  11.216  21.804  0.00  0.00    +0.000 A 
ATOM     19  C   UNL     1      -0.275  10.726  20.664  0.00  0.00    +0.000 A 
ATOM     20 BR   UNL     1      -0.551  11.651  19.027  0.00  0.00    +0.000 Br
ENDBRANCH  13  14
ENDBRANCH   1  12
TORSDOF 4
ENDMDL
MODEL 9
REMARK VINA RESULT:      -6.5      3.146      4.113
REMARK  Name = 
REMARK  4 active torsions:
REMARK  status: ('A' for Active; 'I' for Inactive)
REMARK    1  A    between atoms: N_1  and  C_2
REMARK    2  A    between atoms: C_5  and  C_6
REMARK    3  A    between atoms: C_6  and  C_8
REMARK    4  A    between atoms: C_9  and  C_10
REMARK                            x       y       z     vdW  Elec       q    Type
REMARK                         _______ _______ _______ _____ _____    ______ ____
ROOT
ATOM      1  C   UNL     1       5.885   6.202  16.525  0.00  0.00    +0.000 C 
ATOM      2  O   UNL     1       6.770   7.004  16.809  0.00  0.00    +0.000 OA
ENDROOT
BRANCH   1   6
ATOM      3  C   UNL     1       6.380   3.767  13.005  0.00  0.00    +0.000 A 
ATOM      4  C   UNL     1       7.421   4.557  13.496  0.00  0.00    +0.000 A 
ATOM      5  C   UNL     1       7.236   5.361  14.626  0.00  0.00    +0.000 A 
ATOM      6  C   UNL     1       6.018   5.341  15.317  0.00  0.00    +0.000 A 
ATOM      7  C   UNL     1       4.985   4.520  14.853  0.00  0.00    +0.000 A 
ATOM      8  C   UNL     1       5.181   3.721  13.719  0.00  0.00    +0.000 A 
BRANCH   3   9
ATOM      9  N   UNL     1       6.610   2.869  11.957  0.00  0.00    +0.000 N 
ATOM     10  H   UNL     1       6.212   3.162  11.070  0.00  0.00    +0.000 HD
ATOM     11  H   UNL     1       6.376   1.906  12.179  0.00  0.00    +0.000 HD
ENDBRANCH   3   9
ENDBRANCH   1   6
BRANCH   1  12
ATOM     12  C   UNL     1       4.694   6.003  17.396  0.00  0.00    +0.000 C 
ATOM     13  C   UNL     1       4.623   4.930  18.199  0.00  0.00    +0.000 C 
BRANCH  13  14
ATOM     14  C   UNL     1       3.430   4.663  19.010  0.00  0.00    +0.000 A 
ATOM     15  C   UNL     1       2.906   5.725  19.762  0.00  0.00    +0.000 A 
ATOM     16  C   UNL     1       1.776   5.544  20.562  0.00  0.00    +0.000 A 
ATOM     17  C   UNL     1       1.153   4.299  20.617  0.00  0.00    +0.000 A 
ATOM     18  C   UNL     1       1.666   3.232  19.878  0.00  0.00    +0.000 A 
ATOM     19  C   UNL     1       2.802   3.409  19.080  0.00  0.00    +0.000 A 
ATOM     20 BR   UNL     1       3.446   1.902  18.119  0.00  0.00    +0.000 Br
ENDBRANCH  13  14
ENDBRANCH   1  12
TORSDOF 4
ENDMDL
