MODEL 1
REMARK VINA RESULT:      -8.3      0.000      0.000
REMARK  Name = 
REMARK  5 active torsions:
REMARK  status: ('A' for Active; 'I' for Inactive)
REMARK    1  A    between atoms: C_1  and  O_2
REMARK    2  A    between atoms: O_2  and  C_3
REMARK    3  A    between atoms: C_5  and  C_6
REMARK    4  A    between atoms: C_22  and  N_23
REMARK    5  A    between atoms: C_31  and  O_32
REMARK                            x       y       z     vdW  Elec       q    Type
REMARK                         _______ _______ _______ _____ _____    ______ ____
ROOT
ATOM      1  C   UNL     1       0.848  10.532  18.693  0.00  0.00    +0.000 C 
ATOM      2  C   UNL     1      -0.602  10.471  18.172  0.00  0.00    +0.000 A 
ATOM      3  C   UNL     1      -1.259   9.707  17.211  0.00  0.00    +0.000 A 
ATOM      4  C   UNL     1      -2.683   9.707  17.201  0.00  0.00    +0.000 A 
ATOM      5  C   UNL     1      -3.439  10.633  17.989  0.00  0.00    +0.000 A 
ATOM      6  C   UNL     1      -4.834  10.750  18.170  0.00  0.00    +0.000 A 
ATOM      7  C   UNL     1      -5.393  11.791  18.953  0.00  0.00    +0.000 A 
ATOM      8  C   UNL     1      -4.598  12.805  19.483  0.00  0.00    +0.000 A 
ATOM      9  C   UNL     1      -3.232  12.668  19.382  0.00  0.00    +0.000 A 
ATOM     10  C   UNL     1      -2.714  11.537  18.745  0.00  0.00    +0.000 A 
ATOM     11  C   UNL     1      -1.442  11.150  19.031  0.00  0.00    +0.000 A 
ATOM     12  O   UNL     1      -1.307  10.672  20.367  0.00  0.00    +0.000 OA
ATOM     13  C   UNL     1      -0.019  10.860  20.912  0.00  0.00    +0.000 A 
ATOM     14  N   UNL     1      -0.160  11.244  22.175  0.00  0.00    +0.000 NA
ATOM     15  C   UNL     1      -0.330  12.556  22.279  0.00  0.00    +0.000 A 
ATOM     16  C   UNL     1       0.155  13.454  21.312  0.00  0.00    +0.000 A 
ATOM     17  C   UNL     1       0.806  12.891  20.141  0.00  0.00    +0.000 A 
ATOM     18  C   UNL     1       0.817  11.470  19.988  0.00  0.00    +0.000 A 
ATOM     19  C   UNL     1      -0.104  14.936  21.557  0.00  0.00    +0.000 C 
ATOM     20  C   UNL     1      -1.255  15.263  22.546  0.00  0.00    +0.000 C 
ATOM     21  C   UNL     1      -1.284  14.334  23.753  0.00  0.00    +0.000 C 
ATOM     22  C   UNL     1      -1.396  12.912  23.269  0.00  0.00    +0.000 C 
ENDROOT
BRANCH   1  25
ATOM     23  C   UNL     1       2.723   7.074  18.456  0.00  0.00    +0.000 A 
ATOM     24  C   UNL     1       2.127   8.303  18.099  0.00  0.00    +0.000 A 
ATOM     25  C   UNL     1       1.414   9.113  19.023  0.00  0.00    +0.000 A 
ATOM     26  C   UNL     1       1.187   8.569  20.292  0.00  0.00    +0.000 A 
ATOM     27  C   UNL     1       1.771   7.350  20.662  0.00  0.00    +0.000 A 
ATOM     28  C   UNL     1       2.581   6.641  19.770  0.00  0.00    +0.000 A 
BRANCH  23  30
ATOM     29  C   UNL     1       4.791   6.849  17.264  0.00  0.00    +0.000 C 
ATOM     30  O   UNL     1       3.421   6.471  17.417  0.00  0.00    +0.000 OA
ENDBRANCH  23  30
BRANCH  28  31
ATOM     31  O   UNL     1       3.235   5.536  20.242  0.00  0.00    +0.000 OA
ATOM     32  H   UNL     1       3.962   5.839  20.811  0.00  0.00    +0.000 HD
ENDBRANCH  28  31
ENDBRANCH   1  25
BRANCH  17  33
ATOM     33  N   UNL     1       1.433  13.749  19.223  0.00  0.00    +0.000 N 
ATOM     34  H   UNL     1       2.449  13.776  19.281  0.00  0.00    +0.000 HD
ATOM     35  H   UNL     1       1.035  14.678  19.128  0.00  0.00    +0.000 HD
ENDBRANCH  17  33
TORSDOF 4
ENDMDL
MODEL 2
REMARK VINA RESULT:      -8.0      1.597      2.542
REMARK  Name = 
REMARK  5 active torsions:
REMARK  status: ('A' for Active; 'I' for Inactive)
REMARK    1  A    between atoms: C_1  and  O_2
REMARK    2  A    between atoms: O_2  and  C_3
REMARK    3  A    between atoms: C_5  and  C_6
REMARK    4  A    between atoms: C_22  and  N_23
REMARK    5  A    between atoms: C_31  and  O_32
REMARK                            x       y       z     vdW  Elec       q    Type
REMARK                         _______ _______ _______ _____ _____    ______ ____
ROOT
ATOM      1  C   UNL     1      -0.415  11.630  18.568  0.00  0.00    +0.000 C 
ATOM      2  C   UNL     1      -1.840  11.198  18.171  0.00  0.00    +0.000 A 
ATOM      3  C   UNL     1      -2.362  10.178  17.377  0.00  0.00    +0.000 A 
ATOM      4  C   UNL     1      -3.753   9.888  17.474  0.00  0.00    +0.000 A 
ATOM      5  C   UNL     1      -4.652  10.751  18.180  0.00  0.00    +0.000 A 
ATOM      6  C   UNL     1      -6.031  10.608  18.447  0.00  0.00    +0.000 A 
ATOM      7  C   UNL     1      -6.762  11.621  19.116  0.00  0.00    +0.000 A 
ATOM      8  C   UNL     1      -6.178  12.843  19.438  0.00  0.00    +0.000 A 
ATOM      9  C   UNL     1      -4.820  12.972  19.255  0.00  0.00    +0.000 A 
ATOM     10  C   UNL     1      -4.102  11.886  18.745  0.00  0.00    +0.000 A 
ATOM     11  C   UNL     1      -2.766  11.815  18.987  0.00  0.00    +0.000 A 
ATOM     12  O   UNL     1      -2.474  11.583  20.362  0.00  0.00    +0.000 OA
ATOM     13  C   UNL     1      -1.232  12.109  20.777  0.00  0.00    +0.000 A 
ATOM     14  N   UNL     1      -1.395  12.644  21.982  0.00  0.00    +0.000 NA
ATOM     15  C   UNL     1      -1.835  13.895  21.914  0.00  0.00    +0.000 A 
ATOM     16  C   UNL     1      -1.594  14.715  20.797  0.00  0.00    +0.000 A 
ATOM     17  C   UNL     1      -0.891  14.124  19.671  0.00  0.00    +0.000 A 
ATOM     18  C   UNL     1      -0.586  12.728  19.718  0.00  0.00    +0.000 A 
ATOM     19  C   UNL     1      -2.150  16.133  20.851  0.00  0.00    +0.000 C 
ATOM     20  C   UNL     1      -3.299  16.366  21.868  0.00  0.00    +0.000 C 
ATOM     21  C   UNL     1      -3.078  15.645  23.192  0.00  0.00    +0.000 C 
ATOM     22  C   UNL     1      -2.907  14.174  22.921  0.00  0.00    +0.000 C 
ENDROOT
BRANCH   1  25
ATOM     23  C   UNL     1       1.278   8.857  20.800  0.00  0.00    +0.000 A 
ATOM     24  C   UNL     1       0.577  10.018  20.406  0.00  0.00    +0.000 A 
ATOM     25  C   UNL     1       0.453  10.422  19.049  0.00  0.00    +0.000 A 
ATOM     26  C   UNL     1       1.192   9.697  18.107  0.00  0.00    +0.000 A 
ATOM     27  C   UNL     1       1.894   8.544  18.482  0.00  0.00    +0.000 A 
ATOM     28  C   UNL     1       1.885   8.096  19.806  0.00  0.00    +0.000 A 
BRANCH  23  30
ATOM     29  C   UNL     1       0.302   9.400  22.921  0.00  0.00    +0.000 C 
ATOM     30  O   UNL     1       1.229   8.615  22.167  0.00  0.00    +0.000 OA
ENDBRANCH  23  30
BRANCH  28  31
ATOM     31  O   UNL     1       2.467   6.888  20.075  0.00  0.00    +0.000 OA
ATOM     32  H   UNL     1       3.324   6.860  19.618  0.00  0.00    +0.000 HD
ENDBRANCH  28  31
ENDBRANCH   1  25
BRANCH  17  33
ATOM     33  N   UNL     1      -0.501  14.941  18.598  0.00  0.00    +0.000 N 
ATOM     34  H   UNL     1       0.149  14.512  17.942  0.00  0.00    +0.000 HD
ATOM     35  H   UNL     1      -0.233  15.891  18.828  0.00  0.00    +0.000 HD
ENDBRANCH  17  33
TORSDOF 4
ENDMDL
MODEL 3
REMARK VINA RESULT:      -8.0      2.977      5.513
REMARK  Name = 
REMARK  5 active torsions:
REMARK  status: ('A' for Active; 'I' for Inactive)
REMARK    1  A    between atoms: C_1  and  O_2
REMARK    2  A    between atoms: O_2  and  C_3
REMARK    3  A    between atoms: C_5  and  C_6
REMARK    4  A    between atoms: C_22  and  N_23
REMARK    5  A    between atoms: C_31  and  O_32
REMARK                            x       y       z     vdW  Elec       q    Type
REMARK                         _______ _______ _______ _____ _____    ______ ____
ROOT
ATOM      1  C   UNL     1      -1.461  12.876  23.065  0.00  0.00    +0.000 C 
ATOM      2  C   UNL     1      -1.120  14.122  22.225  0.00  0.00    +0.000 A 
ATOM      3  C   UNL     1       0.060  14.659  21.715  0.00  0.00    +0.000 A 
ATOM      4  C   UNL     1      -0.031  15.671  20.718  0.00  0.00    +0.000 A 
ATOM      5  C   UNL     1      -1.277  16.301  20.399  0.00  0.00    +0.000 A 
ATOM      6  C   UNL     1      -1.587  17.261  19.411  0.00  0.00    +0.000 A 
ATOM      7  C   UNL     1      -2.888  17.813  19.299  0.00  0.00    +0.000 A 
ATOM      8  C   UNL     1      -3.882  17.516  20.228  0.00  0.00    +0.000 A 
ATOM      9  C   UNL     1      -3.623  16.528  21.151  0.00  0.00    +0.000 A 
ATOM     10  C   UNL     1      -2.381  15.887  21.122  0.00  0.00    +0.000 A 
ATOM     11  C   UNL     1      -2.271  14.650  21.674  0.00  0.00    +0.000 A 
ATOM     12  O   UNL     1      -2.990  13.661  20.943  0.00  0.00    +0.000 OA
ATOM     13  C   UNL     1      -3.441  12.583  21.733  0.00  0.00    +0.000 A 
ATOM     14  N   UNL     1      -4.669  12.269  21.337  0.00  0.00    +0.000 NA
ATOM     15  C   UNL     1      -5.590  13.014  21.936  0.00  0.00    +0.000 A 
ATOM     16  C   UNL     1      -5.377  13.602  23.195  0.00  0.00    +0.000 A 
ATOM     17  C   UNL     1      -4.072  13.419  23.808  0.00  0.00    +0.000 A 
ATOM     18  C   UNL     1      -3.055  12.753  23.055  0.00  0.00    +0.000 A 
ATOM     19  C   UNL     1      -6.519  14.429  23.771  0.00  0.00    +0.000 C 
ATOM     20  C   UNL     1      -7.569  14.933  22.745  0.00  0.00    +0.000 C 
ATOM     21  C   UNL     1      -7.917  13.890  21.689  0.00  0.00    +0.000 C 
ATOM     22  C   UNL     1      -6.653  13.472  20.985  0.00  0.00    +0.000 C 
ENDROOT
BRANCH   1  25
ATOM     23  C   UNL     1       0.580  10.363  20.816  0.00  0.00    +0.000 A 
ATOM     24  C   UNL     1      -0.122  11.510  21.248  0.00  0.00    +0.000 A 
ATOM     25  C   UNL     1      -0.780  11.585  22.505  0.00  0.00    +0.000 A 
ATOM     26  C   UNL     1      -0.838  10.405  23.256  0.00  0.00    +0.000 A 
ATOM     27  C   UNL     1      -0.148   9.259  22.841  0.00  0.00    +0.000 A 
ATOM     28  C   UNL     1       0.604   9.259  21.662  0.00  0.00    +0.000 A 
BRANCH  23  30
ATOM     29  C   UNL     1       0.507   9.985  18.450  0.00  0.00    +0.000 C 
ATOM     30  O   UNL     1       1.198  10.521  19.582  0.00  0.00    +0.000 OA
ENDBRANCH  23  30
BRANCH  28  31
ATOM     31  O   UNL     1       1.368   8.158  21.392  0.00  0.00    +0.000 OA
ATOM     32  H   UNL     1       1.927   7.983  22.168  0.00  0.00    +0.000 HD
ENDBRANCH  28  31
ENDBRANCH   1  25
BRANCH  17  33
ATOM     33  N   UNL     1      -3.862  13.861  25.124  0.00  0.00    +0.000 N 
ATOM     34  H   UNL     1      -4.001  13.155  25.844  0.00  0.00    +0.000 HD
ATOM     35  H   UNL     1      -4.287  14.747  25.376  0.00  0.00    +0.000 HD
ENDBRANCH  17  33
TORSDOF 4
ENDMDL
MODEL 4
REMARK VINA RESULT:      -7.8      3.758      6.327
REMARK  Name = 
REMARK  5 active torsions:
REMARK  status: ('A' for Active; 'I' for Inactive)
REMARK    1  A    between atoms: C_1  and  O_2
REMARK    2  A    between atoms: O_2  and  C_3
REMARK    3  A    between atoms: C_5  and  C_6
REMARK    4  A    between atoms: C_22  and  N_23
REMARK    5  A    between atoms: C_31  and  O_32
REMARK                            x       y       z     vdW  Elec       q    Type
REMARK                         _______ _______ _______ _____ _____    ______ ____
ROOT
ATOM      1  C   UNL     1      -0.285  14.385  19.241  0.00  0.00    +0.000 C 
ATOM      2  C   UNL     1       0.022  12.912  19.573  0.00  0.00    +0.000 A 
ATOM      3  C   UNL     1       0.730  11.897  18.931  0.00  0.00    +0.000 A 
ATOM      4  C   UNL     1       1.068  10.731  19.676  0.00  0.00    +0.000 A 
ATOM      5  C   UNL     1       0.513  10.480  20.972  0.00  0.00    +0.000 A 
ATOM      6  C   UNL     1       0.768   9.437  21.886  0.00  0.00    +0.000 A 
ATOM      7  C   UNL     1       0.056   9.333  23.107  0.00  0.00    +0.000 A 
ATOM      8  C   UNL     1      -1.002  10.189  23.403  0.00  0.00    +0.000 A 
ATOM      9  C   UNL     1      -1.217  11.257  22.561  0.00  0.00    +0.000 A 
ATOM     10  C   UNL     1      -0.381  11.420  21.452  0.00  0.00    +0.000 A 
ATOM     11  C   UNL     1      -0.264  12.656  20.898  0.00  0.00    +0.000 A 
ATOM     12  O   UNL     1       0.407  13.575  21.755  0.00  0.00    +0.000 OA
ATOM     13  C   UNL     1       0.022  14.919  21.564  0.00  0.00    +0.000 A 
ATOM     14  N   UNL     1      -0.076  15.491  22.759  0.00  0.00    +0.000 NA
ATOM     15  C   UNL     1      -1.267  15.290  23.310  0.00  0.00    +0.000 A 
ATOM     16  C   UNL     1      -2.418  15.048  22.540  0.00  0.00    +0.000 A 
ATOM     17  C   UNL     1      -2.255  14.960  21.099  0.00  0.00    +0.000 A 
ATOM     18  C   UNL     1      -0.931  15.014  20.561  0.00  0.00    +0.000 A 
ATOM     19  C   UNL     1      -3.723  14.839  23.299  0.00  0.00    +0.000 C 
ATOM     20  C   UNL     1      -3.576  14.438  24.792  0.00  0.00    +0.000 C 
ATOM     21  C   UNL     1      -2.459  15.191  25.503  0.00  0.00    +0.000 C 
ATOM     22  C   UNL     1      -1.167  14.955  24.766  0.00  0.00    +0.000 C 
ENDROOT
BRANCH   1  25
ATOM     23  C   UNL     1       2.147  17.187  17.911  0.00  0.00    +0.000 A 
ATOM     24  C   UNL     1       0.974  16.457  18.201  0.00  0.00    +0.000 A 
ATOM     25  C   UNL     1       0.993  15.167  18.796  0.00  0.00    +0.000 A 
ATOM     26  C   UNL     1       2.247  14.565  18.951  0.00  0.00    +0.000 A 
ATOM     27  C   UNL     1       3.421  15.274  18.668  0.00  0.00    +0.000 A 
ATOM     28  C   UNL     1       3.371  16.594  18.210  0.00  0.00    +0.000 A 
BRANCH  23  30
ATOM     29  C   UNL     1       0.662  18.623  16.695  0.00  0.00    +0.000 C 
ATOM     30  O   UNL     1       1.903  18.449  17.385  0.00  0.00    +0.000 OA
ENDBRANCH  23  30
BRANCH  28  31
ATOM     31  O   UNL     1       4.551  17.275  18.092  0.00  0.00    +0.000 OA
ATOM     32  H   UNL     1       4.773  17.328  17.147  0.00  0.00    +0.000 HD
ENDBRANCH  28  31
ENDBRANCH   1  25
BRANCH  17  33
ATOM     33  N   UNL     1      -3.393  14.866  20.282  0.00  0.00    +0.000 N 
ATOM     34  H   UNL     1      -4.225  15.326  20.645  0.00  0.00    +0.000 HD
ATOM     35  H   UNL     1      -3.603  13.949  19.904  0.00  0.00    +0.000 HD
ENDBRANCH  17  33
TORSDOF 4
ENDMDL
MODEL 5
REMARK VINA RESULT:      -7.6      3.258      5.967
REMARK  Name = 
REMARK  5 active torsions:
REMARK  status: ('A' for Active; 'I' for Inactive)
REMARK    1  A    between atoms: C_1  and  O_2
REMARK    2  A    between atoms: O_2  and  C_3
REMARK    3  A    between atoms: C_5  and  C_6
REMARK    4  A    between atoms: C_22  and  N_23
REMARK    5  A    between atoms: C_31  and  O_32
REMARK                            x       y       z     vdW  Elec       q    Type
REMARK                         _______ _______ _______ _____ _____    ______ ____
ROOT
ATOM      1  C   UNL     1      -1.141  11.121  19.838  0.00  0.00    +0.000 C 
ATOM      2  C   UNL     1       0.263  11.625  19.451  0.00  0.00    +0.000 A 
ATOM      3  C   UNL     1       1.215  11.230  18.514  0.00  0.00    +0.000 A 
ATOM      4  C   UNL     1       2.289  12.119  18.221  0.00  0.00    +0.000 A 
ATOM      5  C   UNL     1       2.537  13.284  19.016  0.00  0.00    +0.000 A 
ATOM      6  C   UNL     1       3.491  14.311  18.855  0.00  0.00    +0.000 A 
ATOM      7  C   UNL     1       3.617  15.358  19.802  0.00  0.00    +0.000 A 
ATOM      8  C   UNL     1       2.884  15.355  20.986  0.00  0.00    +0.000 A 
ATOM      9  C   UNL     1       1.897  14.406  21.127  0.00  0.00    +0.000 A 
ATOM     10  C   UNL     1       1.691  13.489  20.091  0.00  0.00    +0.000 A 
ATOM     11  C   UNL     1       0.482  12.877  19.991  0.00  0.00    +0.000 A 
ATOM     12  O   UNL     1      -0.558  13.781  19.629  0.00  0.00    +0.000 OA
ATOM     13  C   UNL     1      -1.832  13.407  20.108  0.00  0.00    +0.000 A 
ATOM     14  N   UNL     1      -2.450  14.505  20.527  0.00  0.00    +0.000 NA
ATOM     15  C   UNL     1      -2.133  14.806  21.781  0.00  0.00    +0.000 A 
ATOM     16  C   UNL     1      -1.710  13.832  22.702  0.00  0.00    +0.000 A 
ATOM     17  C   UNL     1      -1.566  12.469  22.218  0.00  0.00    +0.000 A 
ATOM     18  C   UNL     1      -1.755  12.221  20.822  0.00  0.00    +0.000 A 
ATOM     19  C   UNL     1      -1.382  14.312  24.110  0.00  0.00    +0.000 C 
ATOM     20  C   UNL     1      -1.082  15.829  24.251  0.00  0.00    +0.000 C 
ATOM     21  C   UNL     1      -2.005  16.699  23.406  0.00  0.00    +0.000 C 
ATOM     22  C   UNL     1      -1.891  16.273  21.966  0.00  0.00    +0.000 C 
ENDROOT
BRANCH   1  25
ATOM     23  C   UNL     1      -4.087  11.348  17.230  0.00  0.00    +0.000 A 
ATOM     24  C   UNL     1      -3.335  11.479  18.418  0.00  0.00    +0.000 A 
ATOM     25  C   UNL     1      -2.050  10.896  18.586  0.00  0.00    +0.000 A 
ATOM     26  C   UNL     1      -1.608  10.043  17.568  0.00  0.00    +0.000 A 
ATOM     27  C   UNL     1      -2.342   9.902  16.384  0.00  0.00    +0.000 A 
ATOM     28  C   UNL     1      -3.540  10.597  16.194  0.00  0.00    +0.000 A 
BRANCH  23  30
ATOM     29  C   UNL     1      -6.360  11.441  17.987  0.00  0.00    +0.000 C 
ATOM     30  O   UNL     1      -5.290  12.042  17.253  0.00  0.00    +0.000 OA
ENDBRANCH  23  30
BRANCH  28  31
ATOM     31  O   UNL     1      -4.130  10.528  14.962  0.00  0.00    +0.000 OA
ATOM     32  H   UNL     1      -5.092  10.477  15.093  0.00  0.00    +0.000 HD
ENDBRANCH  28  31
ENDBRANCH   1  25
BRANCH  17  33
ATOM     33  N   UNL     1      -1.288  11.440  23.131  0.00  0.00    +0.000 N 
ATOM     34  H   UNL     1      -1.338  11.708  24.112  0.00  0.00    +0.000 HD
ATOM     35  H   UNL     1      -0.471  10.872  22.937  0.00  0.00    +0.000 HD
ENDBRANCH  17  33
TORSDOF 4
ENDMDL
MODEL 6
REMARK VINA RESULT:      -7.6      2.469      6.821
REMARK  Name = 
REMARK  5 active torsions:
REMARK  status: ('A' for Active; 'I' for Inactive)
REMARK    1  A    between atoms: C_1  and  O_2
REMARK    2  A    between atoms: O_2  and  C_3
REMARK    3  A    between atoms: C_5  and  C_6
REMARK    4  A    between atoms: C_22  and  N_23
REMARK    5  A    between atoms: C_31  and  O_32
REMARK                            x       y       z     vdW  Elec       q    Type
REMARK                         _______ _______ _______ _____ _____    ______ ____
ROOT
ATOM      1  C   UNL     1      -2.042  12.319  21.819  0.00  0.00    +0.000 C 
ATOM      2  C   UNL     1      -3.052  12.162  20.666  0.00  0.00    +0.000 A 
ATOM      3  C   UNL     1      -4.343  12.632  20.433  0.00  0.00    +0.000 A 
ATOM      4  C   UNL     1      -4.871  12.539  19.114  0.00  0.00    +0.000 A 
ATOM      5  C   UNL     1      -4.211  11.782  18.093  0.00  0.00    +0.000 A 
ATOM      6  C   UNL     1      -4.528  11.623  16.727  0.00  0.00    +0.000 A 
ATOM      7  C   UNL     1      -3.773  10.766  15.888  0.00  0.00    +0.000 A 
ATOM      8  C   UNL     1      -2.759   9.960  16.400  0.00  0.00    +0.000 A 
ATOM      9  C   UNL     1      -2.386  10.155  17.710  0.00  0.00    +0.000 A 
ATOM     10  C   UNL     1      -3.046  11.133  18.461  0.00  0.00    +0.000 A 
ATOM     11  C   UNL     1      -2.420  11.656  19.548  0.00  0.00    +0.000 A 
ATOM     12  O   UNL     1      -1.289  12.446  19.196  0.00  0.00    +0.000 OA
ATOM     13  C   UNL     1      -0.284  12.476  20.187  0.00  0.00    +0.000 A 
ATOM     14  N   UNL     1       0.894  12.396  19.579  0.00  0.00    +0.000 NA
ATOM     15  C   UNL     1       1.247  11.138  19.343  0.00  0.00    +0.000 A 
ATOM     16  C   UNL     1       0.775  10.068  20.123  0.00  0.00    +0.000 A 
ATOM     17  C   UNL     1      -0.178  10.376  21.176  0.00  0.00    +0.000 A 
ATOM     18  C   UNL     1      -0.660  11.718  21.285  0.00  0.00    +0.000 A 
ATOM     19  C   UNL     1       1.263   8.674  19.747  0.00  0.00    +0.000 C 
ATOM     20  C   UNL     1       1.813   8.520  18.304  0.00  0.00    +0.000 C 
ATOM     21  C   UNL     1       2.659   9.707  17.860  0.00  0.00    +0.000 C 
ATOM     22  C   UNL     1       1.835  10.962  17.976  0.00  0.00    +0.000 C 
ENDROOT
BRANCH   1  25
ATOM     23  C   UNL     1      -1.020  15.576  23.790  0.00  0.00    +0.000 A 
ATOM     24  C   UNL     1      -1.244  14.220  23.465  0.00  0.00    +0.000 A 
ATOM     25  C   UNL     1      -1.887  13.809  22.266  0.00  0.00    +0.000 A 
ATOM     26  C   UNL     1      -2.438  14.819  21.469  0.00  0.00    +0.000 A 
ATOM     27  C   UNL     1      -2.226  16.169  21.778  0.00  0.00    +0.000 A 
ATOM     28  C   UNL     1      -1.472  16.541  22.895  0.00  0.00    +0.000 A 
BRANCH  23  30
ATOM     29  C   UNL     1      -1.114  15.872  26.167  0.00  0.00    +0.000 C 
ATOM     30  O   UNL     1      -0.326  15.757  24.979  0.00  0.00    +0.000 OA
ENDBRANCH  23  30
BRANCH  28  31
ATOM     31  O   UNL     1      -1.182  17.868  23.056  0.00  0.00    +0.000 OA
ATOM     32  H   UNL     1      -0.333  18.044  22.617  0.00  0.00    +0.000 HD
ENDBRANCH  28  31
ENDBRANCH   1  25
BRANCH  17  33
ATOM     33  N   UNL     1      -0.564   9.365  22.071  0.00  0.00    +0.000 N 
ATOM     34  H   UNL     1      -1.136   9.676  22.853  0.00  0.00    +0.000 HD
ATOM     35  H   UNL     1       0.162   8.722  22.367  0.00  0.00    +0.000 HD
ENDBRANCH  17  33
TORSDOF 4
ENDMDL
MODEL 7
REMARK VINA RESULT:      -7.5      2.113      3.603
REMARK  Name = 
REMARK  5 active torsions:
REMARK  status: ('A' for Active; 'I' for Inactive)
REMARK    1  A    between atoms: C_1  and  O_2
REMARK    2  A    between atoms: O_2  and  C_3
REMARK    3  A    between atoms: C_5  and  C_6
REMARK    4  A    between atoms: C_22  and  N_23
REMARK    5  A    between atoms: C_31  and  O_32
REMARK                            x       y       z     vdW  Elec       q    Type
REMARK                         _______ _______ _______ _____ _____    ______ ____
ROOT
ATOM      1  C   UNL     1      -1.422  12.699  19.373  0.00  0.00    +0.000 C 
ATOM      2  C   UNL     1      -2.841  12.224  19.005  0.00  0.00    +0.000 A 
ATOM      3  C   UNL     1      -3.352  11.282  18.115  0.00  0.00    +0.000 A 
ATOM      4  C   UNL     1      -4.713  10.887  18.253  0.00  0.00    +0.000 A 
ATOM      5  C   UNL     1      -5.615  11.587  19.118  0.00  0.00    +0.000 A 
ATOM      6  C   UNL     1      -6.961  11.316  19.443  0.00  0.00    +0.000 A 
ATOM      7  C   UNL     1      -7.706  12.181  20.283  0.00  0.00    +0.000 A 
ATOM      8  C   UNL     1      -7.178  13.389  20.730  0.00  0.00    +0.000 A 
ATOM      9  C   UNL     1      -5.845  13.634  20.488  0.00  0.00    +0.000 A 
ATOM     10  C   UNL     1      -5.098  12.675  19.797  0.00  0.00    +0.000 A 
ATOM     11  C   UNL     1      -3.747  12.665  19.949  0.00  0.00    +0.000 A 
ATOM     12  O   UNL     1      -3.350  12.278  21.261  0.00  0.00    +0.000 OA
ATOM     13  C   UNL     1      -2.118  12.831  21.670  0.00  0.00    +0.000 A 
ATOM     14  N   UNL     1      -2.233  13.194  22.943  0.00  0.00    +0.000 NA
ATOM     15  C   UNL     1      -2.751  14.409  23.068  0.00  0.00    +0.000 A 
ATOM     16  C   UNL     1      -2.636  15.381  22.058  0.00  0.00    +0.000 A 
ATOM     17  C   UNL     1      -1.975  14.990  20.824  0.00  0.00    +0.000 A 
ATOM     18  C   UNL     1      -1.582  13.624  20.667  0.00  0.00    +0.000 A 
ATOM     19  C   UNL     1      -3.272  16.738  22.332  0.00  0.00    +0.000 C 
ATOM     20  C   UNL     1      -4.363  16.759  23.437  0.00  0.00    +0.000 C 
ATOM     21  C   UNL     1      -4.010  15.890  24.638  0.00  0.00    +0.000 C 
ATOM     22  C   UNL     1      -3.769  14.481  24.164  0.00  0.00    +0.000 C 
ENDROOT
BRANCH   1  25
ATOM     23  C   UNL     1       0.765   9.941  21.147  0.00  0.00    +0.000 A 
ATOM     24  C   UNL     1      -0.022  11.093  20.929  0.00  0.00    +0.000 A 
ATOM     25  C   UNL     1      -0.452  11.502  19.638  0.00  0.00    +0.000 A 
ATOM     26  C   UNL     1       0.067  10.793  18.548  0.00  0.00    +0.000 A 
ATOM     27  C   UNL     1       0.850   9.649  18.747  0.00  0.00    +0.000 A 
ATOM     28  C   UNL     1       1.144   9.194  20.036  0.00  0.00    +0.000 A 
BRANCH  23  30
ATOM     29  C   UNL     1      -0.110   9.578  23.349  0.00  0.00    +0.000 C 
ATOM     30  O   UNL     1       1.026   9.691  22.488  0.00  0.00    +0.000 OA
ENDBRANCH  23  30
BRANCH  28  31
ATOM     31  O   UNL     1       1.788   7.993  20.158  0.00  0.00    +0.000 OA
ATOM     32  H   UNL     1       2.534   7.989  19.536  0.00  0.00    +0.000 HD
ENDBRANCH  28  31
ENDBRANCH   1  25
BRANCH  17  33
ATOM     33  N   UNL     1      -1.708  15.964  19.849  0.00  0.00    +0.000 N 
ATOM     34  H   UNL     1      -2.320  16.777  19.871  0.00  0.00    +0.000 HD
ATOM     35  H   UNL     1      -1.560  15.628  18.903  0.00  0.00    +0.000 HD
ENDBRANCH  17  33
TORSDOF 4
ENDMDL
MODEL 8
REMARK VINA RESULT:      -7.5      1.113      1.962
REMARK  Name = 
REMARK  5 active torsions:
REMARK  status: ('A' for Active; 'I' for Inactive)
REMARK    1  A    between atoms: C_1  and  O_2
REMARK    2  A    between atoms: O_2  and  C_3
REMARK    3  A    between atoms: C_5  and  C_6
REMARK    4  A    between atoms: C_22  and  N_23
REMARK    5  A    between atoms: C_31  and  O_32
REMARK                            x       y       z     vdW  Elec       q    Type
REMARK                         _______ _______ _______ _____ _____    ______ ____
ROOT
ATOM      1  C   UNL     1       0.292  11.564  18.506  0.00  0.00    +0.000 C 
ATOM      2  C   UNL     1      -1.208  11.346  18.226  0.00  0.00    +0.000 A 
ATOM      3  C   UNL     1      -1.927  10.515  17.370  0.00  0.00    +0.000 A 
ATOM      4  C   UNL     1      -3.325  10.360  17.592  0.00  0.00    +0.000 A 
ATOM      5  C   UNL     1      -4.038  11.197  18.509  0.00  0.00    +0.000 A 
ATOM      6  C   UNL     1      -5.388  11.161  18.916  0.00  0.00    +0.000 A 
ATOM      7  C   UNL     1      -5.921  12.134  19.799  0.00  0.00    +0.000 A 
ATOM      8  C   UNL     1      -5.164  13.228  20.211  0.00  0.00    +0.000 A 
ATOM      9  C   UNL     1      -3.827  13.241  19.887  0.00  0.00    +0.000 A 
ATOM     10  C   UNL     1      -3.300  12.174  19.154  0.00  0.00    +0.000 A 
ATOM     11  C   UNL     1      -1.965  11.929  19.223  0.00  0.00    +0.000 A 
ATOM     12  O   UNL     1      -1.562  11.467  20.509  0.00  0.00    +0.000 OA
ATOM     13  C   UNL     1      -0.230  11.794  20.841  0.00  0.00    +0.000 A 
ATOM     14  N   UNL     1      -0.203  12.160  22.118  0.00  0.00    +0.000 NA
ATOM     15  C   UNL     1      -0.494  13.446  22.272  0.00  0.00    +0.000 A 
ATOM     16  C   UNL     1      -0.274  14.392  21.256  0.00  0.00    +0.000 A 
ATOM     17  C   UNL     1       0.233  13.904  19.984  0.00  0.00    +0.000 A 
ATOM     18  C   UNL     1       0.373  12.492  19.806  0.00  0.00    +0.000 A 
ATOM     19  C   UNL     1      -0.648  15.837  21.566  0.00  0.00    +0.000 C 
ATOM     20  C   UNL     1      -1.650  16.035  22.735  0.00  0.00    +0.000 C 
ATOM     21  C   UNL     1      -1.381  15.108  23.914  0.00  0.00    +0.000 C 
ATOM     22  C   UNL     1      -1.417  13.683  23.428  0.00  0.00    +0.000 C 
ENDROOT
BRANCH   1  25
ATOM     23  C   UNL     1       1.579   8.154  20.005  0.00  0.00    +0.000 A 
ATOM     24  C   UNL     1       0.968   9.422  19.888  0.00  0.00    +0.000 A 
ATOM     25  C   UNL     1       1.054  10.216  18.713  0.00  0.00    +0.000 A 
ATOM     26  C   UNL     1       1.909   9.756  17.704  0.00  0.00    +0.000 A 
ATOM     27  C   UNL     1       2.523   8.501  17.805  0.00  0.00    +0.000 A 
ATOM     28  C   UNL     1       2.310   7.683  18.919  0.00  0.00    +0.000 A 
BRANCH  23  30
ATOM     29  C   UNL     1       0.479   8.221  22.134  0.00  0.00    +0.000 C 
ATOM     30  O   UNL     1       1.323   7.522  21.215  0.00  0.00    +0.000 OA
ENDBRANCH  23  30
BRANCH  28  31
ATOM     31  O   UNL     1       2.820   6.415  18.887  0.00  0.00    +0.000 OA
ATOM     32  H   UNL     1       2.966   6.173  17.957  0.00  0.00    +0.000 HD
ENDBRANCH  28  31
ENDBRANCH   1  25
BRANCH  17  33
ATOM     33  N   UNL     1       0.606  14.826  18.993  0.00  0.00    +0.000 N 
ATOM     34  H   UNL     1       0.868  14.416  18.098  0.00  0.00    +0.000 HD
ATOM     35  H   UNL     1       1.248  15.558  19.275  0.00  0.00    +0.000 HD
ENDBRANCH  17  33
TORSDOF 4
ENDMDL
MODEL 9
REMARK VINA RESULT:      -7.5      3.607      7.818
REMARK  Name = 
REMARK  5 active torsions:
REMARK  status: ('A' for Active; 'I' for Inactive)
REMARK    1  A    between atoms: C_1  and  O_2
REMARK    2  A    between atoms: O_2  and  C_3
REMARK    3  A    between atoms: C_5  and  C_6
REMARK    4  A    between atoms: C_22  and  N_23
REMARK    5  A    between atoms: C_31  and  O_32
REMARK                            x       y       z     vdW  Elec       q    Type
REMARK                         _______ _______ _______ _____ _____    ______ ____
ROOT
ATOM      1  C   UNL     1      -3.550  13.116  22.932  0.00  0.00    +0.000 C 
ATOM      2  C   UNL     1      -4.478  12.720  21.767  0.00  0.00    +0.000 A 
ATOM      3  C   UNL     1      -5.860  12.662  21.599  0.00  0.00    +0.000 A 
ATOM      4  C   UNL     1      -6.379  12.539  20.279  0.00  0.00    +0.000 A 
ATOM      5  C   UNL     1      -5.530  12.248  19.162  0.00  0.00    +0.000 A 
ATOM      6  C   UNL     1      -5.832  12.156  17.787  0.00  0.00    +0.000 A 
ATOM      7  C   UNL     1      -4.847  11.789  16.837  0.00  0.00    +0.000 A 
ATOM      8  C   UNL     1      -3.571  11.395  17.232  0.00  0.00    +0.000 A 
ATOM      9  C   UNL     1      -3.234  11.551  18.558  0.00  0.00    +0.000 A 
ATOM     10  C   UNL     1      -4.185  12.076  19.438  0.00  0.00    +0.000 A 
ATOM     11  C   UNL     1      -3.759  12.659  20.589  0.00  0.00    +0.000 A 
ATOM     12  O   UNL     1      -3.053  13.874  20.355  0.00  0.00    +0.000 OA
ATOM     13  C   UNL     1      -2.089  14.173  21.342  0.00  0.00    +0.000 A 
ATOM     14  N   UNL     1      -1.011  14.650  20.731  0.00  0.00    +0.000 NA
ATOM     15  C   UNL     1      -0.203  13.680  20.321  0.00  0.00    +0.000 A 
ATOM     16  C   UNL     1      -0.170  12.419  20.941  0.00  0.00    +0.000 A 
ATOM     17  C   UNL     1      -1.108  12.180  22.025  0.00  0.00    +0.000 A 
ATOM     18  C   UNL     1      -2.074  13.191  22.322  0.00  0.00    +0.000 A 
ATOM     19  C   UNL     1       0.808  11.397  20.373  0.00  0.00    +0.000 C 
ATOM     20  C   UNL     1       1.295  11.665  18.923  0.00  0.00    +0.000 C 
ATOM     21  C   UNL     1       1.577  13.138  18.653  0.00  0.00    +0.000 C 
ATOM     22  C   UNL     1       0.332  13.933  18.945  0.00  0.00    +0.000 C 
ENDROOT
BRANCH   1  25
ATOM     23  C   UNL     1      -5.582  16.333  23.961  0.00  0.00    +0.000 A 
ATOM     24  C   UNL     1      -5.172  15.168  23.276  0.00  0.00    +0.000 A 
ATOM     25  C   UNL     1      -3.973  14.471  23.586  0.00  0.00    +0.000 A 
ATOM     26  C   UNL     1      -3.117  15.075  24.514  0.00  0.00    +0.000 A 
ATOM     27  C   UNL     1      -3.508  16.231  25.202  0.00  0.00    +0.000 A 
ATOM     28  C   UNL     1      -4.756  16.818  24.970  0.00  0.00    +0.000 A 
BRANCH  23  30
ATOM     29  C   UNL     1      -7.711  15.874  22.959  0.00  0.00    +0.000 C 
ATOM     30  O   UNL     1      -6.811  16.823  23.539  0.00  0.00    +0.000 OA
ENDBRANCH  23  30
BRANCH  28  31
ATOM     31  O   UNL     1      -5.134  17.855  25.777  0.00  0.00    +0.000 OA
ATOM     32  H   UNL     1      -6.100  17.941  25.722  0.00  0.00    +0.000 HD
ENDBRANCH  28  31
ENDBRANCH   1  25
BRANCH  17  33
ATOM     33  N   UNL     1      -1.014  10.992  22.767  0.00  0.00    +0.000 N 
ATOM     34  H   UNL     1      -0.255  10.965  23.445  0.00  0.00    +0.000 HD
ATOM     35  H   UNL     1      -1.084  10.125  22.244  0.00  0.00    +0.000 HD
ENDBRANCH  17  33
TORSDOF 4
ENDMDL
