MODEL 1
REMARK VINA RESULT:      -7.9      0.000      0.000
REMARK  Name = 
REMARK  9 active torsions:
REMARK  status: ('A' for Active; 'I' for Inactive)
REMARK    1  A    between atoms: C_1  and  C_2
REMARK    2  A    between atoms: C_6  and  N_7
REMARK    3  A    between atoms: C_8  and  C_10
REMARK    4  A    between atoms: C_10  and  S_11
REMARK    5  A    between atoms: S_11  and  C_12
REMARK    6  A    between atoms: N_16  and  C_17
REMARK    7  A    between atoms: C_17  and  C_18
REMARK    8  A    between atoms: C_18  and  N_19
REMARK    9  A    between atoms: C_31  and  C_32
REMARK                            x       y       z     vdW  Elec       q    Type
REMARK                         _______ _______ _______ _____ _____    ______ ____
ROOT
ATOM      1  C   UNL     1       3.154   6.818  18.118  0.00  0.00    +0.000 A 
ATOM      2  N   UNL     1       4.215   7.345  17.621  0.00  0.00    +0.000 NA
ATOM      3  C   UNL     1       5.191   6.529  17.121  0.00  0.00    +0.000 A 
ATOM      4  O   UNL     1       6.124   7.018  16.491  0.00  0.00    +0.000 OA
ATOM      5  N   UNL     1       5.094   5.136  17.323  0.00  0.00    +0.000 N 
ATOM      6  C   UNL     1       3.952   4.581  17.921  0.00  0.00    +0.000 A 
ATOM      7  C   UNL     1       2.905   5.365  18.256  0.00  0.00    +0.000 A 
ATOM      8  C   UNL     1       1.573   4.834  18.722  0.00  0.00    +0.000 C 
ATOM      9  C   UNL     1       1.419   3.331  18.493  0.00  0.00    +0.000 C 
ATOM     10  C   UNL     1       2.668   2.617  18.977  0.00  0.00    +0.000 C 
ATOM     11  C   UNL     1       3.894   3.084  18.182  0.00  0.00    +0.000 C 
ENDROOT
BRANCH   1  12
ATOM     12  S   UNL     1       1.893   7.881  18.734  0.00  0.00    +0.000 S 
BRANCH  12  13
ATOM     13  C   UNL     1       2.332   9.465  17.967  0.00  0.00    +0.000 C 
BRANCH  13  15
ATOM     14  N   UNL     1       0.006  10.020  18.482  0.00  0.00    +0.000 N 
ATOM     15  C   UNL     1       1.302  10.516  18.364  0.00  0.00    +0.000 C 
ATOM     16  O   UNL     1       1.654  11.677  18.566  0.00  0.00    +0.000 OA
ATOM     17  H   UNL     1      -0.094   9.020  18.403  0.00  0.00    +0.000 HD
BRANCH  14  23
ATOM     18  C   UNL     1      -4.713  11.424  17.392  0.00  0.00    +0.000 C 
ATOM     19  C   UNL     1      -3.461  11.473  18.234  0.00  0.00    +0.000 A 
ATOM     20  C   UNL     1      -3.479  12.272  19.384  0.00  0.00    +0.000 A 
ATOM     21  C   UNL     1      -2.369  12.332  20.211  0.00  0.00    +0.000 A 
ATOM     22  C   UNL     1      -1.232  11.586  19.906  0.00  0.00    +0.000 A 
ATOM     23  C   UNL     1      -1.172  10.766  18.769  0.00  0.00    +0.000 A 
ATOM     24  C   UNL     1      -2.297  10.719  17.904  0.00  0.00    +0.000 A 
ATOM     25  C   UNL     1      -2.351   9.863  16.660  0.00  0.00    +0.000 C 
ENDBRANCH  14  23
ENDBRANCH  13  15
ENDBRANCH  12  13
ENDBRANCH   1  12
BRANCH   5  26
ATOM     26  C   UNL     1       6.059   4.297  16.561  0.00  0.00    +0.000 C 
BRANCH  26  27
ATOM     27  C   UNL     1       5.566   3.726  15.202  0.00  0.00    +0.000 C 
BRANCH  27  28
ATOM     28  N   UNL     1       6.576   3.752  14.102  0.00  0.00    +0.000 NA
ATOM     29  C   UNL     1       5.972   3.462  12.777  0.00  0.00    +0.000 C 
ATOM     30  C   UNL     1       6.973   3.668  11.620  0.00  0.00    +0.000 C 
ATOM     31  O   UNL     1       7.477   5.008  11.603  0.00  0.00    +0.000 OA
ATOM     32  C   UNL     1       8.139   5.290  12.841  0.00  0.00    +0.000 C 
ATOM     33  C   UNL     1       7.189   5.106  14.038  0.00  0.00    +0.000 C 
ENDBRANCH  27  28
ENDBRANCH  26  27
ENDBRANCH   5  26
TORSDOF 7
ENDMDL
MODEL 2
REMARK VINA RESULT:      -7.9      7.125     11.094
REMARK  Name = 
REMARK  9 active torsions:
REMARK  status: ('A' for Active; 'I' for Inactive)
REMARK    1  A    between atoms: C_1  and  C_2
REMARK    2  A    between atoms: C_6  and  N_7
REMARK    3  A    between atoms: C_8  and  C_10
REMARK    4  A    between atoms: C_10  and  S_11
REMARK    5  A    between atoms: S_11  and  C_12
REMARK    6  A    between atoms: N_16  and  C_17
REMARK    7  A    between atoms: C_17  and  C_18
REMARK    8  A    between atoms: C_18  and  N_19
REMARK    9  A    between atoms: C_31  and  C_32
REMARK                            x       y       z     vdW  Elec       q    Type
REMARK                         _______ _______ _______ _____ _____    ______ ____
ROOT
ATOM      1  C   UNL     1       9.601  11.291  18.941  0.00  0.00    +0.000 A 
ATOM      2  N   UNL     1      10.069  11.641  17.796  0.00  0.00    +0.000 NA
ATOM      3  C   UNL     1      10.427  12.945  17.594  0.00  0.00    +0.000 A 
ATOM      4  O   UNL     1      11.031  13.254  16.572  0.00  0.00    +0.000 OA
ATOM      5  N   UNL     1      10.109  13.906  18.578  0.00  0.00    +0.000 N 
ATOM      6  C   UNL     1       9.545  13.513  19.801  0.00  0.00    +0.000 A 
ATOM      7  C   UNL     1       9.353  12.206  20.078  0.00  0.00    +0.000 A 
ATOM      8  C   UNL     1       8.935  11.686  21.431  0.00  0.00    +0.000 C 
ATOM      9  C   UNL     1       9.041  12.741  22.531  0.00  0.00    +0.000 C 
ATOM     10  C   UNL     1       8.410  14.036  22.050  0.00  0.00    +0.000 C 
ATOM     11  C   UNL     1       9.157  14.571  20.822  0.00  0.00    +0.000 C 
ENDROOT
BRANCH   1  12
ATOM     12  S   UNL     1       9.170   9.604  19.196  0.00  0.00    +0.000 S 
BRANCH  12  13
ATOM     13  C   UNL     1       8.058   9.286  17.799  0.00  0.00    +0.000 C 
BRANCH  13  15
ATOM     14  N   UNL     1       6.823   7.456  16.746  0.00  0.00    +0.000 N 
ATOM     15  C   UNL     1       7.701   7.805  17.769  0.00  0.00    +0.000 C 
ATOM     16  O   UNL     1       8.194   7.036  18.593  0.00  0.00    +0.000 OA
ATOM     17  H   UNL     1       6.608   8.181  16.080  0.00  0.00    +0.000 HD
BRANCH  14  23
ATOM     18  C   UNL     1       3.067   4.123  17.211  0.00  0.00    +0.000 C 
ATOM     19  C   UNL     1       4.443   4.535  16.747  0.00  0.00    +0.000 A 
ATOM     20  C   UNL     1       5.186   3.608  16.005  0.00  0.00    +0.000 A 
ATOM     21  C   UNL     1       6.443   3.942  15.527  0.00  0.00    +0.000 A 
ATOM     22  C   UNL     1       6.968   5.210  15.775  0.00  0.00    +0.000 A 
ATOM     23  C   UNL     1       6.257   6.172  16.507  0.00  0.00    +0.000 A 
ATOM     24  C   UNL     1       4.978   5.829  17.020  0.00  0.00    +0.000 A 
ATOM     25  C   UNL     1       4.117   6.786  17.809  0.00  0.00    +0.000 C 
ENDBRANCH  14  23
ENDBRANCH  13  15
ENDBRANCH  12  13
ENDBRANCH   1  12
BRANCH   5  26
ATOM     26  C   UNL     1      10.726  15.249  18.400  0.00  0.00    +0.000 C 
BRANCH  26  27
ATOM     27  C   UNL     1      10.041  16.201  17.379  0.00  0.00    +0.000 C 
BRANCH  27  28
ATOM     28  N   UNL     1       9.011  17.114  17.960  0.00  0.00    +0.000 NA
ATOM     29  C   UNL     1       7.726  16.416  18.223  0.00  0.00    +0.000 C 
ATOM     30  C   UNL     1       6.724  17.305  18.989  0.00  0.00    +0.000 C 
ATOM     31  O   UNL     1       7.267  17.739  20.241  0.00  0.00    +0.000 OA
ATOM     32  C   UNL     1       8.466  18.487  20.013  0.00  0.00    +0.000 C 
ATOM     33  C   UNL     1       9.512  17.651  19.253  0.00  0.00    +0.000 C 
ENDBRANCH  27  28
ENDBRANCH  26  27
ENDBRANCH   5  26
TORSDOF 7
ENDMDL
MODEL 3
REMARK VINA RESULT:      -7.8      3.920     11.320
REMARK  Name = 
REMARK  9 active torsions:
REMARK  status: ('A' for Active; 'I' for Inactive)
REMARK    1  A    between atoms: C_1  and  C_2
REMARK    2  A    between atoms: C_6  and  N_7
REMARK    3  A    between atoms: C_8  and  C_10
REMARK    4  A    between atoms: C_10  and  S_11
REMARK    5  A    between atoms: S_11  and  C_12
REMARK    6  A    between atoms: N_16  and  C_17
REMARK    7  A    between atoms: C_17  and  C_18
REMARK    8  A    between atoms: C_18  and  N_19
REMARK    9  A    between atoms: C_31  and  C_32
REMARK                            x       y       z     vdW  Elec       q    Type
REMARK                         _______ _______ _______ _____ _____    ______ ____
ROOT
ATOM      1  C   UNL     1       0.293  10.859  19.035  0.00  0.00    +0.000 A 
ATOM      2  N   UNL     1       0.812  11.558  19.980  0.00  0.00    +0.000 NA
ATOM      3  C   UNL     1       0.001  12.354  20.741  0.00  0.00    +0.000 A 
ATOM      4  O   UNL     1       0.453  12.889  21.748  0.00  0.00    +0.000 OA
ATOM      5  N   UNL     1      -1.346  12.527  20.360  0.00  0.00    +0.000 N 
ATOM      6  C   UNL     1      -1.883  11.797  19.288  0.00  0.00    +0.000 A 
ATOM      7  C   UNL     1      -1.134  10.876  18.644  0.00  0.00    +0.000 A 
ATOM      8  C   UNL     1      -1.682   9.919  17.616  0.00  0.00    +0.000 C 
ATOM      9  C   UNL     1      -3.210   9.883  17.591  0.00  0.00    +0.000 C 
ATOM     10  C   UNL     1      -3.747  11.304  17.584  0.00  0.00    +0.000 C 
ATOM     11  C   UNL     1      -3.321  12.043  18.859  0.00  0.00    +0.000 C 
ENDROOT
BRANCH   1  12
ATOM     12  S   UNL     1       1.345   9.819  18.081  0.00  0.00    +0.000 S 
BRANCH  12  13
ATOM     13  C   UNL     1       2.220   8.889  19.369  0.00  0.00    +0.000 C 
BRANCH  13  15
ATOM     14  N   UNL     1       2.158   6.578  20.168  0.00  0.00    +0.000 N 
ATOM     15  C   UNL     1       2.153   7.401  19.045  0.00  0.00    +0.000 C 
ATOM     16  O   UNL     1       2.084   7.027  17.875  0.00  0.00    +0.000 OA
ATOM     17  H   UNL     1       2.093   7.045  21.060  0.00  0.00    +0.000 HD
BRANCH  14  23
ATOM     18  C   UNL     1       4.556   2.177  19.613  0.00  0.00    +0.000 C 
ATOM     19  C   UNL     1       3.327   3.007  19.895  0.00  0.00    +0.000 A 
ATOM     20  C   UNL     1       2.146   2.332  20.230  0.00  0.00    +0.000 A 
ATOM     21  C   UNL     1       0.995   3.043  20.527  0.00  0.00    +0.000 A 
ATOM     22  C   UNL     1       1.013   4.437  20.507  0.00  0.00    +0.000 A 
ATOM     23  C   UNL     1       2.174   5.155  20.185  0.00  0.00    +0.000 A 
ATOM     24  C   UNL     1       3.351   4.432  19.855  0.00  0.00    +0.000 A 
ATOM     25  C   UNL     1       4.662   5.097  19.506  0.00  0.00    +0.000 C 
ENDBRANCH  14  23
ENDBRANCH  13  15
ENDBRANCH  12  13
ENDBRANCH   1  12
BRANCH   5  26
ATOM     26  C   UNL     1      -2.221  13.212  21.351  0.00  0.00    +0.000 C 
BRANCH  26  27
ATOM     27  C   UNL     1      -2.774  12.340  22.514  0.00  0.00    +0.000 C 
BRANCH  27  28
ATOM     28  N   UNL     1      -4.257  12.384  22.686  0.00  0.00    +0.000 NA
ATOM     29  C   UNL     1      -4.652  12.608  24.100  0.00  0.00    +0.000 C 
ATOM     30  C   UNL     1      -6.171  12.837  24.253  0.00  0.00    +0.000 C 
ATOM     31  O   UNL     1      -6.607  13.959  23.479  0.00  0.00    +0.000 OA
ATOM     32  C   UNL     1      -6.312  13.735  22.096  0.00  0.00    +0.000 C 
ATOM     33  C   UNL     1      -4.806  13.503  21.875  0.00  0.00    +0.000 C 
ENDBRANCH  27  28
ENDBRANCH  26  27
ENDBRANCH   5  26
TORSDOF 7
ENDMDL
MODEL 4
REMARK VINA RESULT:      -7.8      3.419     11.098
REMARK  Name = 
REMARK  9 active torsions:
REMARK  status: ('A' for Active; 'I' for Inactive)
REMARK    1  A    between atoms: C_1  and  C_2
REMARK    2  A    between atoms: C_6  and  N_7
REMARK    3  A    between atoms: C_8  and  C_10
REMARK    4  A    between atoms: C_10  and  S_11
REMARK    5  A    between atoms: S_11  and  C_12
REMARK    6  A    between atoms: N_16  and  C_17
REMARK    7  A    between atoms: C_17  and  C_18
REMARK    8  A    between atoms: C_18  and  N_19
REMARK    9  A    between atoms: C_31  and  C_32
REMARK                            x       y       z     vdW  Elec       q    Type
REMARK                         _______ _______ _______ _____ _____    ______ ____
ROOT
ATOM      1  C   UNL     1       0.103  10.178  18.674  0.00  0.00    +0.000 A 
ATOM      2  N   UNL     1       0.865  10.664  19.587  0.00  0.00    +0.000 NA
ATOM      3  C   UNL     1       0.340  11.539  20.497  0.00  0.00    +0.000 A 
ATOM      4  O   UNL     1       1.009  11.874  21.470  0.00  0.00    +0.000 OA
ATOM      5  N   UNL     1      -0.971  12.025  20.306  0.00  0.00    +0.000 N 
ATOM      6  C   UNL     1      -1.771  11.526  19.267  0.00  0.00    +0.000 A 
ATOM      7  C   UNL     1      -1.321  10.531  18.474  0.00  0.00    +0.000 A 
ATOM      8  C   UNL     1      -2.178   9.807  17.465  0.00  0.00    +0.000 C 
ATOM      9  C   UNL     1      -3.668  10.096  17.636  0.00  0.00    +0.000 C 
ATOM     10  C   UNL     1      -3.877  11.593  17.790  0.00  0.00    +0.000 C 
ATOM     11  C   UNL     1      -3.159  12.106  19.045  0.00  0.00    +0.000 C 
ENDROOT
BRANCH   1  12
ATOM     12  S   UNL     1       0.786   9.031  17.526  0.00  0.00    +0.000 S 
BRANCH  12  13
ATOM     13  C   UNL     1       2.406   8.685  18.263  0.00  0.00    +0.000 C 
BRANCH  13  15
ATOM     14  N   UNL     1       2.310   6.242  18.360  0.00  0.00    +0.000 N 
ATOM     15  C   UNL     1       2.313   7.419  19.106  0.00  0.00    +0.000 C 
ATOM     16  O   UNL     1       2.265   7.497  20.333  0.00  0.00    +0.000 OA
ATOM     17  H   UNL     1       2.479   6.345  17.371  0.00  0.00    +0.000 HD
BRANCH  14  23
ATOM     18  C   UNL     1       3.597   1.367  18.390  0.00  0.00    +0.000 C 
ATOM     19  C   UNL     1       2.768   2.537  18.862  0.00  0.00    +0.000 A 
ATOM     20  C   UNL     1       1.828   2.305  19.874  0.00  0.00    +0.000 A 
ATOM     21  C   UNL     1       1.059   3.347  20.367  0.00  0.00    +0.000 A 
ATOM     22  C   UNL     1       1.230   4.636  19.864  0.00  0.00    +0.000 A 
ATOM     23  C   UNL     1       2.164   4.916  18.856  0.00  0.00    +0.000 A 
ATOM     24  C   UNL     1       2.938   3.849  18.329  0.00  0.00    +0.000 A 
ATOM     25  C   UNL     1       3.982   4.033  17.253  0.00  0.00    +0.000 C 
ENDBRANCH  14  23
ENDBRANCH  13  15
ENDBRANCH  12  13
ENDBRANCH   1  12
BRANCH   5  26
ATOM     26  C   UNL     1      -1.556  12.786  21.444  0.00  0.00    +0.000 C 
BRANCH  26  27
ATOM     27  C   UNL     1      -2.083  11.949  22.644  0.00  0.00    +0.000 C 
BRANCH  27  28
ATOM     28  N   UNL     1      -3.015  12.675  23.558  0.00  0.00    +0.000 NA
ATOM     29  C   UNL     1      -2.486  14.002  23.963  0.00  0.00    +0.000 C 
ATOM     30  C   UNL     1      -3.522  14.828  24.755  0.00  0.00    +0.000 C 
ATOM     31  O   UNL     1      -4.716  15.032  23.992  0.00  0.00    +0.000 OA
ATOM     32  C   UNL     1      -5.295  13.766  23.656  0.00  0.00    +0.000 C 
ATOM     33  C   UNL     1      -4.309  12.893  22.858  0.00  0.00    +0.000 C 
ENDBRANCH  27  28
ENDBRANCH  26  27
ENDBRANCH   5  26
TORSDOF 7
ENDMDL
MODEL 5
REMARK VINA RESULT:      -7.7      3.493      5.909
REMARK  Name = 
REMARK  9 active torsions:
REMARK  status: ('A' for Active; 'I' for Inactive)
REMARK    1  A    between atoms: C_1  and  C_2
REMARK    2  A    between atoms: C_6  and  N_7
REMARK    3  A    between atoms: C_8  and  C_10
REMARK    4  A    between atoms: C_10  and  S_11
REMARK    5  A    between atoms: S_11  and  C_12
REMARK    6  A    between atoms: N_16  and  C_17
REMARK    7  A    between atoms: C_17  and  C_18
REMARK    8  A    between atoms: C_18  and  N_19
REMARK    9  A    between atoms: C_31  and  C_32
REMARK                            x       y       z     vdW  Elec       q    Type
REMARK                         _______ _______ _______ _____ _____    ______ ____
ROOT
ATOM      1  C   UNL     1       5.395   4.176  18.708  0.00  0.00    +0.000 A 
ATOM      2  N   UNL     1       6.091   4.680  19.663  0.00  0.00    +0.000 NA
ATOM      3  C   UNL     1       7.049   5.610  19.370  0.00  0.00    +0.000 A 
ATOM      4  O   UNL     1       7.598   6.221  20.282  0.00  0.00    +0.000 OA
ATOM      5  N   UNL     1       7.373   5.861  18.020  0.00  0.00    +0.000 N 
ATOM      6  C   UNL     1       6.640   5.257  16.987  0.00  0.00    +0.000 A 
ATOM      7  C   UNL     1       5.576   4.476  17.270  0.00  0.00    +0.000 A 
ATOM      8  C   UNL     1       4.621   3.947  16.228  0.00  0.00    +0.000 C 
ATOM      9  C   UNL     1       4.793   4.621  14.868  0.00  0.00    +0.000 C 
ATOM     10  C   UNL     1       6.269   4.666  14.510  0.00  0.00    +0.000 C 
ATOM     11  C   UNL     1       7.043   5.497  15.541  0.00  0.00    +0.000 C 
ENDROOT
BRANCH   1  12
ATOM     12  S   UNL     1       4.147   3.000  19.103  0.00  0.00    +0.000 S 
BRANCH  12  13
ATOM     13  C   UNL     1       3.039   3.971  20.161  0.00  0.00    +0.000 C 
BRANCH  13  15
ATOM     14  N   UNL     1       2.693   6.380  19.912  0.00  0.00    +0.000 N 
ATOM     15  C   UNL     1       2.460   5.126  19.353  0.00  0.00    +0.000 C 
ATOM     16  O   UNL     1       1.866   4.904  18.299  0.00  0.00    +0.000 OA
ATOM     17  H   UNL     1       3.302   6.400  20.716  0.00  0.00    +0.000 HD
BRANCH  14  23
ATOM     18  C   UNL     1       0.047  10.632  20.503  0.00  0.00    +0.000 C 
ATOM     19  C   UNL     1       0.917   9.695  19.700  0.00  0.00    +0.000 A 
ATOM     20  C   UNL     1       1.309  10.106  18.419  0.00  0.00    +0.000 A 
ATOM     21  C   UNL     1       2.131   9.301  17.648  0.00  0.00    +0.000 A 
ATOM     22  C   UNL     1       2.581   8.081  18.151  0.00  0.00    +0.000 A 
ATOM     23  C   UNL     1       2.220   7.633  19.430  0.00  0.00    +0.000 A 
ATOM     24  C   UNL     1       1.359   8.442  20.217  0.00  0.00    +0.000 A 
ATOM     25  C   UNL     1       0.915   8.069  21.611  0.00  0.00    +0.000 C 
ENDBRANCH  14  23
ENDBRANCH  13  15
ENDBRANCH  12  13
ENDBRANCH   1  12
BRANCH   5  26
ATOM     26  C   UNL     1       8.250   7.038  17.768  0.00  0.00    +0.000 C 
BRANCH  26  27
ATOM     27  C   UNL     1       7.586   8.439  17.882  0.00  0.00    +0.000 C 
BRANCH  27  28
ATOM     28  N   UNL     1       8.540   9.587  17.933  0.00  0.00    +0.000 NA
ATOM     29  C   UNL     1       7.902  10.867  17.534  0.00  0.00    +0.000 C 
ATOM     30  C   UNL     1       8.830  12.080  17.760  0.00  0.00    +0.000 C 
ATOM     31  O   UNL     1       9.225  12.181  19.133  0.00  0.00    +0.000 OA
ATOM     32  C   UNL     1       9.918  10.990  19.524  0.00  0.00    +0.000 C 
ATOM     33  C   UNL     1       9.041   9.741  19.325  0.00  0.00    +0.000 C 
ENDBRANCH  27  28
ENDBRANCH  26  27
ENDBRANCH   5  26
TORSDOF 7
ENDMDL
MODEL 6
REMARK VINA RESULT:      -7.7      3.308     11.101
REMARK  Name = 
REMARK  9 active torsions:
REMARK  status: ('A' for Active; 'I' for Inactive)
REMARK    1  A    between atoms: C_1  and  C_2
REMARK    2  A    between atoms: C_6  and  N_7
REMARK    3  A    between atoms: C_8  and  C_10
REMARK    4  A    between atoms: C_10  and  S_11
REMARK    5  A    between atoms: S_11  and  C_12
REMARK    6  A    between atoms: N_16  and  C_17
REMARK    7  A    between atoms: C_17  and  C_18
REMARK    8  A    between atoms: C_18  and  N_19
REMARK    9  A    between atoms: C_31  and  C_32
REMARK                            x       y       z     vdW  Elec       q    Type
REMARK                         _______ _______ _______ _____ _____    ______ ____
ROOT
ATOM      1  C   UNL     1      -0.316  10.261  18.232  0.00  0.00    +0.000 A 
ATOM      2  N   UNL     1      -1.059   9.660  17.373  0.00  0.00    +0.000 NA
ATOM      3  C   UNL     1      -2.355  10.064  17.215  0.00  0.00    +0.000 A 
ATOM      4  O   UNL     1      -3.019   9.616  16.285  0.00  0.00    +0.000 OA
ATOM      5  N   UNL     1      -2.897  11.004  18.117  0.00  0.00    +0.000 N 
ATOM      6  C   UNL     1      -2.086  11.610  19.088  0.00  0.00    +0.000 A 
ATOM      7  C   UNL     1      -0.762  11.348  19.134  0.00  0.00    +0.000 A 
ATOM      8  C   UNL     1       0.212  12.093  20.011  0.00  0.00    +0.000 C 
ATOM      9  C   UNL     1      -0.384  13.365  20.614  0.00  0.00    +0.000 C 
ATOM     10  C   UNL     1      -1.754  13.055  21.191  0.00  0.00    +0.000 C 
ATOM     11  C   UNL     1      -2.704  12.577  20.086  0.00  0.00    +0.000 C 
ENDROOT
BRANCH   1  12
ATOM     12  S   UNL     1       1.358   9.749  18.406  0.00  0.00    +0.000 S 
BRANCH  12  13
ATOM     13  C   UNL     1       1.322   8.885  20.000  0.00  0.00    +0.000 C 
BRANCH  13  15
ATOM     14  N   UNL     1       2.269   7.184  18.519  0.00  0.00    +0.000 N 
ATOM     15  C   UNL     1       1.811   7.455  19.806  0.00  0.00    +0.000 C 
ATOM     16  O   UNL     1       1.794   6.664  20.748  0.00  0.00    +0.000 OA
ATOM     17  H   UNL     1       2.331   7.975  17.896  0.00  0.00    +0.000 HD
BRANCH  14  23
ATOM     18  C   UNL     1       5.800   4.288  16.381  0.00  0.00    +0.000 C 
ATOM     19  C   UNL     1       4.424   4.518  16.957  0.00  0.00    +0.000 A 
ATOM     20  C   UNL     1       3.558   3.421  17.034  0.00  0.00    +0.000 A 
ATOM     21  C   UNL     1       2.293   3.566  17.580  0.00  0.00    +0.000 A 
ATOM     22  C   UNL     1       1.883   4.806  18.067  0.00  0.00    +0.000 A 
ATOM     23  C   UNL     1       2.719   5.931  18.017  0.00  0.00    +0.000 A 
ATOM     24  C   UNL     1       4.008   5.795  17.437  0.00  0.00    +0.000 A 
ATOM     25  C   UNL     1       4.998   6.931  17.341  0.00  0.00    +0.000 C 
ENDBRANCH  14  23
ENDBRANCH  13  15
ENDBRANCH  12  13
ENDBRANCH   1  12
BRANCH   5  26
ATOM     26  C   UNL     1      -4.226  11.567  17.752  0.00  0.00    +0.000 C 
BRANCH  26  27
ATOM     27  C   UNL     1      -5.475  10.820  18.300  0.00  0.00    +0.000 C 
BRANCH  27  28
ATOM     28  N   UNL     1      -6.517  11.697  18.912  0.00  0.00    +0.000 NA
ATOM     29  C   UNL     1      -6.600  11.528  20.386  0.00  0.00    +0.000 C 
ATOM     30  C   UNL     1      -7.542  12.560  21.041  0.00  0.00    +0.000 C 
ATOM     31  O   UNL     1      -7.119  13.899  20.763  0.00  0.00    +0.000 OA
ATOM     32  C   UNL     1      -7.109  14.117  19.348  0.00  0.00    +0.000 C 
ATOM     33  C   UNL     1      -6.180  13.118  18.633  0.00  0.00    +0.000 C 
ENDBRANCH  27  28
ENDBRANCH  26  27
ENDBRANCH   5  26
TORSDOF 7
ENDMDL
MODEL 7
REMARK VINA RESULT:      -7.6      4.158      6.103
REMARK  Name = 
REMARK  9 active torsions:
REMARK  status: ('A' for Active; 'I' for Inactive)
REMARK    1  A    between atoms: C_1  and  C_2
REMARK    2  A    between atoms: C_6  and  N_7
REMARK    3  A    between atoms: C_8  and  C_10
REMARK    4  A    between atoms: C_10  and  S_11
REMARK    5  A    between atoms: S_11  and  C_12
REMARK    6  A    between atoms: N_16  and  C_17
REMARK    7  A    between atoms: C_17  and  C_18
REMARK    8  A    between atoms: C_18  and  N_19
REMARK    9  A    between atoms: C_31  and  C_32
REMARK                            x       y       z     vdW  Elec       q    Type
REMARK                         _______ _______ _______ _____ _____    ______ ____
ROOT
ATOM      1  C   UNL     1       1.314  11.431  19.329  0.00  0.00    +0.000 A 
ATOM      2  N   UNL     1       1.859  10.864  18.313  0.00  0.00    +0.000 NA
ATOM      3  C   UNL     1       1.942   9.500  18.276  0.00  0.00    +0.000 A 
ATOM      4  O   UNL     1       2.300   8.944  17.242  0.00  0.00    +0.000 OA
ATOM      5  N   UNL     1       1.593   8.759  19.424  0.00  0.00    +0.000 N 
ATOM      6  C   UNL     1       1.052   9.400  20.550  0.00  0.00    +0.000 A 
ATOM      7  C   UNL     1       0.801  10.727  20.526  0.00  0.00    +0.000 A 
ATOM      8  C   UNL     1       0.049  11.458  21.609  0.00  0.00    +0.000 C 
ATOM      9  C   UNL     1      -0.660  10.516  22.581  0.00  0.00    +0.000 C 
ATOM     10  C   UNL     1       0.298   9.419  23.009  0.00  0.00    +0.000 C 
ATOM     11  C   UNL     1       0.738   8.589  21.796  0.00  0.00    +0.000 C 
ENDROOT
BRANCH   1  12
ATOM     12  S   UNL     1       1.190  13.186  19.351  0.00  0.00    +0.000 S 
BRANCH  12  13
ATOM     13  C   UNL     1      -0.337  13.465  18.413  0.00  0.00    +0.000 C 
BRANCH  13  15
ATOM     14  N   UNL     1      -2.452  12.653  19.336  0.00  0.00    +0.000 N 
ATOM     15  C   UNL     1      -1.493  13.662  19.387  0.00  0.00    +0.000 C 
ATOM     16  O   UNL     1      -1.509  14.638  20.136  0.00  0.00    +0.000 OA
ATOM     17  H   UNL     1      -2.230  11.860  18.755  0.00  0.00    +0.000 HD
BRANCH  14  23
ATOM     18  C   UNL     1      -7.415  11.801  19.599  0.00  0.00    +0.000 C 
ATOM     19  C   UNL     1      -6.091  12.204  20.201  0.00  0.00    +0.000 A 
ATOM     20  C   UNL     1      -6.060  12.500  21.570  0.00  0.00    +0.000 A 
ATOM     21  C   UNL     1      -4.867  12.848  22.183  0.00  0.00    +0.000 A 
ATOM     22  C   UNL     1      -3.689  12.891  21.439  0.00  0.00    +0.000 A 
ATOM     23  C   UNL     1      -3.671  12.595  20.069  0.00  0.00    +0.000 A 
ATOM     24  C   UNL     1      -4.894  12.262  19.429  0.00  0.00    +0.000 A 
ATOM     25  C   UNL     1      -4.994  11.912  17.962  0.00  0.00    +0.000 C 
ENDBRANCH  14  23
ENDBRANCH  13  15
ENDBRANCH  12  13
ENDBRANCH   1  12
BRANCH   5  26
ATOM     26  C   UNL     1       1.486   7.285  19.242  0.00  0.00    +0.000 C 
BRANCH  26  27
ATOM     27  C   UNL     1       2.759   6.449  19.554  0.00  0.00    +0.000 C 
BRANCH  27  28
ATOM     28  N   UNL     1       2.544   4.973  19.622  0.00  0.00    +0.000 NA
ATOM     29  C   UNL     1       1.606   4.591  20.708  0.00  0.00    +0.000 C 
ATOM     30  C   UNL     1       1.240   3.092  20.665  0.00  0.00    +0.000 C 
ATOM     31  O   UNL     1       0.646   2.739  19.410  0.00  0.00    +0.000 OA
ATOM     32  C   UNL     1       1.563   3.021  18.347  0.00  0.00    +0.000 C 
ATOM     33  C   UNL     1       1.965   4.507  18.333  0.00  0.00    +0.000 C 
ENDBRANCH  27  28
ENDBRANCH  26  27
ENDBRANCH   5  26
TORSDOF 7
ENDMDL
MODEL 8
REMARK VINA RESULT:      -7.6      2.077      2.600
REMARK  Name = 
REMARK  9 active torsions:
REMARK  status: ('A' for Active; 'I' for Inactive)
REMARK    1  A    between atoms: C_1  and  C_2
REMARK    2  A    between atoms: C_6  and  N_7
REMARK    3  A    between atoms: C_8  and  C_10
REMARK    4  A    between atoms: C_10  and  S_11
REMARK    5  A    between atoms: S_11  and  C_12
REMARK    6  A    between atoms: N_16  and  C_17
REMARK    7  A    between atoms: C_17  and  C_18
REMARK    8  A    between atoms: C_18  and  N_19
REMARK    9  A    between atoms: C_31  and  C_32
REMARK                            x       y       z     vdW  Elec       q    Type
REMARK                         _______ _______ _______ _____ _____    ______ ____
ROOT
ATOM      1  C   UNL     1       3.118   6.720  18.791  0.00  0.00    +0.000 A 
ATOM      2  N   UNL     1       3.917   7.320  17.982  0.00  0.00    +0.000 NA
ATOM      3  C   UNL     1       4.886   6.596  17.345  0.00  0.00    +0.000 A 
ATOM      4  O   UNL     1       5.538   7.120  16.447  0.00  0.00    +0.000 OA
ATOM      5  N   UNL     1       5.102   5.254  17.722  0.00  0.00    +0.000 N 
ATOM      6  C   UNL     1       4.255   4.629  18.650  0.00  0.00    +0.000 A 
ATOM      7  C   UNL     1       3.186   5.285  19.150  0.00  0.00    +0.000 A 
ATOM      8  C   UNL     1       2.123   4.634  19.998  0.00  0.00    +0.000 C 
ATOM      9  C   UNL     1       2.205   3.108  19.987  0.00  0.00    +0.000 C 
ATOM     10  C   UNL     1       3.645   2.680  20.214  0.00  0.00    +0.000 C 
ATOM     11  C   UNL     1       4.542   3.201  19.085  0.00  0.00    +0.000 C 
ENDROOT
BRANCH   1  12
ATOM     12  S   UNL     1       1.858   7.658  19.584  0.00  0.00    +0.000 S 
BRANCH  12  13
ATOM     13  C   UNL     1       1.668   9.062  18.451  0.00  0.00    +0.000 C 
BRANCH  13  15
ATOM     14  N   UNL     1       1.035  10.450  20.364  0.00  0.00    +0.000 N 
ATOM     15  C   UNL     1       0.706  10.073  19.064  0.00  0.00    +0.000 C 
ATOM     16  O   UNL     1      -0.247  10.492  18.409  0.00  0.00    +0.000 OA
ATOM     17  H   UNL     1       1.917  10.108  20.714  0.00  0.00    +0.000 HD
BRANCH  14  23
ATOM     18  C   UNL     1      -0.078  15.052  22.098  0.00  0.00    +0.000 C 
ATOM     19  C   UNL     1      -0.238  13.552  22.082  0.00  0.00    +0.000 A 
ATOM     20  C   UNL     1      -1.200  12.989  22.930  0.00  0.00    +0.000 A 
ATOM     21  C   UNL     1      -1.412  11.620  22.936  0.00  0.00    +0.000 A 
ATOM     22  C   UNL     1      -0.674  10.798  22.087  0.00  0.00    +0.000 A 
ATOM     23  C   UNL     1       0.295  11.317  21.215  0.00  0.00    +0.000 A 
ATOM     24  C   UNL     1       0.534  12.717  21.221  0.00  0.00    +0.000 A 
ATOM     25  C   UNL     1       1.541  13.390  20.318  0.00  0.00    +0.000 C 
ENDBRANCH  14  23
ENDBRANCH  13  15
ENDBRANCH  12  13
ENDBRANCH   1  12
BRANCH   5  26
ATOM     26  C   UNL     1       6.005   4.466  16.838  0.00  0.00    +0.000 C 
BRANCH  26  27
ATOM     27  C   UNL     1       5.406   3.975  15.490  0.00  0.00    +0.000 C 
BRANCH  27  28
ATOM     28  N   UNL     1       6.393   3.824  14.379  0.00  0.00    +0.000 NA
ATOM     29  C   UNL     1       5.738   3.502  13.085  0.00  0.00    +0.000 C 
ATOM     30  C   UNL     1       6.732   3.527  11.904  0.00  0.00    +0.000 C 
ATOM     31  O   UNL     1       7.364   4.806  11.785  0.00  0.00    +0.000 OA
ATOM     32  C   UNL     1       8.073   5.108  12.991  0.00  0.00    +0.000 C 
ATOM     33  C   UNL     1       7.133   5.103  14.211  0.00  0.00    +0.000 C 
ENDBRANCH  27  28
ENDBRANCH  26  27
ENDBRANCH   5  26
TORSDOF 7
ENDMDL
MODEL 9
REMARK VINA RESULT:      -7.6      3.907     10.068
REMARK  Name = 
REMARK  9 active torsions:
REMARK  status: ('A' for Active; 'I' for Inactive)
REMARK    1  A    between atoms: C_1  and  C_2
REMARK    2  A    between atoms: C_6  and  N_7
REMARK    3  A    between atoms: C_8  and  C_10
REMARK    4  A    between atoms: C_10  and  S_11
REMARK    5  A    between atoms: S_11  and  C_12
REMARK    6  A    between atoms: N_16  and  C_17
REMARK    7  A    between atoms: C_17  and  C_18
REMARK    8  A    between atoms: C_18  and  N_19
REMARK    9  A    between atoms: C_31  and  C_32
REMARK                            x       y       z     vdW  Elec       q    Type
REMARK                         _______ _______ _______ _____ _____    ______ ____
ROOT
ATOM      1  C   UNL     1       1.386  10.230  18.661  0.00  0.00    +0.000 A 
ATOM      2  N   UNL     1       1.918  11.210  18.021  0.00  0.00    +0.000 NA
ATOM      3  C   UNL     1       2.010  12.430  18.631  0.00  0.00    +0.000 A 
ATOM      4  O   UNL     1       2.665  13.322  18.101  0.00  0.00    +0.000 OA
ATOM      5  N   UNL     1       1.363  12.632  19.868  0.00  0.00    +0.000 N 
ATOM      6  C   UNL     1       0.736  11.563  20.527  0.00  0.00    +0.000 A 
ATOM      7  C   UNL     1       0.796  10.314  20.015  0.00  0.00    +0.000 A 
ATOM      8  C   UNL     1       0.321   9.084  20.747  0.00  0.00    +0.000 C 
ATOM      9  C   UNL     1       0.047   9.341  22.228  0.00  0.00    +0.000 C 
ATOM     10  C   UNL     1      -0.777  10.607  22.376  0.00  0.00    +0.000 C 
ATOM     11  C   UNL     1      -0.004  11.815  21.831  0.00  0.00    +0.000 C 
ENDROOT
BRANCH   1  12
ATOM     12  S   UNL     1       1.298   8.658  17.874  0.00  0.00    +0.000 S 
BRANCH  12  13
ATOM     13  C   UNL     1       3.051   8.276  17.606  0.00  0.00    +0.000 C 
BRANCH  13  15
ATOM     14  N   UNL     1       2.191   6.024  18.027  0.00  0.00    +0.000 N 
ATOM     15  C   UNL     1       3.322   6.839  18.035  0.00  0.00    +0.000 C 
ATOM     16  O   UNL     1       4.463   6.489  18.331  0.00  0.00    +0.000 OA
ATOM     17  H   UNL     1       1.354   6.433  17.641  0.00  0.00    +0.000 HD
BRANCH  14  23
ATOM     18  C   UNL     1       1.524   2.519  21.590  0.00  0.00    +0.000 C 
ATOM     19  C   UNL     1       1.814   2.952  20.173  0.00  0.00    +0.000 A 
ATOM     20  C   UNL     1       1.977   1.951  19.207  0.00  0.00    +0.000 A 
ATOM     21  C   UNL     1       2.215   2.289  17.884  0.00  0.00    +0.000 A 
ATOM     22  C   UNL     1       2.280   3.630  17.509  0.00  0.00    +0.000 A 
ATOM     23  C   UNL     1       2.114   4.665  18.442  0.00  0.00    +0.000 A 
ATOM     24  C   UNL     1       1.895   4.326  19.803  0.00  0.00    +0.000 A 
ATOM     25  C   UNL     1       1.690   5.354  20.891  0.00  0.00    +0.000 C 
ENDBRANCH  14  23
ENDBRANCH  13  15
ENDBRANCH  12  13
ENDBRANCH   1  12
BRANCH   5  26
ATOM     26  C   UNL     1       1.693  13.897  20.578  0.00  0.00    +0.000 C 
BRANCH  26  27
ATOM     27  C   UNL     1       0.567  14.967  20.659  0.00  0.00    +0.000 C 
BRANCH  27  28
ATOM     28  N   UNL     1       0.928  16.306  20.104  0.00  0.00    +0.000 NA
ATOM     29  C   UNL     1       1.156  16.264  18.637  0.00  0.00    +0.000 C 
ATOM     30  C   UNL     1       1.347  17.672  18.034  0.00  0.00    +0.000 C 
ATOM     31  O   UNL     1       0.211  18.505  18.291  0.00  0.00    +0.000 OA
ATOM     32  C   UNL     1       0.016  18.631  19.704  0.00  0.00    +0.000 C 
ATOM     33  C   UNL     1      -0.186  17.256  20.367  0.00  0.00    +0.000 C 
ENDBRANCH  27  28
ENDBRANCH  26  27
ENDBRANCH   5  26
TORSDOF 7
ENDMDL
