MODEL 1
REMARK VINA RESULT:      -6.9      0.000      0.000
REMARK  Name = 
REMARK  10 active torsions:
REMARK  status: ('A' for Active; 'I' for Inactive)
REMARK    1  A    between atoms: C_1  and  C_2
REMARK    2  A    between atoms: C_2  and  C_3
REMARK    3  A    between atoms: C_2  and  C_4
REMARK    4  A    between atoms: C_4  and  C_5
REMARK    5  A    between atoms: C_5  and  C_6
REMARK    6  A    between atoms: C_13  and  O_14
REMARK    7  A    between atoms: O_14  and  C_15
REMARK    8  A    between atoms: C_15  and  C_16
REMARK    9  A    between atoms: C_16  and  C_17
REMARK   10  A    between atoms: C_17  and  O_18
REMARK                            x       y       z     vdW  Elec       q    Type
REMARK                         _______ _______ _______ _____ _____    ______ ____
ROOT
ATOM      1  C   UNL     1       2.114   5.715  19.759  0.00  0.00    +0.000 A 
ATOM      2  C   UNL     1       1.295   4.885  20.560  0.00  0.00    +0.000 A 
ATOM      3  C   UNL     1       1.252   3.507  20.368  0.00  0.00    +0.000 A 
ATOM      4  C   UNL     1       2.034   2.931  19.379  0.00  0.00    +0.000 A 
ATOM      5  C   UNL     1       2.830   3.739  18.567  0.00  0.00    +0.000 A 
ATOM      6  O   UNL     1       3.561   3.058  17.634  0.00  0.00    +0.000 OA
ATOM      7  C   UNL     1       4.404   3.776  16.841  0.00  0.00    +0.000 A 
ATOM      8  C   UNL     1       4.555   5.109  16.803  0.00  0.00    +0.000 A 
ATOM      9  C   UNL     1       3.713   5.907  17.750  0.00  0.00    +0.000 A 
ATOM     10  O   UNL     1       3.708   7.135  17.703  0.00  0.00    +0.000 OA
ATOM     11  C   UNL     1       2.869   5.133  18.719  0.00  0.00    +0.000 A 
ENDROOT
BRANCH   1  12
ATOM     12  C   UNL     1       2.128   7.193  20.080  0.00  0.00    +0.000 C 
BRANCH  12  13
ATOM     13  C   UNL     1       1.102   7.550  21.158  0.00  0.00    +0.000 C 
BRANCH  13  15
ATOM     14  C   UNL     1       0.474   9.802  20.254  0.00  0.00    +0.000 C 
ATOM     15  C   UNL     1       1.026   9.055  21.471  0.00  0.00    +0.000 C 
ATOM     16  C   UNL     1       0.158   9.364  22.692  0.00  0.00    +0.000 C 
ENDBRANCH  13  15
ENDBRANCH  12  13
ENDBRANCH   1  12
BRANCH   8  17
ATOM     17  O   UNL     1       5.423   5.776  15.948  0.00  0.00    +0.000 OA
BRANCH  17  18
ATOM     18  C   UNL     1       6.813   5.580  16.230  0.00  0.00    +0.000 C 
BRANCH  18  19
ATOM     19  C   UNL     1       7.283   6.477  17.358  0.00  0.00    +0.000 C 
BRANCH  19  20
ATOM     20  C   UNL     1       7.651   5.665  18.586  0.00  0.00    +0.000 C 
BRANCH  20  21
ATOM     21  O   UNL     1       7.713   4.286  18.250  0.00  0.00    +0.000 OA
ATOM     22  H   UNL     1       6.831   4.015  17.944  0.00  0.00    +0.000 HD
ENDBRANCH  20  21
ENDBRANCH  19  20
ENDBRANCH  18  19
ENDBRANCH  17  18
ENDBRANCH   8  17
TORSDOF 8
ENDMDL
MODEL 2
REMARK VINA RESULT:      -6.7      3.054      5.430
REMARK  Name = 
REMARK  10 active torsions:
REMARK  status: ('A' for Active; 'I' for Inactive)
REMARK    1  A    between atoms: C_1  and  C_2
REMARK    2  A    between atoms: C_2  and  C_3
REMARK    3  A    between atoms: C_2  and  C_4
REMARK    4  A    between atoms: C_4  and  C_5
REMARK    5  A    between atoms: C_5  and  C_6
REMARK    6  A    between atoms: C_13  and  O_14
REMARK    7  A    between atoms: O_14  and  C_15
REMARK    8  A    between atoms: C_15  and  C_16
REMARK    9  A    between atoms: C_16  and  C_17
REMARK   10  A    between atoms: C_17  and  O_18
REMARK                            x       y       z     vdW  Elec       q    Type
REMARK                         _______ _______ _______ _____ _____    ______ ____
ROOT
ATOM      1  C   UNL     1       5.002   4.730  18.334  0.00  0.00    +0.000 A 
ATOM      2  C   UNL     1       5.735   5.161  19.463  0.00  0.00    +0.000 A 
ATOM      3  C   UNL     1       7.067   5.554  19.357  0.00  0.00    +0.000 A 
ATOM      4  C   UNL     1       7.687   5.532  18.117  0.00  0.00    +0.000 A 
ATOM      5  C   UNL     1       6.983   5.089  16.997  0.00  0.00    +0.000 A 
ATOM      6  O   UNL     1       7.696   5.120  15.831  0.00  0.00    +0.000 OA
ATOM      7  C   UNL     1       7.056   4.753  14.687  0.00  0.00    +0.000 A 
ATOM      8  C   UNL     1       5.807   4.278  14.564  0.00  0.00    +0.000 A 
ATOM      9  C   UNL     1       5.012   4.146  15.826  0.00  0.00    +0.000 A 
ATOM     10  O   UNL     1       3.903   3.616  15.817  0.00  0.00    +0.000 OA
ATOM     11  C   UNL     1       5.650   4.659  17.083  0.00  0.00    +0.000 A 
ENDROOT
BRANCH   1  12
ATOM     12  C   UNL     1       3.547   4.374  18.546  0.00  0.00    +0.000 C 
BRANCH  12  13
ATOM     13  C   UNL     1       3.352   3.501  19.788  0.00  0.00    +0.000 C 
BRANCH  13  15
ATOM     14  C   UNL     1       0.986   4.024  20.430  0.00  0.00    +0.000 C 
ATOM     15  C   UNL     1       1.931   2.928  19.929  0.00  0.00    +0.000 C 
ATOM     16  C   UNL     1       1.390   2.352  18.620  0.00  0.00    +0.000 C 
ENDBRANCH  13  15
ENDBRANCH  12  13
ENDBRANCH   1  12
BRANCH   8  17
ATOM     17  O   UNL     1       5.226   3.902  13.360  0.00  0.00    +0.000 OA
BRANCH  17  18
ATOM     18  C   UNL     1       6.139   3.376  12.390  0.00  0.00    +0.000 C 
BRANCH  18  19
ATOM     19  C   UNL     1       5.525   2.226  11.616  0.00  0.00    +0.000 C 
BRANCH  19  20
ATOM     20  C   UNL     1       6.595   1.280  11.102  0.00  0.00    +0.000 C 
BRANCH  20  21
ATOM     21  O   UNL     1       6.230  -0.063  11.391  0.00  0.00    +0.000 OA
ATOM     22  H   UNL     1       5.708  -0.059  12.210  0.00  0.00    +0.000 HD
ENDBRANCH  20  21
ENDBRANCH  19  20
ENDBRANCH  18  19
ENDBRANCH  17  18
ENDBRANCH   8  17
TORSDOF 8
ENDMDL
MODEL 3
REMARK VINA RESULT:      -6.7      3.177      7.240
REMARK  Name = 
REMARK  10 active torsions:
REMARK  status: ('A' for Active; 'I' for Inactive)
REMARK    1  A    between atoms: C_1  and  C_2
REMARK    2  A    between atoms: C_2  and  C_3
REMARK    3  A    between atoms: C_2  and  C_4
REMARK    4  A    between atoms: C_4  and  C_5
REMARK    5  A    between atoms: C_5  and  C_6
REMARK    6  A    between atoms: C_13  and  O_14
REMARK    7  A    between atoms: O_14  and  C_15
REMARK    8  A    between atoms: C_15  and  C_16
REMARK    9  A    between atoms: C_16  and  C_17
REMARK   10  A    between atoms: C_17  and  O_18
REMARK                            x       y       z     vdW  Elec       q    Type
REMARK                         _______ _______ _______ _____ _____    ______ ____
ROOT
ATOM      1  C   UNL     1       6.116   4.493  16.251  0.00  0.00    +0.000 A 
ATOM      2  C   UNL     1       7.011   5.552  15.976  0.00  0.00    +0.000 A 
ATOM      3  C   UNL     1       7.321   6.510  16.938  0.00  0.00    +0.000 A 
ATOM      4  C   UNL     1       6.747   6.422  18.197  0.00  0.00    +0.000 A 
ATOM      5  C   UNL     1       5.846   5.394  18.477  0.00  0.00    +0.000 A 
ATOM      6  O   UNL     1       5.353   5.406  19.753  0.00  0.00    +0.000 OA
ATOM      7  C   UNL     1       4.509   4.400  20.115  0.00  0.00    +0.000 A 
ATOM      8  C   UNL     1       4.024   3.419  19.339  0.00  0.00    +0.000 A 
ATOM      9  C   UNL     1       4.469   3.412  17.910  0.00  0.00    +0.000 A 
ATOM     10  O   UNL     1       3.987   2.617  17.106  0.00  0.00    +0.000 OA
ATOM     11  C   UNL     1       5.494   4.434  17.517  0.00  0.00    +0.000 A 
ENDROOT
BRANCH   1  12
ATOM     12  C   UNL     1       5.887   3.476  15.156  0.00  0.00    +0.000 C 
BRANCH  12  13
ATOM     13  C   UNL     1       5.453   4.139  13.847  0.00  0.00    +0.000 C 
BRANCH  13  15
ATOM     14  C   UNL     1       4.689   3.268  11.625  0.00  0.00    +0.000 C 
ATOM     15  C   UNL     1       5.876   3.365  12.586  0.00  0.00    +0.000 C 
ATOM     16  C   UNL     1       7.062   4.007  11.865  0.00  0.00    +0.000 C 
ENDBRANCH  13  15
ENDBRANCH  12  13
ENDBRANCH   1  12
BRANCH   8  17
ATOM     17  O   UNL     1       3.145   2.436  19.776  0.00  0.00    +0.000 OA
BRANCH  17  18
ATOM     18  C   UNL     1       2.189   2.873  20.747  0.00  0.00    +0.000 C 
BRANCH  18  19
ATOM     19  C   UNL     1       0.926   3.393  20.089  0.00  0.00    +0.000 C 
BRANCH  19  20
ATOM     20  C   UNL     1       0.601   2.606  18.832  0.00  0.00    +0.000 C 
BRANCH  20  21
ATOM     21  O   UNL     1       1.100   3.292  17.692  0.00  0.00    +0.000 OA
ATOM     22  H   UNL     1       0.375   3.369  17.051  0.00  0.00    +0.000 HD
ENDBRANCH  20  21
ENDBRANCH  19  20
ENDBRANCH  18  19
ENDBRANCH  17  18
ENDBRANCH   8  17
TORSDOF 8
ENDMDL
MODEL 4
REMARK VINA RESULT:      -6.7      2.890      6.977
REMARK  Name = 
REMARK  10 active torsions:
REMARK  status: ('A' for Active; 'I' for Inactive)
REMARK    1  A    between atoms: C_1  and  C_2
REMARK    2  A    between atoms: C_2  and  C_3
REMARK    3  A    between atoms: C_2  and  C_4
REMARK    4  A    between atoms: C_4  and  C_5
REMARK    5  A    between atoms: C_5  and  C_6
REMARK    6  A    between atoms: C_13  and  O_14
REMARK    7  A    between atoms: O_14  and  C_15
REMARK    8  A    between atoms: C_15  and  C_16
REMARK    9  A    between atoms: C_16  and  C_17
REMARK   10  A    between atoms: C_17  and  O_18
REMARK                            x       y       z     vdW  Elec       q    Type
REMARK                         _______ _______ _______ _____ _____    ______ ____
ROOT
ATOM      1  C   UNL     1       6.031   5.338  16.473  0.00  0.00    +0.000 A 
ATOM      2  C   UNL     1       7.072   6.246  16.778  0.00  0.00    +0.000 A 
ATOM      3  C   UNL     1       7.565   6.375  18.074  0.00  0.00    +0.000 A 
ATOM      4  C   UNL     1       7.033   5.593  19.087  0.00  0.00    +0.000 A 
ATOM      5  C   UNL     1       5.992   4.708  18.805  0.00  0.00    +0.000 A 
ATOM      6  O   UNL     1       5.556   3.986  19.881  0.00  0.00    +0.000 OA
ATOM      7  C   UNL     1       4.577   3.062  19.671  0.00  0.00    +0.000 A 
ATOM      8  C   UNL     1       3.914   2.819  18.530  0.00  0.00    +0.000 A 
ATOM      9  C   UNL     1       4.298   3.643  17.341  0.00  0.00    +0.000 A 
ATOM     10  O   UNL     1       3.665   3.562  16.290  0.00  0.00    +0.000 OA
ATOM     11  C   UNL     1       5.456   4.580  17.515  0.00  0.00    +0.000 A 
ENDROOT
BRANCH   1  12
ATOM     12  C   UNL     1       5.602   5.236  15.026  0.00  0.00    +0.000 C 
BRANCH  12  13
ATOM     13  C   UNL     1       6.755   4.796  14.121  0.00  0.00    +0.000 C 
BRANCH  13  15
ATOM     14  C   UNL     1       4.867   3.685  12.904  0.00  0.00    +0.000 C 
ATOM     15  C   UNL     1       6.380   3.674  13.136  0.00  0.00    +0.000 C 
ATOM     16  C   UNL     1       7.100   3.799  11.792  0.00  0.00    +0.000 C 
ENDBRANCH  13  15
ENDBRANCH  12  13
ENDBRANCH   1  12
BRANCH   8  17
ATOM     17  O   UNL     1       2.908   1.870  18.395  0.00  0.00    +0.000 OA
BRANCH  17  18
ATOM     18  C   UNL     1       1.865   1.958  19.373  0.00  0.00    +0.000 C 
BRANCH  18  19
ATOM     19  C   UNL     1       0.970   3.156  19.125  0.00  0.00    +0.000 C 
BRANCH  19  20
ATOM     20  C   UNL     1       0.870   4.029  20.363  0.00  0.00    +0.000 C 
BRANCH  20  21
ATOM     21  O   UNL     1       1.685   3.494  21.396  0.00  0.00    +0.000 OA
ATOM     22  H   UNL     1       1.135   2.896  21.929  0.00  0.00    +0.000 HD
ENDBRANCH  20  21
ENDBRANCH  19  20
ENDBRANCH  18  19
ENDBRANCH  17  18
ENDBRANCH   8  17
TORSDOF 8
ENDMDL
MODEL 5
REMARK VINA RESULT:      -6.7      2.769      7.022
REMARK  Name = 
REMARK  10 active torsions:
REMARK  status: ('A' for Active; 'I' for Inactive)
REMARK    1  A    between atoms: C_1  and  C_2
REMARK    2  A    between atoms: C_2  and  C_3
REMARK    3  A    between atoms: C_2  and  C_4
REMARK    4  A    between atoms: C_4  and  C_5
REMARK    5  A    between atoms: C_5  and  C_6
REMARK    6  A    between atoms: C_13  and  O_14
REMARK    7  A    between atoms: O_14  and  C_15
REMARK    8  A    between atoms: C_15  and  C_16
REMARK    9  A    between atoms: C_16  and  C_17
REMARK   10  A    between atoms: C_17  and  O_18
REMARK                            x       y       z     vdW  Elec       q    Type
REMARK                         _______ _______ _______ _____ _____    ______ ____
ROOT
ATOM      1  C   UNL     1       5.986   4.207  16.633  0.00  0.00    +0.000 A 
ATOM      2  C   UNL     1       7.330   4.620  16.783  0.00  0.00    +0.000 A 
ATOM      3  C   UNL     1       7.751   5.326  17.907  0.00  0.00    +0.000 A 
ATOM      4  C   UNL     1       6.838   5.624  18.906  0.00  0.00    +0.000 A 
ATOM      5  C   UNL     1       5.504   5.241  18.763  0.00  0.00    +0.000 A 
ATOM      6  O   UNL     1       4.701   5.583  19.816  0.00  0.00    +0.000 OA
ATOM      7  C   UNL     1       3.397   5.193  19.771  0.00  0.00    +0.000 A 
ATOM      8  C   UNL     1       2.764   4.571  18.765  0.00  0.00    +0.000 A 
ATOM      9  C   UNL     1       3.581   4.250  17.553  0.00  0.00    +0.000 A 
ATOM     10  O   UNL     1       3.054   3.782  16.546  0.00  0.00    +0.000 OA
ATOM     11  C   UNL     1       5.048   4.556  17.628  0.00  0.00    +0.000 A 
ENDROOT
BRANCH   1  12
ATOM     12  C   UNL     1       5.641   3.402  15.400  0.00  0.00    +0.000 C 
BRANCH  12  13
ATOM     13  C   UNL     1       5.705   4.253  14.130  0.00  0.00    +0.000 C 
BRANCH  13  15
ATOM     14  C   UNL     1       4.789   3.354  11.977  0.00  0.00    +0.000 C 
ATOM     15  C   UNL     1       6.037   3.451  12.859  0.00  0.00    +0.000 C 
ATOM     16  C   UNL     1       7.182   4.065  12.051  0.00  0.00    +0.000 C 
ENDBRANCH  13  15
ENDBRANCH  12  13
ENDBRANCH   1  12
BRANCH   8  17
ATOM     17  O   UNL     1       1.419   4.223  18.781  0.00  0.00    +0.000 OA
BRANCH  17  18
ATOM     18  C   UNL     1       1.162   2.815  18.732  0.00  0.00    +0.000 C 
BRANCH  18  19
ATOM     19  C   UNL     1       1.719   2.106  19.951  0.00  0.00    +0.000 C 
BRANCH  19  20
ATOM     20  C   UNL     1       1.228   2.755  21.232  0.00  0.00    +0.000 C 
BRANCH  20  21
ATOM     21  O   UNL     1       2.301   2.866  22.157  0.00  0.00    +0.000 OA
ATOM     22  H   UNL     1       2.405   2.007  22.597  0.00  0.00    +0.000 HD
ENDBRANCH  20  21
ENDBRANCH  19  20
ENDBRANCH  18  19
ENDBRANCH  17  18
ENDBRANCH   8  17
TORSDOF 8
ENDMDL
MODEL 6
REMARK VINA RESULT:      -6.6      2.714      7.056
REMARK  Name = 
REMARK  10 active torsions:
REMARK  status: ('A' for Active; 'I' for Inactive)
REMARK    1  A    between atoms: C_1  and  C_2
REMARK    2  A    between atoms: C_2  and  C_3
REMARK    3  A    between atoms: C_2  and  C_4
REMARK    4  A    between atoms: C_4  and  C_5
REMARK    5  A    between atoms: C_5  and  C_6
REMARK    6  A    between atoms: C_13  and  O_14
REMARK    7  A    between atoms: O_14  and  C_15
REMARK    8  A    between atoms: C_15  and  C_16
REMARK    9  A    between atoms: C_16  and  C_17
REMARK   10  A    between atoms: C_17  and  O_18
REMARK                            x       y       z     vdW  Elec       q    Type
REMARK                         _______ _______ _______ _____ _____    ______ ____
ROOT
ATOM      1  C   UNL     1       5.766   4.949  16.206  0.00  0.00    +0.000 A 
ATOM      2  C   UNL     1       6.897   5.787  16.335  0.00  0.00    +0.000 A 
ATOM      3  C   UNL     1       7.529   5.969  17.563  0.00  0.00    +0.000 A 
ATOM      4  C   UNL     1       7.047   5.309  18.682  0.00  0.00    +0.000 A 
ATOM      5  C   UNL     1       5.919   4.494  18.574  0.00  0.00    +0.000 A 
ATOM      6  O   UNL     1       5.544   3.890  19.742  0.00  0.00    +0.000 OA
ATOM      7  C   UNL     1       4.483   3.037  19.701  0.00  0.00    +0.000 A 
ATOM      8  C   UNL     1       3.690   2.767  18.654  0.00  0.00    +0.000 A 
ATOM      9  C   UNL     1       4.009   3.469  17.371  0.00  0.00    +0.000 A 
ATOM     10  O   UNL     1       3.268   3.364  16.396  0.00  0.00    +0.000 OA
ATOM     11  C   UNL     1       5.246   4.318  17.356  0.00  0.00    +0.000 A 
ENDROOT
BRANCH   1  12
ATOM     12  C   UNL     1       5.184   4.778  14.820  0.00  0.00    +0.000 C 
BRANCH  12  13
ATOM     13  C   UNL     1       5.941   3.721  14.013  0.00  0.00    +0.000 C 
BRANCH  13  15
ATOM     14  C   UNL     1       7.110   3.364  11.825  0.00  0.00    +0.000 C 
ATOM     15  C   UNL     1       5.846   3.917  12.489  0.00  0.00    +0.000 C 
ATOM     16  C   UNL     1       4.617   3.243  11.878  0.00  0.00    +0.000 C 
ENDBRANCH  13  15
ENDBRANCH  12  13
ENDBRANCH   1  12
BRANCH   8  17
ATOM     17  O   UNL     1       2.607   1.897  18.693  0.00  0.00    +0.000 OA
BRANCH  17  18
ATOM     18  C   UNL     1       1.343   2.523  18.938  0.00  0.00    +0.000 C 
BRANCH  18  19
ATOM     19  C   UNL     1       1.209   2.958  20.384  0.00  0.00    +0.000 C 
BRANCH  19  20
ATOM     20  C   UNL     1       1.126   4.469  20.496  0.00  0.00    +0.000 C 
BRANCH  20  21
ATOM     21  O   UNL     1       2.211   4.955  21.275  0.00  0.00    +0.000 OA
ATOM     22  H   UNL     1       2.214   5.924  21.207  0.00  0.00    +0.000 HD
ENDBRANCH  20  21
ENDBRANCH  19  20
ENDBRANCH  18  19
ENDBRANCH  17  18
ENDBRANCH   8  17
TORSDOF 8
ENDMDL
MODEL 7
REMARK VINA RESULT:      -6.6      3.104      5.480
REMARK  Name = 
REMARK  10 active torsions:
REMARK  status: ('A' for Active; 'I' for Inactive)
REMARK    1  A    between atoms: C_1  and  C_2
REMARK    2  A    between atoms: C_2  and  C_3
REMARK    3  A    between atoms: C_2  and  C_4
REMARK    4  A    between atoms: C_4  and  C_5
REMARK    5  A    between atoms: C_5  and  C_6
REMARK    6  A    between atoms: C_13  and  O_14
REMARK    7  A    between atoms: O_14  and  C_15
REMARK    8  A    between atoms: C_15  and  C_16
REMARK    9  A    between atoms: C_16  and  C_17
REMARK   10  A    between atoms: C_17  and  O_18
REMARK                            x       y       z     vdW  Elec       q    Type
REMARK                         _______ _______ _______ _____ _____    ______ ____
ROOT
ATOM      1  C   UNL     1       5.836   4.640  18.465  0.00  0.00    +0.000 A 
ATOM      2  C   UNL     1       6.534   5.460  19.381  0.00  0.00    +0.000 A 
ATOM      3  C   UNL     1       7.518   6.350  18.955  0.00  0.00    +0.000 A 
ATOM      4  C   UNL     1       7.816   6.441  17.605  0.00  0.00    +0.000 A 
ATOM      5  C   UNL     1       7.150   5.623  16.691  0.00  0.00    +0.000 A 
ATOM      6  O   UNL     1       7.522   5.810  15.389  0.00  0.00    +0.000 OA
ATOM      7  C   UNL     1       6.876   5.084  14.435  0.00  0.00    +0.000 A 
ATOM      8  C   UNL     1       5.953   4.128  14.620  0.00  0.00    +0.000 A 
ATOM      9  C   UNL     1       5.572   3.828  16.035  0.00  0.00    +0.000 A 
ATOM     10  O   UNL     1       4.818   2.892  16.298  0.00  0.00    +0.000 OA
ATOM     11  C   UNL     1       6.177   4.698  17.097  0.00  0.00    +0.000 A 
ENDROOT
BRANCH   1  12
ATOM     12  C   UNL     1       4.752   3.745  19.022  0.00  0.00    +0.000 C 
BRANCH  12  13
ATOM     13  C   UNL     1       3.484   4.533  19.361  0.00  0.00    +0.000 C 
BRANCH  13  15
ATOM     14  C   UNL     1       1.551   4.453  17.768  0.00  0.00    +0.000 C 
ATOM     15  C   UNL     1       2.828   5.209  18.144  0.00  0.00    +0.000 C 
ATOM     16  C   UNL     1       2.492   6.680  18.391  0.00  0.00    +0.000 C 
ENDBRANCH  13  15
ENDBRANCH  12  13
ENDBRANCH   1  12
BRANCH   8  17
ATOM     17  O   UNL     1       5.350   3.411  13.593  0.00  0.00    +0.000 OA
BRANCH  17  18
ATOM     18  C   UNL     1       6.092   3.375  12.369  0.00  0.00    +0.000 C 
BRANCH  18  19
ATOM     19  C   UNL     1       5.553   2.319  11.424  0.00  0.00    +0.000 C 
BRANCH  19  20
ATOM     20  C   UNL     1       6.613   1.281  11.104  0.00  0.00    +0.000 C 
BRANCH  20  21
ATOM     21  O   UNL     1       6.116  -0.019  11.390  0.00  0.00    +0.000 OA
ATOM     22  H   UNL     1       5.714   0.004  12.274  0.00  0.00    +0.000 HD
ENDBRANCH  20  21
ENDBRANCH  19  20
ENDBRANCH  18  19
ENDBRANCH  17  18
ENDBRANCH   8  17
TORSDOF 8
ENDMDL
MODEL 8
REMARK VINA RESULT:      -6.6      0.822      1.172
REMARK  Name = 
REMARK  10 active torsions:
REMARK  status: ('A' for Active; 'I' for Inactive)
REMARK    1  A    between atoms: C_1  and  C_2
REMARK    2  A    between atoms: C_2  and  C_3
REMARK    3  A    between atoms: C_2  and  C_4
REMARK    4  A    between atoms: C_4  and  C_5
REMARK    5  A    between atoms: C_5  and  C_6
REMARK    6  A    between atoms: C_13  and  O_14
REMARK    7  A    between atoms: O_14  and  C_15
REMARK    8  A    between atoms: C_15  and  C_16
REMARK    9  A    between atoms: C_16  and  C_17
REMARK   10  A    between atoms: C_17  and  O_18
REMARK                            x       y       z     vdW  Elec       q    Type
REMARK                         _______ _______ _______ _____ _____    ______ ____
ROOT
ATOM      1  C   UNL     1       2.072   5.712  19.735  0.00  0.00    +0.000 A 
ATOM      2  C   UNL     1       1.146   4.992  20.525  0.00  0.00    +0.000 A 
ATOM      3  C   UNL     1       1.036   3.607  20.433  0.00  0.00    +0.000 A 
ATOM      4  C   UNL     1       1.856   2.915  19.556  0.00  0.00    +0.000 A 
ATOM      5  C   UNL     1       2.760   3.613  18.755  0.00  0.00    +0.000 A 
ATOM      6  O   UNL     1       3.520   2.822  17.938  0.00  0.00    +0.000 OA
ATOM      7  C   UNL     1       4.463   3.430  17.165  0.00  0.00    +0.000 A 
ATOM      8  C   UNL     1       4.694   4.746  17.042  0.00  0.00    +0.000 A 
ATOM      9  C   UNL     1       3.831   5.659  17.855  0.00  0.00    +0.000 A 
ATOM     10  O   UNL     1       3.902   6.879  17.717  0.00  0.00    +0.000 OA
ATOM     11  C   UNL     1       2.870   5.010  18.806  0.00  0.00    +0.000 A 
ENDROOT
BRANCH   1  12
ATOM     12  C   UNL     1       2.149   7.207  19.946  0.00  0.00    +0.000 C 
BRANCH  12  13
ATOM     13  C   UNL     1       1.463   7.633  21.246  0.00  0.00    +0.000 C 
BRANCH  13  15
ATOM     14  C   UNL     1       0.234   9.513  22.359  0.00  0.00    +0.000 C 
ATOM     15  C   UNL     1       0.392   8.722  21.057  0.00  0.00    +0.000 C 
ATOM     16  C   UNL     1       0.719   9.686  19.915  0.00  0.00    +0.000 C 
ENDBRANCH  13  15
ENDBRANCH  12  13
ENDBRANCH   1  12
BRANCH   8  17
ATOM     17  O   UNL     1       5.664   5.297  16.214  0.00  0.00    +0.000 OA
BRANCH  17  18
ATOM     18  C   UNL     1       7.001   4.856  16.478  0.00  0.00    +0.000 C 
BRANCH  18  19
ATOM     19  C   UNL     1       7.486   5.334  17.833  0.00  0.00    +0.000 C 
BRANCH  19  20
ATOM     20  C   UNL     1       7.529   6.850  17.894  0.00  0.00    +0.000 C 
BRANCH  20  21
ATOM     21  O   UNL     1       8.454   7.265  18.890  0.00  0.00    +0.000 OA
ATOM     22  H   UNL     1       8.384   6.647  19.636  0.00  0.00    +0.000 HD
ENDBRANCH  20  21
ENDBRANCH  19  20
ENDBRANCH  18  19
ENDBRANCH  17  18
ENDBRANCH   8  17
TORSDOF 8
ENDMDL
MODEL 9
REMARK VINA RESULT:      -6.6      1.566      3.806
REMARK  Name = 
REMARK  10 active torsions:
REMARK  status: ('A' for Active; 'I' for Inactive)
REMARK    1  A    between atoms: C_1  and  C_2
REMARK    2  A    between atoms: C_2  and  C_3
REMARK    3  A    between atoms: C_2  and  C_4
REMARK    4  A    between atoms: C_4  and  C_5
REMARK    5  A    between atoms: C_5  and  C_6
REMARK    6  A    between atoms: C_13  and  O_14
REMARK    7  A    between atoms: O_14  and  C_15
REMARK    8  A    between atoms: C_15  and  C_16
REMARK    9  A    between atoms: C_16  and  C_17
REMARK   10  A    between atoms: C_17  and  O_18
REMARK                            x       y       z     vdW  Elec       q    Type
REMARK                         _______ _______ _______ _____ _____    ______ ____
ROOT
ATOM      1  C   UNL     1       2.289   6.495  19.843  0.00  0.00    +0.000 A 
ATOM      2  C   UNL     1       1.476   7.634  20.047  0.00  0.00    +0.000 A 
ATOM      3  C   UNL     1       1.518   8.720  19.177  0.00  0.00    +0.000 A 
ATOM      4  C   UNL     1       2.367   8.684  18.082  0.00  0.00    +0.000 A 
ATOM      5  C   UNL     1       3.191   7.576  17.880  0.00  0.00    +0.000 A 
ATOM      6  O   UNL     1       3.977   7.652  16.764  0.00  0.00    +0.000 OA
ATOM      7  C   UNL     1       4.768   6.582  16.472  0.00  0.00    +0.000 A 
ATOM      8  C   UNL     1       4.938   5.468  17.199  0.00  0.00    +0.000 A 
ATOM      9  C   UNL     1       4.161   5.374  18.475  0.00  0.00    +0.000 A 
ATOM     10  O   UNL     1       4.342   4.440  19.254  0.00  0.00    +0.000 OA
ATOM     11  C   UNL     1       3.190   6.482  18.757  0.00  0.00    +0.000 A 
ENDROOT
BRANCH   1  12
ATOM     12  C   UNL     1       2.131   5.347  20.816  0.00  0.00    +0.000 C 
BRANCH  12  13
ATOM     13  C   UNL     1       0.970   4.429  20.427  0.00  0.00    +0.000 C 
BRANCH  13  15
ATOM     14  C   UNL     1       1.573   2.260  19.326  0.00  0.00    +0.000 C 
ATOM     15  C   UNL     1       1.253   2.934  20.662  0.00  0.00    +0.000 C 
ATOM     16  C   UNL     1       2.403   2.694  21.641  0.00  0.00    +0.000 C 
ENDBRANCH  13  15
ENDBRANCH  12  13
ENDBRANCH   1  12
BRANCH   8  17
ATOM     17  O   UNL     1       5.783   4.423  16.847  0.00  0.00    +0.000 OA
BRANCH  17  18
ATOM     18  C   UNL     1       7.053   4.428  17.509  0.00  0.00    +0.000 C 
BRANCH  18  19
ATOM     19  C   UNL     1       7.583   5.838  17.682  0.00  0.00    +0.000 C 
BRANCH  19  20
ATOM     20  C   UNL     1       7.973   6.102  19.124  0.00  0.00    +0.000 C 
BRANCH  20  21
ATOM     21  O   UNL     1       7.232   5.250  19.987  0.00  0.00    +0.000 OA
ATOM     22  H   UNL     1       6.288   5.420  19.834  0.00  0.00    +0.000 HD
ENDBRANCH  20  21
ENDBRANCH  19  20
ENDBRANCH  18  19
ENDBRANCH  17  18
ENDBRANCH   8  17
TORSDOF 8
ENDMDL
