MODEL 1
REMARK VINA RESULT:      -7.7      0.000      0.000
REMARK  Name = 
REMARK  4 active torsions:
REMARK  status: ('A' for Active; 'I' for Inactive)
REMARK    1  A    between atoms: C_1  and  O_2
REMARK    2  A    between atoms: O_2  and  C_3
REMARK    3  A    between atoms: C_6  and  S_7
REMARK    4  A    between atoms: S_7  and  N_10
REMARK                            x       y       z     vdW  Elec       q    Type
REMARK                         _______ _______ _______ _____ _____    ______ ____
ROOT
ATOM      1  S   UNL     1       5.430   4.711  19.048  0.00  0.00    +0.000 S 
ATOM      2  O   UNL     1       6.639   5.000  19.787  0.00  0.00    +0.000 OA
ATOM      3  O   UNL     1       4.263   5.563  19.172  0.00  0.00    +0.000 OA
ENDROOT
BRANCH   1   4
ATOM      4  N   UNL     1       4.916   3.140  19.398  0.00  0.00    +0.000 N 
ATOM      5  C   UNL     1       3.539   3.002  19.663  0.00  0.00    +0.000 A 
ATOM      6  C   UNL     1       2.593   2.930  18.657  0.00  0.00    +0.000 A 
ATOM      7  C   UNL     1       1.259   2.807  19.032  0.00  0.00    +0.000 A 
ATOM      8  C   UNL     1       0.932   2.789  20.385  0.00  0.00    +0.000 A 
ATOM      9  C   UNL     1       1.959   2.887  21.311  0.00  0.00    +0.000 A 
ATOM     10  N   UNL     1       3.265   2.983  20.977  0.00  0.00    +0.000 NA
ATOM     11  H   UNL     1       5.447   2.778  20.187  0.00  0.00    +0.000 HD
ENDBRANCH   1   4
BRANCH   1  15
ATOM     12  C   UNL     1       6.489   4.507  14.601  0.00  0.00    +0.000 A 
ATOM     13  C   UNL     1       7.476   4.788  15.549  0.00  0.00    +0.000 A 
ATOM     14  C   UNL     1       7.162   4.842  16.909  0.00  0.00    +0.000 A 
ATOM     15  C   UNL     1       5.840   4.642  17.315  0.00  0.00    +0.000 A 
ATOM     16  C   UNL     1       4.847   4.350  16.376  0.00  0.00    +0.000 A 
ATOM     17  C   UNL     1       5.172   4.294  15.016  0.00  0.00    +0.000 A 
BRANCH  12  19
ATOM     18  C   UNL     1       6.326   3.529  12.453  0.00  0.00    +0.000 C 
ATOM     19  O   UNL     1       6.918   4.506  13.303  0.00  0.00    +0.000 OA
ENDBRANCH  12  19
ENDBRANCH   1  15
TORSDOF 3
ENDMDL
MODEL 2
REMARK VINA RESULT:      -7.7      0.143      1.145
REMARK  Name = 
REMARK  4 active torsions:
REMARK  status: ('A' for Active; 'I' for Inactive)
REMARK    1  A    between atoms: C_1  and  O_2
REMARK    2  A    between atoms: O_2  and  C_3
REMARK    3  A    between atoms: C_6  and  S_7
REMARK    4  A    between atoms: S_7  and  N_10
REMARK                            x       y       z     vdW  Elec       q    Type
REMARK                         _______ _______ _______ _____ _____    ______ ____
ROOT
ATOM      1  S   UNL     1       5.429   4.690  18.983  0.00  0.00    +0.000 S 
ATOM      2  O   UNL     1       6.626   4.955  19.751  0.00  0.00    +0.000 OA
ATOM      3  O   UNL     1       4.276   5.565  19.079  0.00  0.00    +0.000 OA
ENDROOT
BRANCH   1   4
ATOM      4  N   UNL     1       4.875   3.130  19.322  0.00  0.00    +0.000 N 
ATOM      5  C   UNL     1       3.504   3.031  19.632  0.00  0.00    +0.000 A 
ATOM      6  C   UNL     1       2.523   3.009  18.658  0.00  0.00    +0.000 A 
ATOM      7  C   UNL     1       1.199   2.923  19.076  0.00  0.00    +0.000 A 
ATOM      8  C   UNL     1       0.917   2.889  20.438  0.00  0.00    +0.000 A 
ATOM      9  C   UNL     1       1.978   2.936  21.331  0.00  0.00    +0.000 A 
ATOM     10  N   UNL     1       3.274   2.996  20.954  0.00  0.00    +0.000 NA
ATOM     11  H   UNL     1       5.420   2.736  20.086  0.00  0.00    +0.000 HD
ENDBRANCH   1   4
BRANCH   1  15
ATOM     12  C   UNL     1       6.573   4.512  14.557  0.00  0.00    +0.000 A 
ATOM     13  C   UNL     1       5.292   4.135  14.970  0.00  0.00    +0.000 A 
ATOM     14  C   UNL     1       4.933   4.197  16.318  0.00  0.00    +0.000 A 
ATOM     15  C   UNL     1       5.878   4.610  17.260  0.00  0.00    +0.000 A 
ATOM     16  C   UNL     1       7.159   4.999  16.857  0.00  0.00    +0.000 A 
ATOM     17  C   UNL     1       7.508   4.939  15.503  0.00  0.00    +0.000 A 
BRANCH  12  19
ATOM     18  C   UNL     1       6.016   3.418  12.534  0.00  0.00    +0.000 C 
ATOM     19  O   UNL     1       6.808   4.385  13.215  0.00  0.00    +0.000 OA
ENDBRANCH  12  19
ENDBRANCH   1  15
TORSDOF 3
ENDMDL
MODEL 3
REMARK VINA RESULT:      -7.6      1.257      1.997
REMARK  Name = 
REMARK  4 active torsions:
REMARK  status: ('A' for Active; 'I' for Inactive)
REMARK    1  A    between atoms: C_1  and  O_2
REMARK    2  A    between atoms: O_2  and  C_3
REMARK    3  A    between atoms: C_6  and  S_7
REMARK    4  A    between atoms: S_7  and  N_10
REMARK                            x       y       z     vdW  Elec       q    Type
REMARK                         _______ _______ _______ _____ _____    ______ ____
ROOT
ATOM      1  S   UNL     1       5.450   4.540  19.079  0.00  0.00    +0.000 S 
ATOM      2  O   UNL     1       5.229   3.173  19.498  0.00  0.00    +0.000 OA
ATOM      3  O   UNL     1       6.418   5.378  19.762  0.00  0.00    +0.000 OA
ENDROOT
BRANCH   1   4
ATOM      4  N   UNL     1       3.985   5.382  19.106  0.00  0.00    +0.000 N 
ATOM      5  C   UNL     1       2.861   4.623  19.487  0.00  0.00    +0.000 A 
ATOM      6  C   UNL     1       2.561   4.353  20.809  0.00  0.00    +0.000 A 
ATOM      7  C   UNL     1       1.433   3.582  21.072  0.00  0.00    +0.000 A 
ATOM      8  C   UNL     1       0.677   3.098  20.008  0.00  0.00    +0.000 A 
ATOM      9  C   UNL     1       1.080   3.413  18.719  0.00  0.00    +0.000 A 
ATOM     10  N   UNL     1       2.156   4.180  18.434  0.00  0.00    +0.000 NA
ATOM     11  H   UNL     1       3.816   5.796  18.191  0.00  0.00    +0.000 HD
ENDBRANCH   1   4
BRANCH   1  15
ATOM     12  C   UNL     1       6.590   4.539  14.648  0.00  0.00    +0.000 A 
ATOM     13  C   UNL     1       5.299   4.177  15.045  0.00  0.00    +0.000 A 
ATOM     14  C   UNL     1       4.941   4.186  16.395  0.00  0.00    +0.000 A 
ATOM     15  C   UNL     1       5.897   4.529  17.355  0.00  0.00    +0.000 A 
ATOM     16  C   UNL     1       7.188   4.902  16.968  0.00  0.00    +0.000 A 
ATOM     17  C   UNL     1       7.536   4.896  15.613  0.00  0.00    +0.000 A 
BRANCH  12  19
ATOM     18  C   UNL     1       6.126   3.442  12.605  0.00  0.00    +0.000 C 
ATOM     19  O   UNL     1       6.822   4.468  13.303  0.00  0.00    +0.000 OA
ENDBRANCH  12  19
ENDBRANCH   1  15
TORSDOF 3
ENDMDL
MODEL 4
REMARK VINA RESULT:      -7.5      1.254      1.624
REMARK  Name = 
REMARK  4 active torsions:
REMARK  status: ('A' for Active; 'I' for Inactive)
REMARK    1  A    between atoms: C_1  and  O_2
REMARK    2  A    between atoms: O_2  and  C_3
REMARK    3  A    between atoms: C_6  and  S_7
REMARK    4  A    between atoms: S_7  and  N_10
REMARK                            x       y       z     vdW  Elec       q    Type
REMARK                         _______ _______ _______ _____ _____    ______ ____
ROOT
ATOM      1  S   UNL     1       5.389   4.647  19.031  0.00  0.00    +0.000 S 
ATOM      2  O   UNL     1       5.239   3.286  19.497  0.00  0.00    +0.000 OA
ATOM      3  O   UNL     1       6.325   5.552  19.672  0.00  0.00    +0.000 OA
ENDROOT
BRANCH   1   4
ATOM      4  N   UNL     1       3.887   5.420  19.050  0.00  0.00    +0.000 N 
ATOM      5  C   UNL     1       2.802   4.619  19.457  0.00  0.00    +0.000 A 
ATOM      6  C   UNL     1       2.525   4.366  20.788  0.00  0.00    +0.000 A 
ATOM      7  C   UNL     1       1.436   3.550  21.078  0.00  0.00    +0.000 A 
ATOM      8  C   UNL     1       0.697   3.006  20.031  0.00  0.00    +0.000 A 
ATOM      9  C   UNL     1       1.075   3.309  18.732  0.00  0.00    +0.000 A 
ATOM     10  N   UNL     1       2.112   4.118  18.421  0.00  0.00    +0.000 NA
ATOM     11  H   UNL     1       3.692   5.804  18.127  0.00  0.00    +0.000 HD
ENDBRANCH   1   4
BRANCH   1  15
ATOM     12  C   UNL     1       6.491   4.497  14.593  0.00  0.00    +0.000 A 
ATOM     13  C   UNL     1       7.453   4.838  15.548  0.00  0.00    +0.000 A 
ATOM     14  C   UNL     1       7.127   4.876  16.905  0.00  0.00    +0.000 A 
ATOM     15  C   UNL     1       5.816   4.599  17.301  0.00  0.00    +0.000 A 
ATOM     16  C   UNL     1       4.848   4.247  16.356  0.00  0.00    +0.000 A 
ATOM     17  C   UNL     1       5.186   4.207  14.999  0.00  0.00    +0.000 A 
BRANCH  12  19
ATOM     18  C   UNL     1       6.369   3.535  12.435  0.00  0.00    +0.000 C 
ATOM     19  O   UNL     1       6.929   4.519  13.297  0.00  0.00    +0.000 OA
ENDBRANCH  12  19
ENDBRANCH   1  15
TORSDOF 3
ENDMDL
MODEL 5
REMARK VINA RESULT:      -7.1      2.670      6.210
REMARK  Name = 
REMARK  4 active torsions:
REMARK  status: ('A' for Active; 'I' for Inactive)
REMARK    1  A    between atoms: C_1  and  O_2
REMARK    2  A    between atoms: O_2  and  C_3
REMARK    3  A    between atoms: C_6  and  S_7
REMARK    4  A    between atoms: S_7  and  N_10
REMARK                            x       y       z     vdW  Elec       q    Type
REMARK                         _______ _______ _______ _____ _____    ______ ____
ROOT
ATOM      1  S   UNL     1       7.057   5.303  17.210  0.00  0.00    +0.000 S 
ATOM      2  O   UNL     1       7.656   6.282  18.092  0.00  0.00    +0.000 OA
ATOM      3  O   UNL     1       7.804   4.135  16.784  0.00  0.00    +0.000 OA
ENDROOT
BRANCH   1   4
ATOM      4  N   UNL     1       6.516   6.065  15.803  0.00  0.00    +0.000 N 
ATOM      5  C   UNL     1       6.561   5.278  14.636  0.00  0.00    +0.000 A 
ATOM      6  C   UNL     1       5.586   4.347  14.331  0.00  0.00    +0.000 A 
ATOM      7  C   UNL     1       5.737   3.614  13.158  0.00  0.00    +0.000 A 
ATOM      8  C   UNL     1       6.860   3.825  12.364  0.00  0.00    +0.000 A 
ATOM      9  C   UNL     1       7.787   4.771  12.774  0.00  0.00    +0.000 A 
ATOM     10  N   UNL     1       7.655   5.515  13.895  0.00  0.00    +0.000 NA
ATOM     11  H   UNL     1       7.051   6.918  15.653  0.00  0.00    +0.000 HD
ENDBRANCH   1   4
BRANCH   1  15
ATOM     12  C   UNL     1       3.223   3.769  19.181  0.00  0.00    +0.000 A 
ATOM     13  C   UNL     1       3.777   3.090  18.092  0.00  0.00    +0.000 A 
ATOM     14  C   UNL     1       4.954   3.547  17.492  0.00  0.00    +0.000 A 
ATOM     15  C   UNL     1       5.558   4.712  17.971  0.00  0.00    +0.000 A 
ATOM     16  C   UNL     1       5.018   5.393  19.065  0.00  0.00    +0.000 A 
ATOM     17  C   UNL     1       3.842   4.926  19.663  0.00  0.00    +0.000 A 
BRANCH  12  19
ATOM     18  C   UNL     1       1.134   2.778  18.685  0.00  0.00    +0.000 C 
ATOM     19  O   UNL     1       2.060   3.236  19.663  0.00  0.00    +0.000 OA
ENDBRANCH  12  19
ENDBRANCH   1  15
TORSDOF 3
ENDMDL
MODEL 6
REMARK VINA RESULT:      -7.0      2.653      6.254
REMARK  Name = 
REMARK  4 active torsions:
REMARK  status: ('A' for Active; 'I' for Inactive)
REMARK    1  A    between atoms: C_1  and  O_2
REMARK    2  A    between atoms: O_2  and  C_3
REMARK    3  A    between atoms: C_6  and  S_7
REMARK    4  A    between atoms: S_7  and  N_10
REMARK                            x       y       z     vdW  Elec       q    Type
REMARK                         _______ _______ _______ _____ _____    ______ ____
ROOT
ATOM      1  S   UNL     1       6.992   5.221  17.076  0.00  0.00    +0.000 S 
ATOM      2  O   UNL     1       7.587   6.201  17.958  0.00  0.00    +0.000 OA
ATOM      3  O   UNL     1       7.741   4.054  16.650  0.00  0.00    +0.000 OA
ENDROOT
BRANCH   1   4
ATOM      4  N   UNL     1       6.451   5.983  15.668  0.00  0.00    +0.000 N 
ATOM      5  C   UNL     1       6.561   5.220  14.489  0.00  0.00    +0.000 A 
ATOM      6  C   UNL     1       5.638   4.250  14.144  0.00  0.00    +0.000 A 
ATOM      7  C   UNL     1       5.851   3.546  12.963  0.00  0.00    +0.000 A 
ATOM      8  C   UNL     1       6.983   3.822  12.201  0.00  0.00    +0.000 A 
ATOM      9  C   UNL     1       7.855   4.802  12.651  0.00  0.00    +0.000 A 
ATOM     10  N   UNL     1       7.661   5.519  13.781  0.00  0.00    +0.000 NA
ATOM     11  H   UNL     1       6.950   6.862  15.546  0.00  0.00    +0.000 HD
ENDBRANCH   1   4
BRANCH   1  15
ATOM     12  C   UNL     1       3.128   3.718  19.011  0.00  0.00    +0.000 A 
ATOM     13  C   UNL     1       3.918   4.671  19.660  0.00  0.00    +0.000 A 
ATOM     14  C   UNL     1       5.094   5.142  19.071  0.00  0.00    +0.000 A 
ATOM     15  C   UNL     1       5.493   4.628  17.834  0.00  0.00    +0.000 A 
ATOM     16  C   UNL     1       4.705   3.682  17.172  0.00  0.00    +0.000 A 
ATOM     17  C   UNL     1       3.527   3.220  17.768  0.00  0.00    +0.000 A 
BRANCH  12  19
ATOM     18  C   UNL     1       1.006   2.675  18.935  0.00  0.00    +0.000 C 
ATOM     19  O   UNL     1       2.016   3.321  19.702  0.00  0.00    +0.000 OA
ENDBRANCH  12  19
ENDBRANCH   1  15
TORSDOF 3
ENDMDL
MODEL 7
REMARK VINA RESULT:      -7.0      2.598      6.543
REMARK  Name = 
REMARK  4 active torsions:
REMARK  status: ('A' for Active; 'I' for Inactive)
REMARK    1  A    between atoms: C_1  and  O_2
REMARK    2  A    between atoms: O_2  and  C_3
REMARK    3  A    between atoms: C_6  and  S_7
REMARK    4  A    between atoms: S_7  and  N_10
REMARK                            x       y       z     vdW  Elec       q    Type
REMARK                         _______ _______ _______ _____ _____    ______ ____
ROOT
ATOM      1  S   UNL     1       5.592   6.095  16.393  0.00  0.00    +0.000 S 
ATOM      2  O   UNL     1       5.106   6.751  15.198  0.00  0.00    +0.000 OA
ATOM      3  O   UNL     1       6.266   6.851  17.432  0.00  0.00    +0.000 OA
ENDROOT
BRANCH   1   4
ATOM      4  N   UNL     1       6.634   4.837  15.962  0.00  0.00    +0.000 N 
ATOM      5  C   UNL     1       6.824   4.659  14.577  0.00  0.00    +0.000 A 
ATOM      6  C   UNL     1       7.697   5.438  13.841  0.00  0.00    +0.000 A 
ATOM      7  C   UNL     1       7.796   5.185  12.477  0.00  0.00    +0.000 A 
ATOM      8  C   UNL     1       7.005   4.190  11.910  0.00  0.00    +0.000 A 
ATOM      9  C   UNL     1       6.148   3.481  12.739  0.00  0.00    +0.000 A 
ATOM     10  N   UNL     1       6.048   3.688  14.070  0.00  0.00    +0.000 NA
ATOM     11  H   UNL     1       6.300   3.966  16.369  0.00  0.00    +0.000 HD
ENDBRANCH   1   4
BRANCH   1  15
ATOM     12  C   UNL     1       2.056   3.955  18.354  0.00  0.00    +0.000 A 
ATOM     13  C   UNL     1       2.263   5.320  18.572  0.00  0.00    +0.000 A 
ATOM     14  C   UNL     1       3.335   5.982  17.968  0.00  0.00    +0.000 A 
ATOM     15  C   UNL     1       4.221   5.259  17.165  0.00  0.00    +0.000 A 
ATOM     16  C   UNL     1       4.017   3.896  16.933  0.00  0.00    +0.000 A 
ATOM     17  C   UNL     1       2.939   3.242  17.539  0.00  0.00    +0.000 A 
BRANCH  12  19
ATOM     18  C   UNL     1       1.101   3.367  20.438  0.00  0.00    +0.000 C 
ATOM     19  O   UNL     1       0.988   3.419  19.020  0.00  0.00    +0.000 OA
ENDBRANCH  12  19
ENDBRANCH   1  15
TORSDOF 3
ENDMDL
MODEL 8
REMARK VINA RESULT:      -7.0      2.635      6.146
REMARK  Name = 
REMARK  4 active torsions:
REMARK  status: ('A' for Active; 'I' for Inactive)
REMARK    1  A    between atoms: C_1  and  O_2
REMARK    2  A    between atoms: O_2  and  C_3
REMARK    3  A    between atoms: C_6  and  S_7
REMARK    4  A    between atoms: S_7  and  N_10
REMARK                            x       y       z     vdW  Elec       q    Type
REMARK                         _______ _______ _______ _____ _____    ______ ____
ROOT
ATOM      1  S   UNL     1       7.054   5.646  17.638  0.00  0.00    +0.000 S 
ATOM      2  O   UNL     1       7.674   6.619  18.510  0.00  0.00    +0.000 OA
ATOM      3  O   UNL     1       7.738   4.413  17.296  0.00  0.00    +0.000 OA
ENDROOT
BRANCH   1   4
ATOM      4  N   UNL     1       6.637   6.384  16.176  0.00  0.00    +0.000 N 
ATOM      5  C   UNL     1       6.512   5.513  15.076  0.00  0.00    +0.000 A 
ATOM      6  C   UNL     1       5.374   4.760  14.851  0.00  0.00    +0.000 A 
ATOM      7  C   UNL     1       5.363   3.922  13.740  0.00  0.00    +0.000 A 
ATOM      8  C   UNL     1       6.490   3.856  12.926  0.00  0.00    +0.000 A 
ATOM      9  C   UNL     1       7.585   4.641  13.255  0.00  0.00    +0.000 A 
ATOM     10  N   UNL     1       7.616   5.482  14.313  0.00  0.00    +0.000 NA
ATOM     11  H   UNL     1       7.318   7.107  15.955  0.00  0.00    +0.000 HD
ENDBRANCH   1   4
BRANCH   1  15
ATOM     12  C   UNL     1       3.009   4.463  19.420  0.00  0.00    +0.000 A 
ATOM     13  C   UNL     1       3.169   5.703  18.794  0.00  0.00    +0.000 A 
ATOM     14  C   UNL     1       4.398   6.066  18.239  0.00  0.00    +0.000 A 
ATOM     15  C   UNL     1       5.482   5.189  18.341  0.00  0.00    +0.000 A 
ATOM     16  C   UNL     1       5.330   3.943  18.956  0.00  0.00    +0.000 A 
ATOM     17  C   UNL     1       4.094   3.586  19.505  0.00  0.00    +0.000 A 
BRANCH  12  19
ATOM     18  C   UNL     1       1.507   2.905  20.375  0.00  0.00    +0.000 C 
ATOM     19  O   UNL     1       1.766   4.236  19.943  0.00  0.00    +0.000 OA
ENDBRANCH  12  19
ENDBRANCH   1  15
TORSDOF 3
ENDMDL
MODEL 9
REMARK VINA RESULT:      -6.9      2.426      3.671
REMARK  Name = 
REMARK  4 active torsions:
REMARK  status: ('A' for Active; 'I' for Inactive)
REMARK    1  A    between atoms: C_1  and  O_2
REMARK    2  A    between atoms: O_2  and  C_3
REMARK    3  A    between atoms: C_6  and  S_7
REMARK    4  A    between atoms: S_7  and  N_10
REMARK                            x       y       z     vdW  Elec       q    Type
REMARK                         _______ _______ _______ _____ _____    ______ ____
ROOT
ATOM      1  S   UNL     1       4.814   4.230  17.144  0.00  0.00    +0.000 S 
ATOM      2  O   UNL     1       3.544   4.911  17.014  0.00  0.00    +0.000 OA
ATOM      3  O   UNL     1       5.373   3.485  16.032  0.00  0.00    +0.000 OA
ENDROOT
BRANCH   1   4
ATOM      4  N   UNL     1       4.751   3.163  18.452  0.00  0.00    +0.000 N 
ATOM      5  C   UNL     1       3.482   3.010  19.044  0.00  0.00    +0.000 A 
ATOM      6  C   UNL     1       2.509   2.184  18.512  0.00  0.00    +0.000 A 
ATOM      7  C   UNL     1       1.286   2.118  19.171  0.00  0.00    +0.000 A 
ATOM      8  C   UNL     1       1.083   2.895  20.308  0.00  0.00    +0.000 A 
ATOM      9  C   UNL     1       2.121   3.704  20.745  0.00  0.00    +0.000 A 
ATOM     10  N   UNL     1       3.327   3.770  20.139  0.00  0.00    +0.000 NA
ATOM     11  H   UNL     1       5.418   3.457  19.162  0.00  0.00    +0.000 HD
ENDBRANCH   1   4
BRANCH   1  15
ATOM     12  C   UNL     1       7.944   7.312  18.426  0.00  0.00    +0.000 A 
ATOM     13  C   UNL     1       7.062   7.595  17.378  0.00  0.00    +0.000 A 
ATOM     14  C   UNL     1       6.097   6.663  16.989  0.00  0.00    +0.000 A 
ATOM     15  C   UNL     1       6.040   5.426  17.636  0.00  0.00    +0.000 A 
ATOM     16  C   UNL     1       6.910   5.136  18.691  0.00  0.00    +0.000 A 
ATOM     17  C   UNL     1       7.870   6.078  19.078  0.00  0.00    +0.000 A 
BRANCH  12  19
ATOM     18  C   UNL     1       8.512   9.601  18.246  0.00  0.00    +0.000 C 
ATOM     19  O   UNL     1       8.855   8.295  18.696  0.00  0.00    +0.000 OA
ENDBRANCH  12  19
ENDBRANCH   1  15
TORSDOF 3
ENDMDL
