MODEL 1
REMARK VINA RESULT:      -9.4      0.000      0.000
REMARK  Name = 
REMARK  5 active torsions:
REMARK  status: ('A' for Active; 'I' for Inactive)
REMARK    1  A    between atoms: C_2  and  C_3
REMARK    2  A    between atoms: C_6  and  N_7
REMARK    3  A    between atoms: C_8  and  C_10
REMARK    4  A    between atoms: C_10  and  N_11
REMARK    5  A    between atoms: C_14  and  N_15
REMARK                            x       y       z     vdW  Elec       q    Type
REMARK                         _______ _______ _______ _____ _____    ______ ____
ROOT
ATOM      1  N   UNL     1       7.090   6.008  17.549  0.00  0.00    +0.000 NA
ATOM      2  C   UNL     1       6.408   4.855  18.174  0.00  0.00    +0.000 C 
ATOM      3  C   UNL     1       5.322   4.249  17.293  0.00  0.00    +0.000 C 
ATOM      4  C   UNL     1       4.260   5.263  16.847  0.00  0.00    +0.000 C 
ATOM      5  C   UNL     1       4.966   6.464  16.208  0.00  0.00    +0.000 C 
ATOM      6  C   UNL     1       6.134   7.017  17.019  0.00  0.00    +0.000 C 
ENDROOT
BRANCH   4   7
ATOM      7  N   UNL     1       3.229   5.536  17.896  0.00  0.00    +0.000 N 
ATOM      8  C   UNL     1       3.007   6.836  18.358  0.00  0.00    +0.000 C 
ATOM      9  O   UNL     1       3.086   7.858  17.695  0.00  0.00    +0.000 OA
ATOM     10  O   UNL     1       2.837   6.959  19.703  0.00  0.00    +0.000 OA
ATOM     11  C   UNL     1       1.822   6.150  20.260  0.00  0.00    +0.000 C 
ATOM     12  C   UNL     1       1.848   4.756  19.736  0.00  0.00    +0.000 A 
ATOM     13  C   UNL     1       1.120   3.767  20.414  0.00  0.00    +0.000 A 
ATOM     14  C   UNL     1       1.087   2.468  19.927  0.00  0.00    +0.000 A 
ATOM     15  C   UNL     1       1.768   2.159  18.755  0.00  0.00    +0.000 A 
ATOM     16  C   UNL     1       2.495   3.148  18.075  0.00  0.00    +0.000 A 
ATOM     17  C   UNL     1       2.556   4.462  18.564  0.00  0.00    +0.000 A 
ENDBRANCH   4   7
BRANCH   1  18
ATOM     18  C   UNL     1       7.900   6.711  18.591  0.00  0.00    +0.000 C 
BRANCH  18  20
ATOM     19  N   UNL     1       8.937   8.853  19.274  0.00  0.00    +0.000 N 
ATOM     20  C   UNL     1       8.232   8.173  18.294  0.00  0.00    +0.000 C 
ATOM     21  O   UNL     1       7.948   8.625  17.183  0.00  0.00    +0.000 OA
ATOM     22  H   UNL     1       9.220   8.295  20.073  0.00  0.00    +0.000 HD
BRANCH  19  26
ATOM     23  C   UNL     1      10.195  12.908  19.096  0.00  0.00    +0.000 A 
ATOM     24  C   UNL     1      10.212  12.125  17.944  0.00  0.00    +0.000 A 
ATOM     25  C   UNL     1       9.788  10.792  17.996  0.00  0.00    +0.000 A 
ATOM     26  C   UNL     1       9.352  10.207  19.193  0.00  0.00    +0.000 A 
ATOM     27  C   UNL     1       9.325  11.003  20.342  0.00  0.00    +0.000 A 
ATOM     28  C   UNL     1       9.751  12.344  20.295  0.00  0.00    +0.000 A 
BRANCH  23  30
ATOM     29  N   UNL     1      10.968  15.382  18.994  0.00  0.00    +0.000 NA
ATOM     30  C   UNL     1      10.627  14.277  19.038  0.00  0.00    +0.000 C 
ENDBRANCH  23  30
ENDBRANCH  19  26
ENDBRANCH  18  20
ENDBRANCH   1  18
TORSDOF 5
ENDMDL
MODEL 2
REMARK VINA RESULT:      -9.0      1.712      2.212
REMARK  Name = 
REMARK  5 active torsions:
REMARK  status: ('A' for Active; 'I' for Inactive)
REMARK    1  A    between atoms: C_2  and  C_3
REMARK    2  A    between atoms: C_6  and  N_7
REMARK    3  A    between atoms: C_8  and  C_10
REMARK    4  A    between atoms: C_10  and  N_11
REMARK    5  A    between atoms: C_14  and  N_15
REMARK                            x       y       z     vdW  Elec       q    Type
REMARK                         _______ _______ _______ _____ _____    ______ ____
ROOT
ATOM      1  N   UNL     1       6.959   7.153  17.117  0.00  0.00    +0.000 NA
ATOM      2  C   UNL     1       6.980   5.700  16.852  0.00  0.00    +0.000 C 
ATOM      3  C   UNL     1       5.684   5.181  16.242  0.00  0.00    +0.000 C 
ATOM      4  C   UNL     1       4.440   5.507  17.080  0.00  0.00    +0.000 C 
ATOM      5  C   UNL     1       4.421   7.013  17.365  0.00  0.00    +0.000 C 
ATOM      6  C   UNL     1       5.746   7.578  17.867  0.00  0.00    +0.000 C 
ENDROOT
BRANCH   4   7
ATOM      7  N   UNL     1       4.247   4.576  18.235  0.00  0.00    +0.000 N 
ATOM      8  C   UNL     1       5.306   4.274  19.094  0.00  0.00    +0.000 C 
ATOM      9  O   UNL     1       6.202   5.035  19.427  0.00  0.00    +0.000 OA
ATOM     10  O   UNL     1       5.410   2.968  19.461  0.00  0.00    +0.000 OA
ATOM     11  C   UNL     1       4.247   2.407  20.036  0.00  0.00    +0.000 C 
ATOM     12  C   UNL     1       3.008   2.775  19.296  0.00  0.00    +0.000 A 
ATOM     13  C   UNL     1       1.832   2.054  19.548  0.00  0.00    +0.000 A 
ATOM     14  C   UNL     1       0.649   2.400  18.909  0.00  0.00    +0.000 A 
ATOM     15  C   UNL     1       0.638   3.476  18.029  0.00  0.00    +0.000 A 
ATOM     16  C   UNL     1       1.813   4.200  17.777  0.00  0.00    +0.000 A 
ATOM     17  C   UNL     1       3.022   3.852  18.399  0.00  0.00    +0.000 A 
ENDBRANCH   4   7
BRANCH   1  18
ATOM     18  C   UNL     1       8.126   7.503  17.984  0.00  0.00    +0.000 C 
BRANCH  18  20
ATOM     19  N   UNL     1       9.255   9.329  19.218  0.00  0.00    +0.000 N 
ATOM     20  C   UNL     1       8.348   8.996  18.224  0.00  0.00    +0.000 C 
ATOM     21  O   UNL     1       7.796   9.799  17.469  0.00  0.00    +0.000 OA
ATOM     22  H   UNL     1       9.733   8.546  19.651  0.00  0.00    +0.000 HD
BRANCH  19  26
ATOM     23  C   UNL     1      10.328  13.304  20.268  0.00  0.00    +0.000 A 
ATOM     24  C   UNL     1       9.572  12.533  21.149  0.00  0.00    +0.000 A 
ATOM     25  C   UNL     1       9.226  11.220  20.811  0.00  0.00    +0.000 A 
ATOM     26  C   UNL     1       9.611  10.651  19.590  0.00  0.00    +0.000 A 
ATOM     27  C   UNL     1      10.380  11.425  18.716  0.00  0.00    +0.000 A 
ATOM     28  C   UNL     1      10.730  12.747  19.051  0.00  0.00    +0.000 A 
BRANCH  23  30
ATOM     29  N   UNL     1      10.971  15.737  20.896  0.00  0.00    +0.000 NA
ATOM     30  C   UNL     1      10.686  14.651  20.619  0.00  0.00    +0.000 C 
ENDBRANCH  23  30
ENDBRANCH  19  26
ENDBRANCH  18  20
ENDBRANCH   1  18
TORSDOF 5
ENDMDL
MODEL 3
REMARK VINA RESULT:      -8.5      1.554      2.303
REMARK  Name = 
REMARK  5 active torsions:
REMARK  status: ('A' for Active; 'I' for Inactive)
REMARK    1  A    between atoms: C_2  and  C_3
REMARK    2  A    between atoms: C_6  and  N_7
REMARK    3  A    between atoms: C_8  and  C_10
REMARK    4  A    between atoms: C_10  and  N_11
REMARK    5  A    between atoms: C_14  and  N_15
REMARK                            x       y       z     vdW  Elec       q    Type
REMARK                         _______ _______ _______ _____ _____    ______ ____
ROOT
ATOM      1  N   UNL     1       6.942   6.189  17.190  0.00  0.00    +0.000 NA
ATOM      2  C   UNL     1       6.883   4.720  17.340  0.00  0.00    +0.000 C 
ATOM      3  C   UNL     1       5.832   4.067  16.450  0.00  0.00    +0.000 C 
ATOM      4  C   UNL     1       4.422   4.637  16.650  0.00  0.00    +0.000 C 
ATOM      5  C   UNL     1       4.483   6.161  16.505  0.00  0.00    +0.000 C 
ATOM      6  C   UNL     1       5.603   6.828  17.298  0.00  0.00    +0.000 C 
ENDROOT
BRANCH   4   7
ATOM      7  N   UNL     1       3.725   4.078  17.850  0.00  0.00    +0.000 N 
ATOM      8  C   UNL     1       3.646   2.697  18.051  0.00  0.00    +0.000 C 
ATOM      9  O   UNL     1       4.498   1.876  17.748  0.00  0.00    +0.000 OA
ATOM     10  O   UNL     1       2.442   2.236  18.487  0.00  0.00    +0.000 OA
ATOM     11  C   UNL     1       1.950   2.847  19.662  0.00  0.00    +0.000 C 
ATOM     12  C   UNL     1       2.109   4.329  19.647  0.00  0.00    +0.000 A 
ATOM     13  C   UNL     1       1.396   5.093  20.582  0.00  0.00    +0.000 A 
ATOM     14  C   UNL     1       1.556   6.471  20.624  0.00  0.00    +0.000 A 
ATOM     15  C   UNL     1       2.439   7.084  19.743  0.00  0.00    +0.000 A 
ATOM     16  C   UNL     1       3.154   6.320  18.807  0.00  0.00    +0.000 A 
ATOM     17  C   UNL     1       2.990   4.929  18.737  0.00  0.00    +0.000 A 
ENDBRANCH   4   7
BRANCH   1  18
ATOM     18  C   UNL     1       7.763   6.755  18.306  0.00  0.00    +0.000 C 
BRANCH  18  20
ATOM     19  N   UNL     1       8.882   8.773  19.202  0.00  0.00    +0.000 N 
ATOM     20  C   UNL     1       8.158   8.223  18.155  0.00  0.00    +0.000 C 
ATOM     21  O   UNL     1       7.904   8.793  17.093  0.00  0.00    +0.000 OA
ATOM     22  H   UNL     1       9.134   8.128  19.944  0.00  0.00    +0.000 HD
BRANCH  19  26
ATOM     23  C   UNL     1      10.318  12.765  19.428  0.00  0.00    +0.000 A 
ATOM     24  C   UNL     1      10.204  12.138  18.189  0.00  0.00    +0.000 A 
ATOM     25  C   UNL     1       9.721  10.827  18.110  0.00  0.00    +0.000 A 
ATOM     26  C   UNL     1       9.355  10.109  19.256  0.00  0.00    +0.000 A 
ATOM     27  C   UNL     1       9.460  10.750  20.495  0.00  0.00    +0.000 A 
ATOM     28  C   UNL     1       9.946  12.068  20.580  0.00  0.00    +0.000 A 
BRANCH  23  30
ATOM     29  N   UNL     1      11.204  15.200  19.562  0.00  0.00    +0.000 NA
ATOM     30  C   UNL     1      10.809  14.114  19.506  0.00  0.00    +0.000 C 
ENDBRANCH  23  30
ENDBRANCH  19  26
ENDBRANCH  18  20
ENDBRANCH   1  18
TORSDOF 5
ENDMDL
MODEL 4
REMARK VINA RESULT:      -8.5      5.110      7.712
REMARK  Name = 
REMARK  5 active torsions:
REMARK  status: ('A' for Active; 'I' for Inactive)
REMARK    1  A    between atoms: C_2  and  C_3
REMARK    2  A    between atoms: C_6  and  N_7
REMARK    3  A    between atoms: C_8  and  C_10
REMARK    4  A    between atoms: C_10  and  N_11
REMARK    5  A    between atoms: C_14  and  N_15
REMARK                            x       y       z     vdW  Elec       q    Type
REMARK                         _______ _______ _______ _____ _____    ______ ____
ROOT
ATOM      1  N   UNL     1       1.593   4.940  19.791  0.00  0.00    +0.000 NA
ATOM      2  C   UNL     1       2.207   5.632  18.639  0.00  0.00    +0.000 C 
ATOM      3  C   UNL     1       2.384   4.733  17.422  0.00  0.00    +0.000 C 
ATOM      4  C   UNL     1       3.190   3.460  17.714  0.00  0.00    +0.000 C 
ATOM      5  C   UNL     1       2.560   2.745  18.915  0.00  0.00    +0.000 C 
ATOM      6  C   UNL     1       2.265   3.651  20.107  0.00  0.00    +0.000 C 
ENDROOT
BRANCH   4   7
ATOM      7  N   UNL     1       4.667   3.689  17.735  0.00  0.00    +0.000 N 
ATOM      8  C   UNL     1       5.376   3.671  18.939  0.00  0.00    +0.000 C 
ATOM      9  O   UNL     1       5.136   2.963  19.904  0.00  0.00    +0.000 OA
ATOM     10  O   UNL     1       6.320   4.642  19.078  0.00  0.00    +0.000 OA
ATOM     11  C   UNL     1       7.278   4.707  18.042  0.00  0.00    +0.000 C 
ATOM     12  C   UNL     1       6.668   4.588  16.689  0.00  0.00    +0.000 A 
ATOM     13  C   UNL     1       7.433   4.946  15.569  0.00  0.00    +0.000 A 
ATOM     14  C   UNL     1       6.911   4.803  14.292  0.00  0.00    +0.000 A 
ATOM     15  C   UNL     1       5.629   4.290  14.130  0.00  0.00    +0.000 A 
ATOM     16  C   UNL     1       4.862   3.931  15.250  0.00  0.00    +0.000 A 
ATOM     17  C   UNL     1       5.367   4.086  16.549  0.00  0.00    +0.000 A 
ENDBRANCH   4   7
BRANCH   1  18
ATOM     18  C   UNL     1       1.747   5.797  21.007  0.00  0.00    +0.000 C 
BRANCH  18  20
ATOM     19  N   UNL     1       0.320   7.744  21.558  0.00  0.00    +0.000 N 
ATOM     20  C   UNL     1       1.397   7.273  20.823  0.00  0.00    +0.000 C 
ATOM     21  O   UNL     1       2.137   7.969  20.126  0.00  0.00    +0.000 OA
ATOM     22  H   UNL     1      -0.097   7.075  22.197  0.00  0.00    +0.000 HD
BRANCH  19  26
ATOM     23  C   UNL     1      -1.097  11.749  21.569  0.00  0.00    +0.000 A 
ATOM     24  C   UNL     1      -0.827  11.113  20.359  0.00  0.00    +0.000 A 
ATOM     25  C   UNL     1      -0.370   9.790  20.351  0.00  0.00    +0.000 A 
ATOM     26  C   UNL     1      -0.161   9.078  21.541  0.00  0.00    +0.000 A 
ATOM     27  C   UNL     1      -0.447   9.720  22.750  0.00  0.00    +0.000 A 
ATOM     28  C   UNL     1      -0.905  11.051  22.764  0.00  0.00    +0.000 A 
BRANCH  23  30
ATOM     29  N   UNL     1      -1.944  14.202  21.575  0.00  0.00    +0.000 NA
ATOM     30  C   UNL     1      -1.570  13.107  21.574  0.00  0.00    +0.000 C 
ENDBRANCH  23  30
ENDBRANCH  19  26
ENDBRANCH  18  20
ENDBRANCH   1  18
TORSDOF 5
ENDMDL
MODEL 5
REMARK VINA RESULT:      -8.4      4.732      7.394
REMARK  Name = 
REMARK  5 active torsions:
REMARK  status: ('A' for Active; 'I' for Inactive)
REMARK    1  A    between atoms: C_2  and  C_3
REMARK    2  A    between atoms: C_6  and  N_7
REMARK    3  A    between atoms: C_8  and  C_10
REMARK    4  A    between atoms: C_10  and  N_11
REMARK    5  A    between atoms: C_14  and  N_15
REMARK                            x       y       z     vdW  Elec       q    Type
REMARK                         _______ _______ _______ _____ _____    ______ ____
ROOT
ATOM      1  N   UNL     1       2.383   3.797  19.642  0.00  0.00    +0.000 NA
ATOM      2  C   UNL     1       2.476   4.671  18.454  0.00  0.00    +0.000 C 
ATOM      3  C   UNL     1       2.808   3.913  17.174  0.00  0.00    +0.000 C 
ATOM      4  C   UNL     1       4.094   3.081  17.272  0.00  0.00    +0.000 C 
ATOM      5  C   UNL     1       4.003   2.181  18.509  0.00  0.00    +0.000 C 
ATOM      6  C   UNL     1       3.560   2.897  19.781  0.00  0.00    +0.000 C 
ENDROOT
BRANCH   4   7
ATOM      7  N   UNL     1       5.336   3.893  17.089  0.00  0.00    +0.000 N 
ATOM      8  C   UNL     1       5.937   4.534  18.175  0.00  0.00    +0.000 C 
ATOM      9  O   UNL     1       5.977   4.119  19.323  0.00  0.00    +0.000 OA
ATOM     10  O   UNL     1       6.379   5.800  17.939  0.00  0.00    +0.000 OA
ATOM     11  C   UNL     1       7.263   5.937  16.846  0.00  0.00    +0.000 C 
ATOM     12  C   UNL     1       6.815   5.173  15.647  0.00  0.00    +0.000 A 
ATOM     13  C   UNL     1       7.404   5.458  14.407  0.00  0.00    +0.000 A 
ATOM     14  C   UNL     1       7.043   4.734  13.280  0.00  0.00    +0.000 A 
ATOM     15  C   UNL     1       6.103   3.716  13.393  0.00  0.00    +0.000 A 
ATOM     16  C   UNL     1       5.513   3.430  14.634  0.00  0.00    +0.000 A 
ATOM     17  C   UNL     1       5.852   4.164  15.780  0.00  0.00    +0.000 A 
ENDBRANCH   4   7
BRANCH   1  18
ATOM     18  C   UNL     1       2.367   4.652  20.869  0.00  0.00    +0.000 C 
BRANCH  18  20
ATOM     19  N   UNL     1       2.022   7.103  20.903  0.00  0.00    +0.000 N 
ATOM     20  C   UNL     1       1.426   5.854  20.824  0.00  0.00    +0.000 C 
ATOM     21  O   UNL     1       0.226   5.653  20.623  0.00  0.00    +0.000 OA
ATOM     22  H   UNL     1       3.037   7.101  20.922  0.00  0.00    +0.000 HD
BRANCH  19  26
ATOM     23  C   UNL     1      -0.027  10.825  20.864  0.00  0.00    +0.000 A 
ATOM     24  C   UNL     1       0.469  10.294  19.675  0.00  0.00    +0.000 A 
ATOM     25  C   UNL     1       1.134   9.063  19.682  0.00  0.00    +0.000 A 
ATOM     26  C   UNL     1       1.333   8.343  20.868  0.00  0.00    +0.000 A 
ATOM     27  C   UNL     1       0.822   8.876  22.055  0.00  0.00    +0.000 A 
ATOM     28  C   UNL     1       0.152  10.115  22.054  0.00  0.00    +0.000 A 
BRANCH  23  30
ATOM     29  N   UNL     1      -1.268  13.104  20.850  0.00  0.00    +0.000 NA
ATOM     30  C   UNL     1      -0.714  12.087  20.852  0.00  0.00    +0.000 C 
ENDBRANCH  23  30
ENDBRANCH  19  26
ENDBRANCH  18  20
ENDBRANCH   1  18
TORSDOF 5
ENDMDL
MODEL 6
REMARK VINA RESULT:      -8.4      5.038      7.908
REMARK  Name = 
REMARK  5 active torsions:
REMARK  status: ('A' for Active; 'I' for Inactive)
REMARK    1  A    between atoms: C_2  and  C_3
REMARK    2  A    between atoms: C_6  and  N_7
REMARK    3  A    between atoms: C_8  and  C_10
REMARK    4  A    between atoms: C_10  and  N_11
REMARK    5  A    between atoms: C_14  and  N_15
REMARK                            x       y       z     vdW  Elec       q    Type
REMARK                         _______ _______ _______ _____ _____    ______ ____
ROOT
ATOM      1  N   UNL     1       1.861   6.140  19.708  0.00  0.00    +0.000 NA
ATOM      2  C   UNL     1       2.462   6.352  18.374  0.00  0.00    +0.000 C 
ATOM      3  C   UNL     1       2.479   5.093  17.516  0.00  0.00    +0.000 C 
ATOM      4  C   UNL     1       3.182   3.905  18.187  0.00  0.00    +0.000 C 
ATOM      5  C   UNL     1       2.567   3.690  19.575  0.00  0.00    +0.000 C 
ATOM      6  C   UNL     1       2.432   4.960  20.410  0.00  0.00    +0.000 C 
ENDROOT
BRANCH   4   7
ATOM      7  N   UNL     1       4.673   3.969  18.088  0.00  0.00    +0.000 N 
ATOM      8  C   UNL     1       5.470   3.876  19.231  0.00  0.00    +0.000 C 
ATOM      9  O   UNL     1       5.232   3.202  20.221  0.00  0.00    +0.000 OA
ATOM     10  O   UNL     1       6.523   4.737  19.283  0.00  0.00    +0.000 OA
ATOM     11  C   UNL     1       7.396   4.693  18.174  0.00  0.00    +0.000 C 
ATOM     12  C   UNL     1       6.670   4.638  16.875  0.00  0.00    +0.000 A 
ATOM     13  C   UNL     1       7.377   4.905  15.694  0.00  0.00    +0.000 A 
ATOM     14  C   UNL     1       6.741   4.818  14.463  0.00  0.00    +0.000 A 
ATOM     15  C   UNL     1       5.402   4.449  14.411  0.00  0.00    +0.000 A 
ATOM     16  C   UNL     1       4.693   4.180  15.592  0.00  0.00    +0.000 A 
ATOM     17  C   UNL     1       5.314   4.283  16.845  0.00  0.00    +0.000 A 
ENDBRANCH   4   7
BRANCH   1  18
ATOM     18  C   UNL     1       2.170   7.324  20.569  0.00  0.00    +0.000 C 
BRANCH  18  20
ATOM     19  N   UNL     1       0.993   9.469  20.187  0.00  0.00    +0.000 N 
ATOM     20  C   UNL     1       0.993   8.255  20.857  0.00  0.00    +0.000 C 
ATOM     21  O   UNL     1       0.080   7.842  21.575  0.00  0.00    +0.000 OA
ATOM     22  H   UNL     1       1.746   9.597  19.519  0.00  0.00    +0.000 HD
BRANCH  19  26
ATOM     23  C   UNL     1      -1.966  12.493  20.580  0.00  0.00    +0.000 A 
ATOM     24  C   UNL     1      -1.913  11.720  19.422  0.00  0.00    +0.000 A 
ATOM     25  C   UNL     1      -0.947  10.716  19.293  0.00  0.00    +0.000 A 
ATOM     26  C   UNL     1      -0.008  10.467  20.303  0.00  0.00    +0.000 A 
ATOM     27  C   UNL     1      -0.075  11.238  21.468  0.00  0.00    +0.000 A 
ATOM     28  C   UNL     1      -1.044  12.251  21.602  0.00  0.00    +0.000 A 
BRANCH  23  30
ATOM     29  N   UNL     1      -3.766  14.346  20.822  0.00  0.00    +0.000 NA
ATOM     30  C   UNL     1      -2.962  13.521  20.711  0.00  0.00    +0.000 C 
ENDBRANCH  23  30
ENDBRANCH  19  26
ENDBRANCH  18  20
ENDBRANCH   1  18
TORSDOF 5
ENDMDL
MODEL 7
REMARK VINA RESULT:      -8.4      5.026      7.826
REMARK  Name = 
REMARK  5 active torsions:
REMARK  status: ('A' for Active; 'I' for Inactive)
REMARK    1  A    between atoms: C_2  and  C_3
REMARK    2  A    between atoms: C_6  and  N_7
REMARK    3  A    between atoms: C_8  and  C_10
REMARK    4  A    between atoms: C_10  and  N_11
REMARK    5  A    between atoms: C_14  and  N_15
REMARK                            x       y       z     vdW  Elec       q    Type
REMARK                         _______ _______ _______ _____ _____    ______ ____
ROOT
ATOM      1  N   UNL     1       1.900   6.189  19.736  0.00  0.00    +0.000 NA
ATOM      2  C   UNL     1       2.517   6.442  18.417  0.00  0.00    +0.000 C 
ATOM      3  C   UNL     1       2.498   5.225  17.500  0.00  0.00    +0.000 C 
ATOM      4  C   UNL     1       3.156   3.984  18.118  0.00  0.00    +0.000 C 
ATOM      5  C   UNL     1       2.523   3.725  19.490  0.00  0.00    +0.000 C 
ATOM      6  C   UNL     1       2.426   4.957  20.384  0.00  0.00    +0.000 C 
ENDROOT
BRANCH   4   7
ATOM      7  N   UNL     1       4.648   4.002  18.030  0.00  0.00    +0.000 N 
ATOM      8  C   UNL     1       5.434   3.888  19.180  0.00  0.00    +0.000 C 
ATOM      9  O   UNL     1       5.167   3.224  20.169  0.00  0.00    +0.000 OA
ATOM     10  O   UNL     1       6.512   4.716  19.238  0.00  0.00    +0.000 OA
ATOM     11  C   UNL     1       7.392   4.642  18.136  0.00  0.00    +0.000 C 
ATOM     12  C   UNL     1       6.674   4.606  16.831  0.00  0.00    +0.000 A 
ATOM     13  C   UNL     1       7.398   4.849  15.655  0.00  0.00    +0.000 A 
ATOM     14  C   UNL     1       6.769   4.778  14.420  0.00  0.00    +0.000 A 
ATOM     15  C   UNL     1       5.420   4.451  14.358  0.00  0.00    +0.000 A 
ATOM     16  C   UNL     1       4.694   4.206  15.534  0.00  0.00    +0.000 A 
ATOM     17  C   UNL     1       5.309   4.293  16.792  0.00  0.00    +0.000 A 
ENDBRANCH   4   7
BRANCH   1  18
ATOM     18  C   UNL     1       2.242   7.319  20.653  0.00  0.00    +0.000 C 
BRANCH  18  20
ATOM     19  N   UNL     1       1.111   9.161  21.861  0.00  0.00    +0.000 N 
ATOM     20  C   UNL     1       1.255   8.486  20.659  0.00  0.00    +0.000 C 
ATOM     21  O   UNL     1       0.731   8.817  19.594  0.00  0.00    +0.000 OA
ATOM     22  H   UNL     1       1.724   8.853  22.610  0.00  0.00    +0.000 HD
BRANCH  19  26
ATOM     23  C   UNL     1      -1.455  12.472  22.569  0.00  0.00    +0.000 A 
ATOM     24  C   UNL     1      -0.411  12.588  21.654  0.00  0.00    +0.000 A 
ATOM     25  C   UNL     1       0.430  11.496  21.410  0.00  0.00    +0.000 A 
ATOM     26  C   UNL     1       0.259  10.275  22.077  0.00  0.00    +0.000 A 
ATOM     27  C   UNL     1      -0.798  10.163  22.985  0.00  0.00    +0.000 A 
ATOM     28  C   UNL     1      -1.647  11.258  23.234  0.00  0.00    +0.000 A 
BRANCH  23  30
ATOM     29  N   UNL     1      -3.021  14.493  23.013  0.00  0.00    +0.000 NA
ATOM     30  C   UNL     1      -2.320  13.594  22.814  0.00  0.00    +0.000 C 
ENDBRANCH  23  30
ENDBRANCH  19  26
ENDBRANCH  18  20
ENDBRANCH   1  18
TORSDOF 5
ENDMDL
MODEL 8
REMARK VINA RESULT:      -8.3      6.573      9.693
REMARK  Name = 
REMARK  5 active torsions:
REMARK  status: ('A' for Active; 'I' for Inactive)
REMARK    1  A    between atoms: C_2  and  C_3
REMARK    2  A    between atoms: C_6  and  N_7
REMARK    3  A    between atoms: C_8  and  C_10
REMARK    4  A    between atoms: C_10  and  N_11
REMARK    5  A    between atoms: C_14  and  N_15
REMARK                            x       y       z     vdW  Elec       q    Type
REMARK                         _______ _______ _______ _____ _____    ______ ____
ROOT
ATOM      1  N   UNL     1       0.204  10.801  18.937  0.00  0.00    +0.000 NA
ATOM      2  C   UNL     1      -1.250  10.603  19.116  0.00  0.00    +0.000 C 
ATOM      3  C   UNL     1      -2.061  11.875  18.900  0.00  0.00    +0.000 C 
ATOM      4  C   UNL     1      -1.613  13.044  19.787  0.00  0.00    +0.000 C 
ATOM      5  C   UNL     1      -0.104  13.245  19.610  0.00  0.00    +0.000 C 
ATOM      6  C   UNL     1       0.720  11.965  19.707  0.00  0.00    +0.000 C 
ENDROOT
BRANCH   4   7
ATOM      7  N   UNL     1      -2.148  12.964  21.181  0.00  0.00    +0.000 N 
ATOM      8  C   UNL     1      -1.334  12.540  22.236  0.00  0.00    +0.000 C 
ATOM      9  O   UNL     1      -0.137  12.752  22.350  0.00  0.00    +0.000 OA
ATOM     10  O   UNL     1      -1.920  11.691  23.124  0.00  0.00    +0.000 OA
ATOM     11  C   UNL     1      -3.123  12.155  23.700  0.00  0.00    +0.000 C 
ATOM     12  C   UNL     1      -4.036  12.775  22.699  0.00  0.00    +0.000 A 
ATOM     13  C   UNL     1      -5.377  12.991  23.051  0.00  0.00    +0.000 A 
ATOM     14  C   UNL     1      -6.242  13.608  22.158  0.00  0.00    +0.000 A 
ATOM     15  C   UNL     1      -5.766  14.021  20.919  0.00  0.00    +0.000 A 
ATOM     16  C   UNL     1      -4.425  13.806  20.566  0.00  0.00    +0.000 A 
ATOM     17  C   UNL     1      -3.541  13.167  21.448  0.00  0.00    +0.000 A 
ENDBRANCH   4   7
BRANCH   1  18
ATOM     18  C   UNL     1       0.923   9.601  19.466  0.00  0.00    +0.000 C 
BRANCH  18  20
ATOM     19  N   UNL     1       2.299   7.635  18.857  0.00  0.00    +0.000 N 
ATOM     20  C   UNL     1       1.825   8.879  18.467  0.00  0.00    +0.000 C 
ATOM     21  O   UNL     1       1.995   9.385  17.356  0.00  0.00    +0.000 OA
ATOM     22  H   UNL     1       1.950   7.296  19.748  0.00  0.00    +0.000 HD
BRANCH  19  26
ATOM     23  C   UNL     1       4.762   5.084  16.517  0.00  0.00    +0.000 A 
ATOM     24  C   UNL     1       5.021   6.453  16.556  0.00  0.00    +0.000 A 
ATOM     25  C   UNL     1       4.218   7.295  17.335  0.00  0.00    +0.000 A 
ATOM     26  C   UNL     1       3.138   6.798  18.077  0.00  0.00    +0.000 A 
ATOM     27  C   UNL     1       2.893   5.423  18.043  0.00  0.00    +0.000 A 
ATOM     28  C   UNL     1       3.696   4.571  17.261  0.00  0.00    +0.000 A 
BRANCH  23  30
ATOM     29  N   UNL     1       6.260   3.524  15.084  0.00  0.00    +0.000 NA
ATOM     30  C   UNL     1       5.591   4.221  15.720  0.00  0.00    +0.000 C 
ENDBRANCH  23  30
ENDBRANCH  19  26
ENDBRANCH  18  20
ENDBRANCH   1  18
TORSDOF 5
ENDMDL
MODEL 9
REMARK VINA RESULT:      -8.2      4.305      6.750
REMARK  Name = 
REMARK  5 active torsions:
REMARK  status: ('A' for Active; 'I' for Inactive)
REMARK    1  A    between atoms: C_2  and  C_3
REMARK    2  A    between atoms: C_6  and  N_7
REMARK    3  A    between atoms: C_8  and  C_10
REMARK    4  A    between atoms: C_10  and  N_11
REMARK    5  A    between atoms: C_14  and  N_15
REMARK                            x       y       z     vdW  Elec       q    Type
REMARK                         _______ _______ _______ _____ _____    ______ ____
ROOT
ATOM      1  N   UNL     1       2.028   4.181  19.723  0.00  0.00    +0.000 NA
ATOM      2  C   UNL     1       2.201   4.809  18.396  0.00  0.00    +0.000 C 
ATOM      3  C   UNL     1       2.752   3.852  17.345  0.00  0.00    +0.000 C 
ATOM      4  C   UNL     1       4.077   3.193  17.752  0.00  0.00    +0.000 C 
ATOM      5  C   UNL     1       3.902   2.550  19.132  0.00  0.00    +0.000 C 
ATOM      6  C   UNL     1       3.245   3.453  20.172  0.00  0.00    +0.000 C 
ENDROOT
BRANCH   4   7
ATOM      7  N   UNL     1       5.264   4.078  17.540  0.00  0.00    +0.000 N 
ATOM      8  C   UNL     1       5.789   4.834  18.591  0.00  0.00    +0.000 C 
ATOM      9  O   UNL     1       5.826   4.503  19.766  0.00  0.00    +0.000 OA
ATOM     10  O   UNL     1       6.147   6.108  18.275  0.00  0.00    +0.000 OA
ATOM     11  C   UNL     1       7.049   6.232  17.195  0.00  0.00    +0.000 C 
ATOM     12  C   UNL     1       6.689   5.357  16.044  0.00  0.00    +0.000 A 
ATOM     13  C   UNL     1       7.291   5.596  14.800  0.00  0.00    +0.000 A 
ATOM     14  C   UNL     1       7.012   4.771  13.719  0.00  0.00    +0.000 A 
ATOM     15  C   UNL     1       6.143   3.699  13.884  0.00  0.00    +0.000 A 
ATOM     16  C   UNL     1       5.540   3.458  15.129  0.00  0.00    +0.000 A 
ATOM     17  C   UNL     1       5.796   4.293  16.227  0.00  0.00    +0.000 A 
ENDBRANCH   4   7
BRANCH   1  18
ATOM     18  C   UNL     1       1.789   5.255  20.736  0.00  0.00    +0.000 C 
BRANCH  18  20
ATOM     19  N   UNL     1       1.033   7.607  20.583  0.00  0.00    +0.000 N 
ATOM     20  C   UNL     1       2.013   6.685  20.249  0.00  0.00    +0.000 C 
ATOM     21  O   UNL     1       3.076   6.954  19.686  0.00  0.00    +0.000 OA
ATOM     22  H   UNL     1       0.288   7.256  21.174  0.00  0.00    +0.000 HD
BRANCH  19  26
ATOM     23  C   UNL     1       1.113  11.744  19.615  0.00  0.00    +0.000 A 
ATOM     24  C   UNL     1       1.280  10.793  18.610  0.00  0.00    +0.000 A 
ATOM     25  C   UNL     1       1.243   9.430  18.923  0.00  0.00    +0.000 A 
ATOM     26  C   UNL     1       1.054   8.984  20.239  0.00  0.00    +0.000 A 
ATOM     27  C   UNL     1       0.875   9.943  21.239  0.00  0.00    +0.000 A 
ATOM     28  C   UNL     1       0.912  11.316  20.930  0.00  0.00    +0.000 A 
BRANCH  23  30
ATOM     29  N   UNL     1       1.175  14.272  19.034  0.00  0.00    +0.000 NA
ATOM     30  C   UNL     1       1.147  13.143  19.289  0.00  0.00    +0.000 C 
ENDBRANCH  23  30
ENDBRANCH  19  26
ENDBRANCH  18  20
ENDBRANCH   1  18
TORSDOF 5
ENDMDL
