MODEL 1
REMARK VINA RESULT:      -9.3      0.000      0.000
REMARK  Name = 
REMARK  4 active torsions:
REMARK  status: ('A' for Active; 'I' for Inactive)
REMARK    1  A    between atoms: S_2  and  C_4
REMARK    2  A    between atoms: S_2  and  N_11
REMARK    3  A    between atoms: N_22  and  C_23
REMARK    4  A    between atoms: C_23  and  C_24
REMARK                            x       y       z     vdW  Elec       q    Type
REMARK                         _______ _______ _______ _____ _____    ______ ____
ROOT
ATOM      1  N   UNL     1       5.790   5.569  17.554  0.00  0.00    +0.000 NA
ATOM      2  C   UNL     1       4.575   5.075  16.835  0.00  0.00    +0.000 C 
ATOM      3  C   UNL     1       3.314   5.391  17.637  0.00  0.00    +0.000 C 
ATOM      4  C   UNL     1       3.357   4.793  19.057  0.00  0.00    +0.000 C 
ATOM      5  C   UNL     1       4.649   5.302  19.735  0.00  0.00    +0.000 C 
ATOM      6  C   UNL     1       5.894   4.961  18.915  0.00  0.00    +0.000 C 
ATOM      7  N   UNL     1       3.432   3.306  19.068  0.00  0.00    +0.000 NA
ATOM      8  C   UNL     1       2.175   2.720  18.602  0.00  0.00    +0.000 C 
ATOM      9  C   UNL     1       1.002   3.110  19.495  0.00  0.00    +0.000 C 
ATOM     10  N   UNL     1       1.039   4.479  20.007  0.00  0.00    +0.000 NA
ATOM     11  C   UNL     1       2.072   5.241  19.850  0.00  0.00    +0.000 C 
ATOM     12  N   UNL     1       2.037   6.511  20.383  0.00  0.00    +0.000 N 
ATOM     13  H   UNL     1       3.548   3.014  20.041  0.00  0.00    +0.000 HD
ATOM     14  H   UNL     1       2.694   7.216  20.078  0.00  0.00    +0.000 HD
ENDROOT
BRANCH   1  16
ATOM     15  O   UNL     1       8.078   4.412  17.342  0.00  0.00    +0.000 OA
ATOM     16  S   UNL     1       7.250   5.379  16.649  0.00  0.00    +0.000 S 
ATOM     17  O   UNL     1       7.751   6.696  16.310  0.00  0.00    +0.000 OA
BRANCH  16  18
ATOM     18  C   UNL     1       6.681   4.647  15.134  0.00  0.00    +0.000 A 
ATOM     19  C   UNL     1       7.304   5.015  13.937  0.00  0.00    +0.000 A 
ATOM     20  C   UNL     1       6.869   4.457  12.734  0.00  0.00    +0.000 A 
ATOM     21  C   UNL     1       5.825   3.531  12.737  0.00  0.00    +0.000 A 
ATOM     22 CL   UNL     1       5.277   2.862  11.250  0.00  0.00    +0.000 Cl
ATOM     23  C   UNL     1       5.219   3.146  13.935  0.00  0.00    +0.000 A 
ATOM     24  C   UNL     1       5.649   3.701  15.143  0.00  0.00    +0.000 A 
ENDBRANCH  16  18
ENDBRANCH   1  16
BRANCH  12  25
ATOM     25  C   UNL     1       1.056   6.950  21.357  0.00  0.00    +0.000 C 
BRANCH  25  26
ATOM     26  C   UNL     1       0.743   8.419  21.159  0.00  0.00    +0.000 A 
ATOM     27  C   UNL     1       1.062   9.058  19.935  0.00  0.00    +0.000 A 
ATOM     28  C   UNL     1       0.842  10.429  19.751  0.00  0.00    +0.000 A 
ATOM     29  C   UNL     1       0.322  11.138  20.809  0.00  0.00    +0.000 A 
ATOM     30  C   UNL     1       0.016  10.533  22.005  0.00  0.00    +0.000 A 
ATOM     31  C   UNL     1       0.213   9.183  22.212  0.00  0.00    +0.000 A 
ATOM     32  O   UNL     1      -0.468  11.415  22.920  0.00  0.00    +0.000 OA
ATOM     33  C   UNL     1      -0.419  12.646  22.168  0.00  0.00    +0.000 C 
ATOM     34  O   UNL     1       0.067  12.474  20.820  0.00  0.00    +0.000 OA
ENDBRANCH  25  26
ENDBRANCH  12  25
TORSDOF 4
ENDMDL
MODEL 2
REMARK VINA RESULT:      -9.2      0.589      1.276
REMARK  Name = 
REMARK  4 active torsions:
REMARK  status: ('A' for Active; 'I' for Inactive)
REMARK    1  A    between atoms: S_2  and  C_4
REMARK    2  A    between atoms: S_2  and  N_11
REMARK    3  A    between atoms: N_22  and  C_23
REMARK    4  A    between atoms: C_23  and  C_24
REMARK                            x       y       z     vdW  Elec       q    Type
REMARK                         _______ _______ _______ _____ _____    ______ ____
ROOT
ATOM      1  N   UNL     1       5.816   5.591  17.583  0.00  0.00    +0.000 NA
ATOM      2  C   UNL     1       4.604   5.127  16.841  0.00  0.00    +0.000 C 
ATOM      3  C   UNL     1       3.337   5.446  17.632  0.00  0.00    +0.000 C 
ATOM      4  C   UNL     1       3.354   4.822  19.042  0.00  0.00    +0.000 C 
ATOM      5  C   UNL     1       4.643   5.302  19.745  0.00  0.00    +0.000 C 
ATOM      6  C   UNL     1       5.895   4.958  18.935  0.00  0.00    +0.000 C 
ATOM      7  N   UNL     1       3.409   3.334  19.027  0.00  0.00    +0.000 NA
ATOM      8  C   UNL     1       2.151   2.774  18.535  0.00  0.00    +0.000 C 
ATOM      9  C   UNL     1       0.972   3.163  19.421  0.00  0.00    +0.000 C 
ATOM     10  N   UNL     1       1.020   4.523  19.958  0.00  0.00    +0.000 NA
ATOM     11  C   UNL     1       2.065   5.274  19.826  0.00  0.00    +0.000 C 
ATOM     12  N   UNL     1       2.039   6.534  20.381  0.00  0.00    +0.000 N 
ATOM     13  H   UNL     1       3.509   3.024  19.997  0.00  0.00    +0.000 HD
ATOM     14  H   UNL     1       2.710   7.236  20.097  0.00  0.00    +0.000 HD
ENDROOT
BRANCH   1  16
ATOM     15  O   UNL     1       8.109   4.437  17.402  0.00  0.00    +0.000 OA
ATOM     16  S   UNL     1       7.285   5.398  16.694  0.00  0.00    +0.000 S 
ATOM     17  O   UNL     1       7.786   6.713  16.350  0.00  0.00    +0.000 OA
BRANCH  16  18
ATOM     18  C   UNL     1       6.732   4.652  15.180  0.00  0.00    +0.000 A 
ATOM     19  C   UNL     1       7.294   5.088  13.974  0.00  0.00    +0.000 A 
ATOM     20  C   UNL     1       6.870   4.521  12.772  0.00  0.00    +0.000 A 
ATOM     21  C   UNL     1       5.897   3.520  12.783  0.00  0.00    +0.000 A 
ATOM     22 CL   UNL     1       5.361   2.839  11.297  0.00  0.00    +0.000 Cl
ATOM     23  C   UNL     1       5.353   3.069  13.987  0.00  0.00    +0.000 A 
ATOM     24  C   UNL     1       5.773   3.633  15.196  0.00  0.00    +0.000 A 
ENDBRANCH  16  18
ENDBRANCH   1  16
BRANCH  12  25
ATOM     25  C   UNL     1       1.052   6.969  21.350  0.00  0.00    +0.000 C 
BRANCH  25  26
ATOM     26  C   UNL     1       0.793   8.455  21.203  0.00  0.00    +0.000 A 
ATOM     27  C   UNL     1       0.152   9.173  22.243  0.00  0.00    +0.000 A 
ATOM     28  C   UNL     1      -0.158  10.532  22.105  0.00  0.00    +0.000 A 
ATOM     29  C   UNL     1       0.168  11.142  20.916  0.00  0.00    +0.000 A 
ATOM     30  C   UNL     1       0.783  10.455  19.895  0.00  0.00    +0.000 A 
ATOM     31  C   UNL     1       1.109   9.119  20.007  0.00  0.00    +0.000 A 
ATOM     32  O   UNL     1       1.001  11.238  18.805  0.00  0.00    +0.000 OA
ATOM     33  C   UNL     1       0.439  12.491  19.250  0.00  0.00    +0.000 C 
ATOM     34  O   UNL     1      -0.076  12.441  20.597  0.00  0.00    +0.000 OA
ENDBRANCH  25  26
ENDBRANCH  12  25
TORSDOF 4
ENDMDL
MODEL 3
REMARK VINA RESULT:      -9.1      3.672      9.044
REMARK  Name = 
REMARK  4 active torsions:
REMARK  status: ('A' for Active; 'I' for Inactive)
REMARK    1  A    between atoms: S_2  and  C_4
REMARK    2  A    between atoms: S_2  and  N_11
REMARK    3  A    between atoms: N_22  and  C_23
REMARK    4  A    between atoms: C_23  and  C_24
REMARK                            x       y       z     vdW  Elec       q    Type
REMARK                         _______ _______ _______ _____ _____    ______ ____
ROOT
ATOM      1  N   UNL     1       1.510   8.828  19.376  0.00  0.00    +0.000 NA
ATOM      2  C   UNL     1       1.434   7.836  20.492  0.00  0.00    +0.000 C 
ATOM      3  C   UNL     1       2.581   6.832  20.395  0.00  0.00    +0.000 C 
ATOM      4  C   UNL     1       2.599   6.091  19.043  0.00  0.00    +0.000 C 
ATOM      5  C   UNL     1       2.637   7.162  17.929  0.00  0.00    +0.000 C 
ATOM      6  C   UNL     1       1.470   8.146  18.046  0.00  0.00    +0.000 C 
ATOM      7  N   UNL     1       1.378   5.275  18.802  0.00  0.00    +0.000 NA
ATOM      8  C   UNL     1       1.340   4.122  19.702  0.00  0.00    +0.000 C 
ATOM      9  C   UNL     1       2.537   3.200  19.494  0.00  0.00    +0.000 C 
ATOM     10  N   UNL     1       3.801   3.878  19.207  0.00  0.00    +0.000 NA
ATOM     11  C   UNL     1       3.860   5.150  18.981  0.00  0.00    +0.000 C 
ATOM     12  N   UNL     1       5.086   5.708  18.695  0.00  0.00    +0.000 N 
ATOM     13  H   UNL     1       1.444   4.902  17.851  0.00  0.00    +0.000 HD
ATOM     14  H   UNL     1       5.225   6.707  18.762  0.00  0.00    +0.000 HD
ENDROOT
BRANCH   1  16
ATOM     15  O   UNL     1      -0.300   9.985  20.791  0.00  0.00    +0.000 OA
ATOM     16  S   UNL     1       0.332  10.087  19.490  0.00  0.00    +0.000 S 
ATOM     17  O   UNL     1      -0.448  10.094  18.270  0.00  0.00    +0.000 OA
BRANCH  16  18
ATOM     18  C   UNL     1       1.327  11.558  19.465  0.00  0.00    +0.000 A 
ATOM     19  C   UNL     1       2.012  11.884  18.289  0.00  0.00    +0.000 A 
ATOM     20  C   UNL     1       2.805  13.032  18.249  0.00  0.00    +0.000 A 
ATOM     21  C   UNL     1       2.900  13.848  19.377  0.00  0.00    +0.000 A 
ATOM     22 CL   UNL     1       3.895  15.250  19.331  0.00  0.00    +0.000 Cl
ATOM     23  C   UNL     1       2.198  13.535  20.544  0.00  0.00    +0.000 A 
ATOM     24  C   UNL     1       1.403  12.387  20.591  0.00  0.00    +0.000 A 
ENDBRANCH  16  18
ENDBRANCH   1  16
BRANCH  12  25
ATOM     25  C   UNL     1       6.260   4.936  18.336  0.00  0.00    +0.000 C 
BRANCH  25  26
ATOM     26  C   UNL     1       6.308   4.721  16.837  0.00  0.00    +0.000 A 
ATOM     27  C   UNL     1       5.469   3.753  16.229  0.00  0.00    +0.000 A 
ATOM     28  C   UNL     1       5.540   3.490  14.855  0.00  0.00    +0.000 A 
ATOM     29  C   UNL     1       6.466   4.192  14.119  0.00  0.00    +0.000 A 
ATOM     30  C   UNL     1       7.291   5.128  14.697  0.00  0.00    +0.000 A 
ATOM     31  C   UNL     1       7.237   5.415  16.046  0.00  0.00    +0.000 A 
ATOM     32  O   UNL     1       8.141   5.692  13.798  0.00  0.00    +0.000 OA
ATOM     33  C   UNL     1       7.767   4.994  12.591  0.00  0.00    +0.000 C 
ATOM     34  O   UNL     1       6.691   4.052  12.785  0.00  0.00    +0.000 OA
ENDBRANCH  25  26
ENDBRANCH  12  25
TORSDOF 4
ENDMDL
MODEL 4
REMARK VINA RESULT:      -9.1      6.646     10.164
REMARK  Name = 
REMARK  4 active torsions:
REMARK  status: ('A' for Active; 'I' for Inactive)
REMARK    1  A    between atoms: S_2  and  C_4
REMARK    2  A    between atoms: S_2  and  N_11
REMARK    3  A    between atoms: N_22  and  C_23
REMARK    4  A    between atoms: C_23  and  C_24
REMARK                            x       y       z     vdW  Elec       q    Type
REMARK                         _______ _______ _______ _____ _____    ______ ____
ROOT
ATOM      1  N   UNL     1       1.518  12.006  19.815  0.00  0.00    +0.000 NA
ATOM      2  C   UNL     1       1.015  12.734  18.609  0.00  0.00    +0.000 C 
ATOM      3  C   UNL     1       2.072  13.709  18.094  0.00  0.00    +0.000 C 
ATOM      4  C   UNL     1       2.506  14.724  19.169  0.00  0.00    +0.000 C 
ATOM      5  C   UNL     1       2.976  13.920  20.402  0.00  0.00    +0.000 C 
ATOM      6  C   UNL     1       1.893  12.961  20.902  0.00  0.00    +0.000 C 
ATOM      7  N   UNL     1       1.397  15.601  19.634  0.00  0.00    +0.000 NA
ATOM      8  C   UNL     1       0.995  16.532  18.579  0.00  0.00    +0.000 C 
ATOM      9  C   UNL     1       2.140  17.449  18.166  0.00  0.00    +0.000 C 
ATOM     10  N   UNL     1       3.461  16.822  18.140  0.00  0.00    +0.000 NA
ATOM     11  C   UNL     1       3.661  15.628  18.595  0.00  0.00    +0.000 C 
ATOM     12  N   UNL     1       4.940  15.119  18.556  0.00  0.00    +0.000 N 
ATOM     13  H   UNL     1       1.761  16.170  20.403  0.00  0.00    +0.000 HD
ATOM     14  H   UNL     1       5.102  14.125  18.658  0.00  0.00    +0.000 HD
ENDROOT
BRANCH   1  16
ATOM     15  O   UNL     1      -0.821  10.943  19.683  0.00  0.00    +0.000 OA
ATOM     16  S   UNL     1       0.440  10.779  20.379  0.00  0.00    +0.000 S 
ATOM     17  O   UNL     1       0.505  10.745  21.826  0.00  0.00    +0.000 OA
BRANCH  16  18
ATOM     18  C   UNL     1       1.209   9.286  19.800  0.00  0.00    +0.000 A 
ATOM     19  C   UNL     1       1.618   9.217  18.464  0.00  0.00    +0.000 A 
ATOM     20  C   UNL     1       2.218   8.052  17.986  0.00  0.00    +0.000 A 
ATOM     21  C   UNL     1       2.414   6.970  18.846  0.00  0.00    +0.000 A 
ATOM     22 CL   UNL     1       3.134   5.527  18.248  0.00  0.00    +0.000 Cl
ATOM     23  C   UNL     1       2.027   7.047  20.186  0.00  0.00    +0.000 A 
ATOM     24  C   UNL     1       1.424   8.211  20.671  0.00  0.00    +0.000 A 
ENDBRANCH  16  18
ENDBRANCH   1  16
BRANCH  12  25
ATOM     25  C   UNL     1       6.123  15.923  18.320  0.00  0.00    +0.000 C 
BRANCH  25  26
ATOM     26  C   UNL     1       7.314  15.032  18.033  0.00  0.00    +0.000 A 
ATOM     27  C   UNL     1       7.118  13.692  17.614  0.00  0.00    +0.000 A 
ATOM     28  C   UNL     1       8.201  12.830  17.405  0.00  0.00    +0.000 A 
ATOM     29  C   UNL     1       9.464  13.325  17.638  0.00  0.00    +0.000 A 
ATOM     30  C   UNL     1       9.668  14.620  18.051  0.00  0.00    +0.000 A 
ATOM     31  C   UNL     1       8.621  15.495  18.256  0.00  0.00    +0.000 A 
ATOM     32  O   UNL     1      10.986  14.900  18.239  0.00  0.00    +0.000 OA
ATOM     33  C   UNL     1      11.586  13.628  17.909  0.00  0.00    +0.000 C 
ATOM     34  O   UNL     1      10.625  12.628  17.510  0.00  0.00    +0.000 OA
ENDBRANCH  25  26
ENDBRANCH  12  25
TORSDOF 4
ENDMDL
MODEL 5
REMARK VINA RESULT:      -8.9      5.342      9.662
REMARK  Name = 
REMARK  4 active torsions:
REMARK  status: ('A' for Active; 'I' for Inactive)
REMARK    1  A    between atoms: S_2  and  C_4
REMARK    2  A    between atoms: S_2  and  N_11
REMARK    3  A    between atoms: N_22  and  C_23
REMARK    4  A    between atoms: C_23  and  C_24
REMARK                            x       y       z     vdW  Elec       q    Type
REMARK                         _______ _______ _______ _____ _____    ______ ____
ROOT
ATOM      1  N   UNL     1       2.649  13.365  20.456  0.00  0.00    +0.000 NA
ATOM      2  C   UNL     1       1.332  12.863  20.953  0.00  0.00    +0.000 C 
ATOM      3  C   UNL     1       1.014  11.499  20.343  0.00  0.00    +0.000 C 
ATOM      4  C   UNL     1       1.008  11.534  18.802  0.00  0.00    +0.000 C 
ATOM      5  C   UNL     1       2.373  12.097  18.347  0.00  0.00    +0.000 C 
ATOM      6  C   UNL     1       2.658  13.467  18.965  0.00  0.00    +0.000 C 
ATOM      7  N   UNL     1      -0.031  12.437  18.237  0.00  0.00    +0.000 NA
ATOM      8  C   UNL     1      -1.370  11.894  18.466  0.00  0.00    +0.000 C 
ATOM      9  C   UNL     1      -1.553  10.536  17.797  0.00  0.00    +0.000 C 
ATOM     10  N   UNL     1      -0.381   9.662  17.832  0.00  0.00    +0.000 NA
ATOM     11  C   UNL     1       0.770  10.078  18.249  0.00  0.00    +0.000 C 
ATOM     12  N   UNL     1       1.831   9.200  18.228  0.00  0.00    +0.000 N 
ATOM     13  H   UNL     1       0.105  12.461  17.223  0.00  0.00    +0.000 HD
ATOM     14  H   UNL     1       2.666   9.387  18.767  0.00  0.00    +0.000 HD
ENDROOT
BRANCH   1  16
ATOM     15  O   UNL     1       2.503  14.922  22.499  0.00  0.00    +0.000 OA
ATOM     16  S   UNL     1       3.154  14.838  21.206  0.00  0.00    +0.000 S 
ATOM     17  O   UNL     1       3.043  15.906  20.233  0.00  0.00    +0.000 OA
BRANCH  16  18
ATOM     18  C   UNL     1       4.890  14.569  21.469  0.00  0.00    +0.000 A 
ATOM     19  C   UNL     1       5.800  15.144  20.576  0.00  0.00    +0.000 A 
ATOM     20  C   UNL     1       7.168  14.941  20.760  0.00  0.00    +0.000 A 
ATOM     21  C   UNL     1       7.617  14.174  21.837  0.00  0.00    +0.000 A 
ATOM     22 CL   UNL     1       9.303  13.908  22.048  0.00  0.00    +0.000 Cl
ATOM     23  C   UNL     1       6.709  13.619  22.742  0.00  0.00    +0.000 A 
ATOM     24  C   UNL     1       5.337  13.819  22.563  0.00  0.00    +0.000 A 
ENDBRANCH  16  18
ENDBRANCH   1  16
BRANCH  12  25
ATOM     25  C   UNL     1       1.825   7.945  17.501  0.00  0.00    +0.000 C 
BRANCH  25  26
ATOM     26  C   UNL     1       2.934   7.043  18.003  0.00  0.00    +0.000 A 
ATOM     27  C   UNL     1       2.751   6.278  19.182  0.00  0.00    +0.000 A 
ATOM     28  C   UNL     1       3.783   5.487  19.702  0.00  0.00    +0.000 A 
ATOM     29  C   UNL     1       4.988   5.493  19.038  0.00  0.00    +0.000 A 
ATOM     30  C   UNL     1       5.182   6.236  17.898  0.00  0.00    +0.000 A 
ATOM     31  C   UNL     1       4.181   7.017  17.356  0.00  0.00    +0.000 A 
ATOM     32  O   UNL     1       6.445   6.114  17.410  0.00  0.00    +0.000 OA
ATOM     33  C   UNL     1       7.029   5.219  18.381  0.00  0.00    +0.000 C 
ATOM     34  O   UNL     1       6.103   4.808  19.409  0.00  0.00    +0.000 OA
ENDBRANCH  25  26
ENDBRANCH  12  25
TORSDOF 4
ENDMDL
MODEL 6
REMARK VINA RESULT:      -8.9      5.899     11.306
REMARK  Name = 
REMARK  4 active torsions:
REMARK  status: ('A' for Active; 'I' for Inactive)
REMARK    1  A    between atoms: S_2  and  C_4
REMARK    2  A    between atoms: S_2  and  N_11
REMARK    3  A    between atoms: N_22  and  C_23
REMARK    4  A    between atoms: C_23  and  C_24
REMARK                            x       y       z     vdW  Elec       q    Type
REMARK                         _______ _______ _______ _____ _____    ______ ____
ROOT
ATOM      1  N   UNL     1      -0.931  13.320  21.773  0.00  0.00    +0.000 NA
ATOM      2  C   UNL     1      -1.803  12.114  21.628  0.00  0.00    +0.000 C 
ATOM      3  C   UNL     1      -1.162  11.100  20.683  0.00  0.00    +0.000 C 
ATOM      4  C   UNL     1      -0.867  11.699  19.293  0.00  0.00    +0.000 C 
ATOM      5  C   UNL     1       0.000  12.959  19.507  0.00  0.00    +0.000 C 
ATOM      6  C   UNL     1      -0.673  13.961  20.448  0.00  0.00    +0.000 C 
ATOM      7  N   UNL     1      -2.091  12.145  18.572  0.00  0.00    +0.000 NA
ATOM      8  C   UNL     1      -2.902  10.997  18.168  0.00  0.00    +0.000 C 
ATOM      9  C   UNL     1      -2.144  10.072  17.221  0.00  0.00    +0.000 C 
ATOM     10  N   UNL     1      -0.721   9.909  17.518  0.00  0.00    +0.000 NA
ATOM     11  C   UNL     1      -0.122  10.627  18.412  0.00  0.00    +0.000 C 
ATOM     12  N   UNL     1       1.225  10.428  18.615  0.00  0.00    +0.000 N 
ATOM     13  H   UNL     1      -1.785  12.606  17.711  0.00  0.00    +0.000 HD
ATOM     14  H   UNL     1       1.676  10.770  19.454  0.00  0.00    +0.000 HD
ENDROOT
BRANCH   1  16
ATOM     15  O   UNL     1      -1.563  15.758  22.299  0.00  0.00    +0.000 OA
ATOM     16  S   UNL     1      -1.513  14.456  22.937  0.00  0.00    +0.000 S 
ATOM     17  O   UNL     1      -0.792  14.250  24.176  0.00  0.00    +0.000 OA
BRANCH  16  18
ATOM     18  C   UNL     1      -3.179  13.908  23.221  0.00  0.00    +0.000 A 
ATOM     19  C   UNL     1      -4.188  14.358  22.362  0.00  0.00    +0.000 A 
ATOM     20  C   UNL     1      -5.505  13.946  22.570  0.00  0.00    +0.000 A 
ATOM     21  C   UNL     1      -5.802  13.081  23.625  0.00  0.00    +0.000 A 
ATOM     22 CL   UNL     1      -7.429  12.592  23.892  0.00  0.00    +0.000 Cl
ATOM     23  C   UNL     1      -4.791  12.614  24.468  0.00  0.00    +0.000 A 
ATOM     24  C   UNL     1      -3.470  13.024  24.266  0.00  0.00    +0.000 A 
ENDBRANCH  16  18
ENDBRANCH   1  16
BRANCH  12  25
ATOM     25  C   UNL     1       2.079   9.692  17.704  0.00  0.00    +0.000 C 
BRANCH  25  26
ATOM     26  C   UNL     1       2.441   8.345  18.297  0.00  0.00    +0.000 A 
ATOM     27  C   UNL     1       3.357   7.495  17.628  0.00  0.00    +0.000 A 
ATOM     28  C   UNL     1       3.658   6.219  18.122  0.00  0.00    +0.000 A 
ATOM     29  C   UNL     1       3.019   5.813  19.271  0.00  0.00    +0.000 A 
ATOM     30  C   UNL     1       2.122   6.624  19.925  0.00  0.00    +0.000 A 
ATOM     31  C   UNL     1       1.813   7.889  19.467  0.00  0.00    +0.000 A 
ATOM     32  O   UNL     1       1.593   6.027  21.025  0.00  0.00    +0.000 OA
ATOM     33  C   UNL     1       2.249   4.741  20.981  0.00  0.00    +0.000 C 
ATOM     34  O   UNL     1       3.169   4.606  19.878  0.00  0.00    +0.000 OA
ENDBRANCH  25  26
ENDBRANCH  12  25
TORSDOF 4
ENDMDL
MODEL 7
REMARK VINA RESULT:      -8.9      6.500     10.056
REMARK  Name = 
REMARK  4 active torsions:
REMARK  status: ('A' for Active; 'I' for Inactive)
REMARK    1  A    between atoms: S_2  and  C_4
REMARK    2  A    between atoms: S_2  and  N_11
REMARK    3  A    between atoms: N_22  and  C_23
REMARK    4  A    between atoms: C_23  and  C_24
REMARK                            x       y       z     vdW  Elec       q    Type
REMARK                         _______ _______ _______ _____ _____    ______ ____
ROOT
ATOM      1  N   UNL     1       1.459  12.002  19.761  0.00  0.00    +0.000 NA
ATOM      2  C   UNL     1       0.877  12.702  18.575  0.00  0.00    +0.000 C 
ATOM      3  C   UNL     1       1.847  13.755  18.046  0.00  0.00    +0.000 C 
ATOM      4  C   UNL     1       2.234  14.790  19.121  0.00  0.00    +0.000 C 
ATOM      5  C   UNL     1       2.790  14.010  20.334  0.00  0.00    +0.000 C 
ATOM      6  C   UNL     1       1.791  12.971  20.849  0.00  0.00    +0.000 C 
ATOM      7  N   UNL     1       1.076  15.580  19.622  0.00  0.00    +0.000 NA
ATOM      8  C   UNL     1       0.582  16.489  18.587  0.00  0.00    +0.000 C 
ATOM      9  C   UNL     1       1.648  17.491  18.157  0.00  0.00    +0.000 C 
ATOM     10  N   UNL     1       3.010  16.961  18.093  0.00  0.00    +0.000 NA
ATOM     11  C   UNL     1       3.306  15.780  18.530  0.00  0.00    +0.000 C 
ATOM     12  N   UNL     1       4.617  15.364  18.455  0.00  0.00    +0.000 N 
ATOM     13  H   UNL     1       1.416  16.166  20.389  0.00  0.00    +0.000 HD
ATOM     14  H   UNL     1       4.852  14.384  18.543  0.00  0.00    +0.000 HD
ENDROOT
BRANCH   1  16
ATOM     15  O   UNL     1      -0.819  10.808  19.717  0.00  0.00    +0.000 OA
ATOM     16  S   UNL     1       0.487  10.695  20.336  0.00  0.00    +0.000 S 
ATOM     17  O   UNL     1       0.636  10.615  21.775  0.00  0.00    +0.000 OA
BRANCH  16  18
ATOM     18  C   UNL     1       1.305   9.270  19.661  0.00  0.00    +0.000 A 
ATOM     19  C   UNL     1       1.495   8.154  20.484  0.00  0.00    +0.000 A 
ATOM     20  C   UNL     1       2.141   7.026  19.977  0.00  0.00    +0.000 A 
ATOM     21  C   UNL     1       2.583   7.017  18.653  0.00  0.00    +0.000 A 
ATOM     22 CL   UNL     1       3.398   5.633  18.038  0.00  0.00    +0.000 Cl
ATOM     23  C   UNL     1       2.373   8.122  17.825  0.00  0.00    +0.000 A 
ATOM     24  C   UNL     1       1.727   9.255  18.327  0.00  0.00    +0.000 A 
ENDBRANCH  16  18
ENDBRANCH   1  16
BRANCH  12  25
ATOM     25  C   UNL     1       5.733  16.254  18.200  0.00  0.00    +0.000 C 
BRANCH  25  26
ATOM     26  C   UNL     1       7.039  15.491  18.274  0.00  0.00    +0.000 A 
ATOM     27  C   UNL     1       8.221  16.142  18.708  0.00  0.00    +0.000 A 
ATOM     28  C   UNL     1       9.454  15.477  18.724  0.00  0.00    +0.000 A 
ATOM     29  C   UNL     1       9.480  14.173  18.285  0.00  0.00    +0.000 A 
ATOM     30  C   UNL     1       8.342  13.532  17.854  0.00  0.00    +0.000 A 
ATOM     31  C   UNL     1       7.113  14.158  17.837  0.00  0.00    +0.000 A 
ATOM     32  O   UNL     1       8.590  12.258  17.449  0.00  0.00    +0.000 OA
ATOM     33  C   UNL     1      10.016  12.175  17.661  0.00  0.00    +0.000 C 
ATOM     34  O   UNL     1      10.584  13.383  18.208  0.00  0.00    +0.000 OA
ENDBRANCH  25  26
ENDBRANCH  12  25
TORSDOF 4
ENDMDL
MODEL 8
REMARK VINA RESULT:      -8.9      5.555      9.189
REMARK  Name = 
REMARK  4 active torsions:
REMARK  status: ('A' for Active; 'I' for Inactive)
REMARK    1  A    between atoms: S_2  and  C_4
REMARK    2  A    between atoms: S_2  and  N_11
REMARK    3  A    between atoms: N_22  and  C_23
REMARK    4  A    between atoms: C_23  and  C_24
REMARK                            x       y       z     vdW  Elec       q    Type
REMARK                         _______ _______ _______ _____ _____    ______ ____
ROOT
ATOM      1  N   UNL     1       2.782  14.170  19.235  0.00  0.00    +0.000 NA
ATOM      2  C   UNL     1       1.415  14.352  19.812  0.00  0.00    +0.000 C 
ATOM      3  C   UNL     1       0.839  13.008  20.255  0.00  0.00    +0.000 C 
ATOM      4  C   UNL     1       0.784  11.985  19.104  0.00  0.00    +0.000 C 
ATOM      5  C   UNL     1       2.210  11.869  18.521  0.00  0.00    +0.000 C 
ATOM      6  C   UNL     1       2.756  13.227  18.075  0.00  0.00    +0.000 C 
ATOM      7  N   UNL     1      -0.098  12.407  17.982  0.00  0.00    +0.000 NA
ATOM      8  C   UNL     1      -1.503  12.380  18.388  0.00  0.00    +0.000 C 
ATOM      9  C   UNL     1      -1.948  10.980  18.798  0.00  0.00    +0.000 C 
ATOM     10  N   UNL     1      -0.949  10.198  19.524  0.00  0.00    +0.000 NA
ATOM     11  C   UNL     1       0.272  10.603  19.659  0.00  0.00    +0.000 C 
ATOM     12  N   UNL     1       1.158   9.796  20.338  0.00  0.00    +0.000 N 
ATOM     13  H   UNL     1       0.005  11.714  17.236  0.00  0.00    +0.000 HD
ATOM     14  H   UNL     1       2.032  10.169  20.684  0.00  0.00    +0.000 HD
ENDROOT
BRANCH   1  16
ATOM     15  O   UNL     1       3.270  16.609  19.891  0.00  0.00    +0.000 OA
ATOM     16  S   UNL     1       3.566  15.658  18.838  0.00  0.00    +0.000 S 
ATOM     17  O   UNL     1       3.293  15.961  17.448  0.00  0.00    +0.000 OA
BRANCH  16  18
ATOM     18  C   UNL     1       5.288  15.232  18.936  0.00  0.00    +0.000 A 
ATOM     19  C   UNL     1       5.943  14.818  17.771  0.00  0.00    +0.000 A 
ATOM     20  C   UNL     1       7.294  14.472  17.826  0.00  0.00    +0.000 A 
ATOM     21  C   UNL     1       7.981  14.552  19.039  0.00  0.00    +0.000 A 
ATOM     22 CL   UNL     1       9.640  14.104  19.107  0.00  0.00    +0.000 Cl
ATOM     23  C   UNL     1       7.333  14.987  20.197  0.00  0.00    +0.000 A 
ATOM     24  C   UNL     1       5.980  15.334  20.149  0.00  0.00    +0.000 A 
ENDBRANCH  16  18
ENDBRANCH   1  16
BRANCH  12  25
ATOM     25  C   UNL     1       0.905   8.404  20.651  0.00  0.00    +0.000 C 
BRANCH  25  26
ATOM     26  C   UNL     1       1.858   7.511  19.883  0.00  0.00    +0.000 A 
ATOM     27  C   UNL     1       2.372   7.929  18.630  0.00  0.00    +0.000 A 
ATOM     28  C   UNL     1       3.202   7.095  17.871  0.00  0.00    +0.000 A 
ATOM     29  C   UNL     1       3.489   5.848  18.377  0.00  0.00    +0.000 A 
ATOM     30  C   UNL     1       2.991   5.427  19.588  0.00  0.00    +0.000 A 
ATOM     31  C   UNL     1       2.178   6.230  20.362  0.00  0.00    +0.000 A 
ATOM     32  O   UNL     1       3.379   4.161  19.893  0.00  0.00    +0.000 OA
ATOM     33  C   UNL     1       4.167   3.827  18.730  0.00  0.00    +0.000 C 
ATOM     34  O   UNL     1       4.254   4.901  17.771  0.00  0.00    +0.000 OA
ENDBRANCH  25  26
ENDBRANCH  12  25
TORSDOF 4
ENDMDL
MODEL 9
REMARK VINA RESULT:      -8.9      5.885     11.499
REMARK  Name = 
REMARK  4 active torsions:
REMARK  status: ('A' for Active; 'I' for Inactive)
REMARK    1  A    between atoms: S_2  and  C_4
REMARK    2  A    between atoms: S_2  and  N_11
REMARK    3  A    between atoms: N_22  and  C_23
REMARK    4  A    between atoms: C_23  and  C_24
REMARK                            x       y       z     vdW  Elec       q    Type
REMARK                         _______ _______ _______ _____ _____    ______ ____
ROOT
ATOM      1  N   UNL     1      -0.936  13.498  21.643  0.00  0.00    +0.000 NA
ATOM      2  C   UNL     1      -1.889  12.357  21.484  0.00  0.00    +0.000 C 
ATOM      3  C   UNL     1      -1.280  11.269  20.602  0.00  0.00    +0.000 C 
ATOM      4  C   UNL     1      -0.869  11.800  19.214  0.00  0.00    +0.000 C 
ATOM      5  C   UNL     1       0.080  12.998  19.440  0.00  0.00    +0.000 C 
ATOM      6  C   UNL     1      -0.562  14.076  20.316  0.00  0.00    +0.000 C 
ATOM      7  N   UNL     1      -2.016  12.315  18.417  0.00  0.00    +0.000 NA
ATOM      8  C   UNL     1      -2.891  11.218  18.001  0.00  0.00    +0.000 C 
ATOM      9  C   UNL     1      -2.159  10.210  17.122  0.00  0.00    +0.000 C 
ATOM     10  N   UNL     1      -0.770   9.951  17.499  0.00  0.00    +0.000 NA
ATOM     11  C   UNL     1      -0.164  10.649  18.404  0.00  0.00    +0.000 C 
ATOM     12  N   UNL     1       1.152  10.356  18.684  0.00  0.00    +0.000 N 
ATOM     13  H   UNL     1      -1.633  12.724  17.562  0.00  0.00    +0.000 HD
ATOM     14  H   UNL     1       1.584  10.689  19.536  0.00  0.00    +0.000 HD
ENDROOT
BRANCH   1  16
ATOM     15  O   UNL     1      -1.600  15.956  22.008  0.00  0.00    +0.000 OA
ATOM     16  S   UNL     1      -1.488  14.711  22.742  0.00  0.00    +0.000 S 
ATOM     17  O   UNL     1      -0.703  14.618  23.956  0.00  0.00    +0.000 OA
BRANCH  16  18
ATOM     18  C   UNL     1      -3.125  14.153  23.151  0.00  0.00    +0.000 A 
ATOM     19  C   UNL     1      -4.208  14.669  22.431  0.00  0.00    +0.000 A 
ATOM     20  C   UNL     1      -5.503  14.250  22.740  0.00  0.00    +0.000 A 
ATOM     21  C   UNL     1      -5.705  13.314  23.756  0.00  0.00    +0.000 A 
ATOM     22 CL   UNL     1      -7.303  12.816  24.148  0.00  0.00    +0.000 Cl
ATOM     23  C   UNL     1      -4.621  12.782  24.459  0.00  0.00    +0.000 A 
ATOM     24  C   UNL     1      -3.322  13.198  24.155  0.00  0.00    +0.000 A 
ENDBRANCH  16  18
ENDBRANCH   1  16
BRANCH  12  25
ATOM     25  C   UNL     1       1.993   9.529  17.840  0.00  0.00    +0.000 C 
BRANCH  25  26
ATOM     26  C   UNL     1       2.214   8.176  18.485  0.00  0.00    +0.000 A 
ATOM     27  C   UNL     1       1.782   7.941  19.814  0.00  0.00    +0.000 A 
ATOM     28  C   UNL     1       2.032   6.721  20.454  0.00  0.00    +0.000 A 
ATOM     29  C   UNL     1       2.729   5.764  19.753  0.00  0.00    +0.000 A 
ATOM     30  C   UNL     1       3.162   5.982  18.466  0.00  0.00    +0.000 A 
ATOM     31  C   UNL     1       2.921   7.170  17.806  0.00  0.00    +0.000 A 
ATOM     32  O   UNL     1       3.843   4.918  17.963  0.00  0.00    +0.000 OA
ATOM     33  C   UNL     1       3.803   4.011  19.086  0.00  0.00    +0.000 C 
ATOM     34  O   UNL     1       3.082   4.536  20.220  0.00  0.00    +0.000 OA
ENDBRANCH  25  26
ENDBRANCH  12  25
TORSDOF 4
ENDMDL
