MODEL 1
REMARK VINA RESULT:      -8.8      0.000      0.000
REMARK  Name = 
REMARK  3 active torsions:
REMARK  status: ('A' for Active; 'I' for Inactive)
REMARK    1  A    between atoms: N_1  and  C_2
REMARK    2  A    between atoms: C_5  and  C_6
REMARK    3  A    between atoms: C_8  and  C_9
REMARK                            x       y       z     vdW  Elec       q    Type
REMARK                         _______ _______ _______ _____ _____    ______ ____
ROOT
ATOM      1  C   UNL     1       3.857   5.447  18.663  0.00  0.00    +0.000 A 
ATOM      2  N   UNL     1       3.240   6.655  18.655  0.00  0.00    +0.000 NA
ATOM      3  C   UNL     1       2.270   6.871  19.557  0.00  0.00    +0.000 A 
ATOM      4  N   UNL     1       1.830   5.949  20.425  0.00  0.00    +0.000 NA
ATOM      5  C   UNL     1       2.447   4.764  20.443  0.00  0.00    +0.000 A 
ATOM      6  C   UNL     1       2.002   3.815  21.355  0.00  0.00    +0.000 A 
ATOM      7  C   UNL     1       2.603   2.561  21.486  0.00  0.00    +0.000 A 
ATOM      8  C   UNL     1       3.708   2.254  20.710  0.00  0.00    +0.000 A 
ATOM      9  C   UNL     1       4.180   3.197  19.800  0.00  0.00    +0.000 A 
ATOM     10  C   UNL     1       3.526   4.449  19.607  0.00  0.00    +0.000 A 
ENDROOT
BRANCH   1  14
ATOM     11  C   UNL     1       6.826   5.176  15.505  0.00  0.00    +0.000 A 
ATOM     12  C   UNL     1       5.608   4.507  15.408  0.00  0.00    +0.000 A 
ATOM     13  C   UNL     1       4.670   4.563  16.449  0.00  0.00    +0.000 A 
ATOM     14  C   UNL     1       4.907   5.312  17.616  0.00  0.00    +0.000 A 
ATOM     15  C   UNL     1       6.168   5.924  17.719  0.00  0.00    +0.000 A 
ATOM     16  C   UNL     1       7.081   5.915  16.657  0.00  0.00    +0.000 A 
BRANCH  11  17
ATOM     17  N   UNL     1       7.664   5.298  14.393  0.00  0.00    +0.000 N 
ATOM     18  H   UNL     1       8.632   5.490  14.627  0.00  0.00    +0.000 HD
ATOM     19  H   UNL     1       7.308   5.916  13.672  0.00  0.00    +0.000 HD
ENDBRANCH  11  17
ENDBRANCH   1  14
BRANCH   3  20
ATOM     20  C   UNL     1       1.705   8.235  19.654  0.00  0.00    +0.000 A 
ATOM     21  C   UNL     1       1.147   8.717  20.856  0.00  0.00    +0.000 A 
ATOM     22  C   UNL     1       0.558   9.983  20.937  0.00  0.00    +0.000 A 
ATOM     23  C   UNL     1       0.516  10.805  19.815  0.00  0.00    +0.000 A 
ATOM     24  C   UNL     1       1.071  10.366  18.617  0.00  0.00    +0.000 A 
ATOM     25  C   UNL     1       1.658   9.098  18.540  0.00  0.00    +0.000 A 
ENDBRANCH   3  20
TORSDOF 3
ENDMDL
MODEL 2
REMARK VINA RESULT:      -8.7      0.063      1.004
REMARK  Name = 
REMARK  3 active torsions:
REMARK  status: ('A' for Active; 'I' for Inactive)
REMARK    1  A    between atoms: N_1  and  C_2
REMARK    2  A    between atoms: C_5  and  C_6
REMARK    3  A    between atoms: C_8  and  C_9
REMARK                            x       y       z     vdW  Elec       q    Type
REMARK                         _______ _______ _______ _____ _____    ______ ____
ROOT
ATOM      1  C   UNL     1       3.852   5.427  18.662  0.00  0.00    +0.000 A 
ATOM      2  N   UNL     1       3.229   6.632  18.652  0.00  0.00    +0.000 NA
ATOM      3  C   UNL     1       2.262   6.848  19.558  0.00  0.00    +0.000 A 
ATOM      4  N   UNL     1       1.829   5.927  20.430  0.00  0.00    +0.000 NA
ATOM      5  C   UNL     1       2.451   4.744  20.449  0.00  0.00    +0.000 A 
ATOM      6  C   UNL     1       2.013   3.797  21.366  0.00  0.00    +0.000 A 
ATOM      7  C   UNL     1       2.620   2.545  21.499  0.00  0.00    +0.000 A 
ATOM      8  C   UNL     1       3.723   2.240  20.720  0.00  0.00    +0.000 A 
ATOM      9  C   UNL     1       4.188   3.182  19.806  0.00  0.00    +0.000 A 
ATOM     10  C   UNL     1       3.528   4.431  19.610  0.00  0.00    +0.000 A 
ENDROOT
BRANCH   1  14
ATOM     11  C   UNL     1       6.811   5.159  15.496  0.00  0.00    +0.000 A 
ATOM     12  C   UNL     1       5.594   4.489  15.402  0.00  0.00    +0.000 A 
ATOM     13  C   UNL     1       4.659   4.544  16.446  0.00  0.00    +0.000 A 
ATOM     14  C   UNL     1       4.899   5.293  17.613  0.00  0.00    +0.000 A 
ATOM     15  C   UNL     1       6.160   5.906  17.711  0.00  0.00    +0.000 A 
ATOM     16  C   UNL     1       7.069   5.898  16.646  0.00  0.00    +0.000 A 
BRANCH  11  17
ATOM     17  N   UNL     1       7.646   5.282  14.381  0.00  0.00    +0.000 N 
ATOM     18  H   UNL     1       7.151   5.280  13.495  0.00  0.00    +0.000 HD
ATOM     19  H   UNL     1       8.439   4.649  14.385  0.00  0.00    +0.000 HD
ENDBRANCH  11  17
ENDBRANCH   1  14
BRANCH   3  20
ATOM     20  C   UNL     1       1.692   8.210  19.652  0.00  0.00    +0.000 A 
ATOM     21  C   UNL     1       1.687   9.083  18.544  0.00  0.00    +0.000 A 
ATOM     22  C   UNL     1       1.204  10.392  18.643  0.00  0.00    +0.000 A 
ATOM     23  C   UNL     1       0.708  10.862  19.855  0.00  0.00    +0.000 A 
ATOM     24  C   UNL     1       0.685  10.022  20.963  0.00  0.00    +0.000 A 
ATOM     25  C   UNL     1       1.170   8.713  20.860  0.00  0.00    +0.000 A 
ENDBRANCH   3  20
TORSDOF 3
ENDMDL
MODEL 3
REMARK VINA RESULT:      -8.6      0.411      1.078
REMARK  Name = 
REMARK  3 active torsions:
REMARK  status: ('A' for Active; 'I' for Inactive)
REMARK    1  A    between atoms: N_1  and  C_2
REMARK    2  A    between atoms: C_5  and  C_6
REMARK    3  A    between atoms: C_8  and  C_9
REMARK                            x       y       z     vdW  Elec       q    Type
REMARK                         _______ _______ _______ _____ _____    ______ ____
ROOT
ATOM      1  C   UNL     1       3.686   5.648  18.777  0.00  0.00    +0.000 A 
ATOM      2  N   UNL     1       3.045   6.838  18.897  0.00  0.00    +0.000 NA
ATOM      3  C   UNL     1       2.121   6.959  19.863  0.00  0.00    +0.000 A 
ATOM      4  N   UNL     1       1.746   5.962  20.675  0.00  0.00    +0.000 NA
ATOM      5  C   UNL     1       2.386   4.794  20.567  0.00  0.00    +0.000 A 
ATOM      6  C   UNL     1       2.009   3.767  21.423  0.00  0.00    +0.000 A 
ATOM      7  C   UNL     1       2.641   2.520  21.422  0.00  0.00    +0.000 A 
ATOM      8  C   UNL     1       3.708   2.301  20.568  0.00  0.00    +0.000 A 
ATOM      9  C   UNL     1       4.113   3.324  19.713  0.00  0.00    +0.000 A 
ATOM     10  C   UNL     1       3.425   4.572  19.654  0.00  0.00    +0.000 A 
ENDROOT
BRANCH   1  14
ATOM     11  C   UNL     1       6.690   5.450  15.648  0.00  0.00    +0.000 A 
ATOM     12  C   UNL     1       6.894   6.214  16.794  0.00  0.00    +0.000 A 
ATOM     13  C   UNL     1       5.903   6.310  17.782  0.00  0.00    +0.000 A 
ATOM     14  C   UNL     1       4.681   5.621  17.670  0.00  0.00    +0.000 A 
ATOM     15  C   UNL     1       4.473   4.909  16.476  0.00  0.00    +0.000 A 
ATOM     16  C   UNL     1       5.484   4.769  15.517  0.00  0.00    +0.000 A 
BRANCH  11  17
ATOM     17  N   UNL     1       7.746   5.182  14.772  0.00  0.00    +0.000 N 
ATOM     18  H   UNL     1       8.612   4.930  15.237  0.00  0.00    +0.000 HD
ATOM     19  H   UNL     1       7.881   5.888  14.056  0.00  0.00    +0.000 HD
ENDBRANCH  11  17
ENDBRANCH   1  14
BRANCH   3  20
ATOM     20  C   UNL     1       1.536   8.298  20.097  0.00  0.00    +0.000 A 
ATOM     21  C   UNL     1       1.067   8.684  21.370  0.00  0.00    +0.000 A 
ATOM     22  C   UNL     1       0.458   9.925  21.583  0.00  0.00    +0.000 A 
ATOM     23  C   UNL     1       0.306  10.818  20.527  0.00  0.00    +0.000 A 
ATOM     24  C   UNL     1       0.771  10.474  19.262  0.00  0.00    +0.000 A 
ATOM     25  C   UNL     1       1.378   9.231  19.052  0.00  0.00    +0.000 A 
ENDBRANCH   3  20
TORSDOF 3
ENDMDL
MODEL 4
REMARK VINA RESULT:      -8.6      0.423      1.473
REMARK  Name = 
REMARK  3 active torsions:
REMARK  status: ('A' for Active; 'I' for Inactive)
REMARK    1  A    between atoms: N_1  and  C_2
REMARK    2  A    between atoms: C_5  and  C_6
REMARK    3  A    between atoms: C_8  and  C_9
REMARK                            x       y       z     vdW  Elec       q    Type
REMARK                         _______ _______ _______ _____ _____    ______ ____
ROOT
ATOM      1  C   UNL     1       3.673   5.642  18.790  0.00  0.00    +0.000 A 
ATOM      2  N   UNL     1       3.030   6.831  18.910  0.00  0.00    +0.000 NA
ATOM      3  C   UNL     1       2.106   6.950  19.876  0.00  0.00    +0.000 A 
ATOM      4  N   UNL     1       1.733   5.952  20.689  0.00  0.00    +0.000 NA
ATOM      5  C   UNL     1       2.375   4.785  20.580  0.00  0.00    +0.000 A 
ATOM      6  C   UNL     1       2.001   3.757  21.436  0.00  0.00    +0.000 A 
ATOM      7  C   UNL     1       2.636   2.512  21.435  0.00  0.00    +0.000 A 
ATOM      8  C   UNL     1       3.703   2.296  20.582  0.00  0.00    +0.000 A 
ATOM      9  C   UNL     1       4.105   3.319  19.726  0.00  0.00    +0.000 A 
ATOM     10  C   UNL     1       3.415   4.565  19.667  0.00  0.00    +0.000 A 
ENDROOT
BRANCH   1  14
ATOM     11  C   UNL     1       6.679   5.452  15.662  0.00  0.00    +0.000 A 
ATOM     12  C   UNL     1       6.879   6.219  16.807  0.00  0.00    +0.000 A 
ATOM     13  C   UNL     1       5.888   6.311  17.794  0.00  0.00    +0.000 A 
ATOM     14  C   UNL     1       4.669   5.618  17.684  0.00  0.00    +0.000 A 
ATOM     15  C   UNL     1       4.464   4.904  16.491  0.00  0.00    +0.000 A 
ATOM     16  C   UNL     1       5.475   4.766  15.531  0.00  0.00    +0.000 A 
BRANCH  11  17
ATOM     17  N   UNL     1       7.735   5.187  14.786  0.00  0.00    +0.000 N 
ATOM     18  H   UNL     1       7.784   5.822  13.996  0.00  0.00    +0.000 HD
ATOM     19  H   UNL     1       7.810   4.214  14.508  0.00  0.00    +0.000 HD
ENDBRANCH  11  17
ENDBRANCH   1  14
BRANCH   3  20
ATOM     20  C   UNL     1       1.517   8.288  20.110  0.00  0.00    +0.000 A 
ATOM     21  C   UNL     1       1.381   9.225  19.065  0.00  0.00    +0.000 A 
ATOM     22  C   UNL     1       0.880  10.511  19.291  0.00  0.00    +0.000 A 
ATOM     23  C   UNL     1       0.498  10.894  20.573  0.00  0.00    +0.000 A 
ATOM     24  C   UNL     1       0.606   9.989  21.624  0.00  0.00    +0.000 A 
ATOM     25  C   UNL     1       1.108   8.704  21.393  0.00  0.00    +0.000 A 
ENDBRANCH   3  20
TORSDOF 3
ENDMDL
MODEL 5
REMARK VINA RESULT:      -8.5      1.539      6.089
REMARK  Name = 
REMARK  3 active torsions:
REMARK  status: ('A' for Active; 'I' for Inactive)
REMARK    1  A    between atoms: N_1  and  C_2
REMARK    2  A    between atoms: C_5  and  C_6
REMARK    3  A    between atoms: C_8  and  C_9
REMARK                            x       y       z     vdW  Elec       q    Type
REMARK                         _______ _______ _______ _____ _____    ______ ____
ROOT
ATOM      1  C   UNL     1       3.057   6.004  18.882  0.00  0.00    +0.000 A 
ATOM      2  N   UNL     1       3.929   5.967  17.843  0.00  0.00    +0.000 NA
ATOM      3  C   UNL     1       4.610   4.830  17.635  0.00  0.00    +0.000 A 
ATOM      4  N   UNL     1       4.531   3.750  18.424  0.00  0.00    +0.000 NA
ATOM      5  C   UNL     1       3.663   3.780  19.439  0.00  0.00    +0.000 A 
ATOM      6  C   UNL     1       3.569   2.653  20.246  0.00  0.00    +0.000 A 
ATOM      7  C   UNL     1       2.664   2.564  21.307  0.00  0.00    +0.000 A 
ATOM      8  C   UNL     1       1.798   3.616  21.550  0.00  0.00    +0.000 A 
ATOM      9  C   UNL     1       1.866   4.749  20.744  0.00  0.00    +0.000 A 
ATOM     10  C   UNL     1       2.836   4.879  19.708  0.00  0.00    +0.000 A 
ENDROOT
BRANCH   1  14
ATOM     11  C   UNL     1       0.886   9.749  19.227  0.00  0.00    +0.000 A 
ATOM     12  C   UNL     1       1.426   9.339  18.010  0.00  0.00    +0.000 A 
ATOM     13  C   UNL     1       2.164   8.150  17.913  0.00  0.00    +0.000 A 
ATOM     14  C   UNL     1       2.365   7.314  19.027  0.00  0.00    +0.000 A 
ATOM     15  C   UNL     1       1.866   7.781  20.255  0.00  0.00    +0.000 A 
ATOM     16  C   UNL     1       1.083   8.938  20.341  0.00  0.00    +0.000 A 
BRANCH  11  17
ATOM     17  N   UNL     1      -0.021  10.811  19.283  0.00  0.00    +0.000 N 
ATOM     18  H   UNL     1      -0.228  11.223  18.379  0.00  0.00    +0.000 HD
ATOM     19  H   UNL     1       0.200  11.508  19.986  0.00  0.00    +0.000 HD
ENDBRANCH  11  17
ENDBRANCH   1  14
BRANCH   3  20
ATOM     20  C   UNL     1       5.441   4.734  16.414  0.00  0.00    +0.000 A 
ATOM     21  C   UNL     1       6.757   5.240  16.378  0.00  0.00    +0.000 A 
ATOM     22  C   UNL     1       7.526   5.206  15.210  0.00  0.00    +0.000 A 
ATOM     23  C   UNL     1       6.999   4.659  14.045  0.00  0.00    +0.000 A 
ATOM     24  C   UNL     1       5.709   4.138  14.050  0.00  0.00    +0.000 A 
ATOM     25  C   UNL     1       4.943   4.175  15.220  0.00  0.00    +0.000 A 
ENDBRANCH   3  20
TORSDOF 3
ENDMDL
MODEL 6
REMARK VINA RESULT:      -8.5      1.541      6.131
REMARK  Name = 
REMARK  3 active torsions:
REMARK  status: ('A' for Active; 'I' for Inactive)
REMARK    1  A    between atoms: N_1  and  C_2
REMARK    2  A    between atoms: C_5  and  C_6
REMARK    3  A    between atoms: C_8  and  C_9
REMARK                            x       y       z     vdW  Elec       q    Type
REMARK                         _______ _______ _______ _____ _____    ______ ____
ROOT
ATOM      1  C   UNL     1       3.024   6.075  18.865  0.00  0.00    +0.000 A 
ATOM      2  N   UNL     1       3.892   6.054  17.822  0.00  0.00    +0.000 NA
ATOM      3  C   UNL     1       4.576   4.922  17.597  0.00  0.00    +0.000 A 
ATOM      4  N   UNL     1       4.505   3.832  18.373  0.00  0.00    +0.000 NA
ATOM      5  C   UNL     1       3.641   3.847  19.392  0.00  0.00    +0.000 A 
ATOM      6  C   UNL     1       3.554   2.710  20.185  0.00  0.00    +0.000 A 
ATOM      7  C   UNL     1       2.654   2.604  21.249  0.00  0.00    +0.000 A 
ATOM      8  C   UNL     1       1.785   3.649  21.509  0.00  0.00    +0.000 A 
ATOM      9  C   UNL     1       1.844   4.793  20.715  0.00  0.00    +0.000 A 
ATOM     10  C   UNL     1       2.810   4.939  19.677  0.00  0.00    +0.000 A 
ENDROOT
BRANCH   1  14
ATOM     11  C   UNL     1       0.838   9.806  19.263  0.00  0.00    +0.000 A 
ATOM     12  C   UNL     1       1.369   9.410  18.038  0.00  0.00    +0.000 A 
ATOM     13  C   UNL     1       2.111   8.226  17.924  0.00  0.00    +0.000 A 
ATOM     14  C   UNL     1       2.326   7.380  19.028  0.00  0.00    +0.000 A 
ATOM     15  C   UNL     1       1.836   7.833  20.264  0.00  0.00    +0.000 A 
ATOM     16  C   UNL     1       1.048   8.986  20.368  0.00  0.00    +0.000 A 
BRANCH  11  17
ATOM     17  N   UNL     1      -0.074  10.863  19.338  0.00  0.00    +0.000 N 
ATOM     18  H   UNL     1      -0.980  10.654  18.931  0.00  0.00    +0.000 HD
ATOM     19  H   UNL     1       0.297  11.754  19.023  0.00  0.00    +0.000 HD
ENDBRANCH  11  17
ENDBRANCH   1  14
BRANCH   3  20
ATOM     20  C   UNL     1       5.403   4.845  16.372  0.00  0.00    +0.000 A 
ATOM     21  C   UNL     1       4.908   4.264  15.186  0.00  0.00    +0.000 A 
ATOM     22  C   UNL     1       5.704   4.134  14.044  0.00  0.00    +0.000 A 
ATOM     23  C   UNL     1       7.020   4.586  14.056  0.00  0.00    +0.000 A 
ATOM     24  C   UNL     1       7.535   5.177  15.205  0.00  0.00    +0.000 A 
ATOM     25  C   UNL     1       6.735   5.305  16.346  0.00  0.00    +0.000 A 
ENDBRANCH   3  20
TORSDOF 3
ENDMDL
MODEL 7
REMARK VINA RESULT:      -8.4      1.521      6.094
REMARK  Name = 
REMARK  3 active torsions:
REMARK  status: ('A' for Active; 'I' for Inactive)
REMARK    1  A    between atoms: N_1  and  C_2
REMARK    2  A    between atoms: C_5  and  C_6
REMARK    3  A    between atoms: C_8  and  C_9
REMARK                            x       y       z     vdW  Elec       q    Type
REMARK                         _______ _______ _______ _____ _____    ______ ____
ROOT
ATOM      1  C   UNL     1       3.023   5.969  18.892  0.00  0.00    +0.000 A 
ATOM      2  N   UNL     1       3.912   5.944  17.868  0.00  0.00    +0.000 NA
ATOM      3  C   UNL     1       4.620   4.820  17.679  0.00  0.00    +0.000 A 
ATOM      4  N   UNL     1       4.552   3.744  18.475  0.00  0.00    +0.000 NA
ATOM      5  C   UNL     1       3.667   3.762  19.476  0.00  0.00    +0.000 A 
ATOM      6  C   UNL     1       3.584   2.639  20.289  0.00  0.00    +0.000 A 
ATOM      7  C   UNL     1       2.664   2.538  21.336  0.00  0.00    +0.000 A 
ATOM      8  C   UNL     1       1.772   3.573  21.558  0.00  0.00    +0.000 A 
ATOM      9  C   UNL     1       1.828   4.702  20.744  0.00  0.00    +0.000 A 
ATOM     10  C   UNL     1       2.812   4.846  19.723  0.00  0.00    +0.000 A 
ENDROOT
BRANCH   1  14
ATOM     11  C   UNL     1       1.066   9.821  19.333  0.00  0.00    +0.000 A 
ATOM     12  C   UNL     1       1.200   8.953  20.414  0.00  0.00    +0.000 A 
ATOM     13  C   UNL     1       1.794   7.693  20.257  0.00  0.00    +0.000 A 
ATOM     14  C   UNL     1       2.300   7.264  19.016  0.00  0.00    +0.000 A 
ATOM     15  C   UNL     1       2.095   8.130  17.928  0.00  0.00    +0.000 A 
ATOM     16  C   UNL     1       1.553   9.410  18.096  0.00  0.00    +0.000 A 
BRANCH  11  17
ATOM     17  N   UNL     1       0.674  11.148  19.527  0.00  0.00    +0.000 N 
ATOM     18  H   UNL     1       1.355  11.709  20.027  0.00  0.00    +0.000 HD
ATOM     19  H   UNL     1      -0.265  11.253  19.899  0.00  0.00    +0.000 HD
ENDBRANCH  11  17
ENDBRANCH   1  14
BRANCH   3  20
ATOM     20  C   UNL     1       5.473   4.733  16.472  0.00  0.00    +0.000 A 
ATOM     21  C   UNL     1       6.784   5.253  16.459  0.00  0.00    +0.000 A 
ATOM     22  C   UNL     1       7.573   5.227  15.305  0.00  0.00    +0.000 A 
ATOM     23  C   UNL     1       7.072   4.676  14.130  0.00  0.00    +0.000 A 
ATOM     24  C   UNL     1       5.787   4.141  14.113  0.00  0.00    +0.000 A 
ATOM     25  C   UNL     1       5.001   4.169  15.270  0.00  0.00    +0.000 A 
ENDBRANCH   3  20
TORSDOF 3
ENDMDL
MODEL 8
REMARK VINA RESULT:      -8.4      1.524      6.135
REMARK  Name = 
REMARK  3 active torsions:
REMARK  status: ('A' for Active; 'I' for Inactive)
REMARK    1  A    between atoms: N_1  and  C_2
REMARK    2  A    between atoms: C_5  and  C_6
REMARK    3  A    between atoms: C_8  and  C_9
REMARK                            x       y       z     vdW  Elec       q    Type
REMARK                         _______ _______ _______ _____ _____    ______ ____
ROOT
ATOM      1  C   UNL     1       3.013   6.022  18.895  0.00  0.00    +0.000 A 
ATOM      2  N   UNL     1       3.881   6.018  17.852  0.00  0.00    +0.000 NA
ATOM      3  C   UNL     1       4.596   4.904  17.635  0.00  0.00    +0.000 A 
ATOM      4  N   UNL     1       4.555   3.818  18.418  0.00  0.00    +0.000 NA
ATOM      5  C   UNL     1       3.691   3.816  19.438  0.00  0.00    +0.000 A 
ATOM      6  C   UNL     1       3.637   2.682  20.239  0.00  0.00    +0.000 A 
ATOM      7  C   UNL     1       2.740   2.559  21.304  0.00  0.00    +0.000 A 
ATOM      8  C   UNL     1       1.843   3.582  21.557  0.00  0.00    +0.000 A 
ATOM      9  C   UNL     1       1.870   4.721  20.756  0.00  0.00    +0.000 A 
ATOM     10  C   UNL     1       2.832   4.887  19.716  0.00  0.00    +0.000 A 
ENDROOT
BRANCH   1  14
ATOM     11  C   UNL     1       1.026   9.847  19.427  0.00  0.00    +0.000 A 
ATOM     12  C   UNL     1       1.175   8.959  20.489  0.00  0.00    +0.000 A 
ATOM     13  C   UNL     1       1.779   7.707  20.303  0.00  0.00    +0.000 A 
ATOM     14  C   UNL     1       2.280   7.309  19.050  0.00  0.00    +0.000 A 
ATOM     15  C   UNL     1       2.060   8.194  17.981  0.00  0.00    +0.000 A 
ATOM     16  C   UNL     1       1.509   9.466  18.178  0.00  0.00    +0.000 A 
BRANCH  11  17
ATOM     17  N   UNL     1       0.624  11.167  19.650  0.00  0.00    +0.000 N 
ATOM     18  H   UNL     1       0.810  11.500  20.591  0.00  0.00    +0.000 HD
ATOM     19  H   UNL     1      -0.323  11.369  19.347  0.00  0.00    +0.000 HD
ENDBRANCH  11  17
ENDBRANCH   1  14
BRANCH   3  20
ATOM     20  C   UNL     1       5.424   4.841  16.409  0.00  0.00    +0.000 A 
ATOM     21  C   UNL     1       4.944   4.239  15.228  0.00  0.00    +0.000 A 
ATOM     22  C   UNL     1       5.743   4.123  14.086  0.00  0.00    +0.000 A 
ATOM     23  C   UNL     1       7.046   4.611  14.094  0.00  0.00    +0.000 A 
ATOM     24  C   UNL     1       7.546   5.224  15.239  0.00  0.00    +0.000 A 
ATOM     25  C   UNL     1       6.743   5.337  16.380  0.00  0.00    +0.000 A 
ENDBRANCH   3  20
TORSDOF 3
ENDMDL
MODEL 9
REMARK VINA RESULT:      -8.3      1.855      6.258
REMARK  Name = 
REMARK  3 active torsions:
REMARK  status: ('A' for Active; 'I' for Inactive)
REMARK    1  A    between atoms: N_1  and  C_2
REMARK    2  A    between atoms: C_5  and  C_6
REMARK    3  A    between atoms: C_8  and  C_9
REMARK                            x       y       z     vdW  Elec       q    Type
REMARK                         _______ _______ _______ _____ _____    ______ ____
ROOT
ATOM      1  C   UNL     1       2.894   5.680  18.244  0.00  0.00    +0.000 A 
ATOM      2  N   UNL     1       3.887   5.742  17.321  0.00  0.00    +0.000 NA
ATOM      3  C   UNL     1       4.403   4.586  16.875  0.00  0.00    +0.000 A 
ATOM      4  N   UNL     1       4.045   3.377  17.328  0.00  0.00    +0.000 NA
ATOM      5  C   UNL     1       3.058   3.314  18.227  0.00  0.00    +0.000 A 
ATOM      6  C   UNL     1       2.675   2.059  18.683  0.00  0.00    +0.000 A 
ATOM      7  C   UNL     1       1.627   1.878  19.589  0.00  0.00    +0.000 A 
ATOM      8  C   UNL     1       0.912   2.979  20.028  0.00  0.00    +0.000 A 
ATOM      9  C   UNL     1       1.269   4.245  19.572  0.00  0.00    +0.000 A 
ATOM     10  C   UNL     1       2.385   4.446  18.706  0.00  0.00    +0.000 A 
ENDROOT
BRANCH   1  14
ATOM     11  C   UNL     1       1.295   9.541  19.426  0.00  0.00    +0.000 A 
ATOM     12  C   UNL     1       1.686   9.295  18.112  0.00  0.00    +0.000 A 
ATOM     13  C   UNL     1       2.242   8.061  17.744  0.00  0.00    +0.000 A 
ATOM     14  C   UNL     1       2.403   7.018  18.675  0.00  0.00    +0.000 A 
ATOM     15  C   UNL     1       2.061   7.312  20.006  0.00  0.00    +0.000 A 
ATOM     16  C   UNL     1       1.455   8.523  20.361  0.00  0.00    +0.000 A 
BRANCH  11  17
ATOM     17  N   UNL     1       0.552  10.679  19.748  0.00  0.00    +0.000 N 
ATOM     18  H   UNL     1      -0.440  10.592  19.551  0.00  0.00    +0.000 HD
ATOM     19  H   UNL     1       0.943  11.545  19.392  0.00  0.00    +0.000 HD
ENDBRANCH  11  17
ENDBRANCH   1  14
BRANCH   3  20
ATOM     20  C   UNL     1       5.372   4.646  15.758  0.00  0.00    +0.000 A 
ATOM     21  C   UNL     1       5.152   3.944  14.555  0.00  0.00    +0.000 A 
ATOM     22  C   UNL     1       6.092   3.948  13.520  0.00  0.00    +0.000 A 
ATOM     23  C   UNL     1       7.279   4.660  13.659  0.00  0.00    +0.000 A 
ATOM     24  C   UNL     1       7.521   5.375  14.828  0.00  0.00    +0.000 A 
ATOM     25  C   UNL     1       6.579   5.367  15.862  0.00  0.00    +0.000 A 
ENDBRANCH   3  20
TORSDOF 3
ENDMDL
