MODEL 1
REMARK VINA RESULT:      -8.2      0.000      0.000
REMARK  Name = 
REMARK  8 active torsions:
REMARK  status: ('A' for Active; 'I' for Inactive)
REMARK    1  A    between atoms: C_1  and  N_2
REMARK    2  A    between atoms: C_5  and  C_6
REMARK    3  A    between atoms: C_6  and  C_7
REMARK    4  A    between atoms: C_7  and  C_8
REMARK    5  A    between atoms: C_8  and  O_9
REMARK    6  A    between atoms: O_9  and  C_10
REMARK    7  A    between atoms: C_10  and  C_11
REMARK    8  A    between atoms: C_10  and  C_17
REMARK                            x       y       z     vdW  Elec       q    Type
REMARK                         _______ _______ _______ _____ _____    ______ ____
ROOT
ATOM      1  C   UNL     1       3.631   5.992  17.982  0.00  0.00    +0.000 C 
ENDROOT
BRANCH   1   2
ATOM      2  C   UNL     1       2.774   7.083  18.594  0.00  0.00    +0.000 A 
ATOM      3  N   UNL     1       2.364   6.990  19.845  0.00  0.00    +0.000 NA
ATOM      4  C   UNL     1       1.628   8.096  20.197  0.00  0.00    +0.000 A 
ATOM      5  C   UNL     1       1.095   8.330  21.480  0.00  0.00    +0.000 A 
ATOM      6  C   UNL     1       0.374   9.498  21.729  0.00  0.00    +0.000 A 
ATOM      7  C   UNL     1       0.161  10.416  20.706  0.00  0.00    +0.000 A 
ATOM      8  C   UNL     1       0.672  10.201  19.417  0.00  0.00    +0.000 A 
ATOM      9  C   UNL     1       1.425   9.030  19.187  0.00  0.00    +0.000 A 
ATOM     10  S   UNL     1       2.227   8.482  17.757  0.00  0.00    +0.000 S 
ENDBRANCH   1   2
BRANCH   1  11
ATOM     11  C   UNL     1       3.017   4.608  18.106  0.00  0.00    +0.000 A 
ATOM     12  C   UNL     1       1.629   4.404  18.101  0.00  0.00    +0.000 A 
ATOM     13  C   UNL     1       1.107   3.131  18.339  0.00  0.00    +0.000 A 
ATOM     14  C   UNL     1       1.960   2.055  18.580  0.00  0.00    +0.000 A 
ATOM     15  C   UNL     1       3.340   2.240  18.560  0.00  0.00    +0.000 A 
ATOM     16  C   UNL     1       3.864   3.506  18.315  0.00  0.00    +0.000 A 
ENDBRANCH   1  11
BRANCH   1  17
ATOM     17  O   UNL     1       4.985   6.029  18.468  0.00  0.00    +0.000 OA
BRANCH  17  18
ATOM     18  C   UNL     1       5.927   6.566  17.521  0.00  0.00    +0.000 C 
BRANCH  18  19
ATOM     19  C   UNL     1       7.356   6.039  17.680  0.00  0.00    +0.000 C 
BRANCH  19  20
ATOM     20  C   UNL     1       7.488   4.612  17.150  0.00  0.00    +0.000 C 
BRANCH  20  25
ATOM     21  C   UNL     1       5.234   3.499  12.827  0.00  0.00    +0.000 C 
ATOM     22  N   UNL     1       6.129   4.022  13.826  0.00  0.00    +0.000 N 
ATOM     23  C   UNL     1       7.148   4.901  13.618  0.00  0.00    +0.000 A 
ATOM     24  N   UNL     1       7.755   5.207  14.743  0.00  0.00    +0.000 NA
ATOM     25  C   UNL     1       7.099   4.493  15.720  0.00  0.00    +0.000 A 
ATOM     26  C   UNL     1       6.088   3.738  15.161  0.00  0.00    +0.000 A 
ENDBRANCH  20  25
ENDBRANCH  19  20
ENDBRANCH  18  19
ENDBRANCH  17  18
ENDBRANCH   1  17
TORSDOF 7
ENDMDL
MODEL 2
REMARK VINA RESULT:      -8.0      0.934      1.370
REMARK  Name = 
REMARK  8 active torsions:
REMARK  status: ('A' for Active; 'I' for Inactive)
REMARK    1  A    between atoms: C_1  and  N_2
REMARK    2  A    between atoms: C_5  and  C_6
REMARK    3  A    between atoms: C_6  and  C_7
REMARK    4  A    between atoms: C_7  and  C_8
REMARK    5  A    between atoms: C_8  and  O_9
REMARK    6  A    between atoms: O_9  and  C_10
REMARK    7  A    between atoms: C_10  and  C_11
REMARK    8  A    between atoms: C_10  and  C_17
REMARK                            x       y       z     vdW  Elec       q    Type
REMARK                         _______ _______ _______ _____ _____    ______ ____
ROOT
ATOM      1  C   UNL     1       3.433   5.866  18.070  0.00  0.00    +0.000 C 
ENDROOT
BRANCH   1   2
ATOM      2  C   UNL     1       2.635   7.004  18.676  0.00  0.00    +0.000 A 
ATOM      3  N   UNL     1       2.366   8.085  17.967  0.00  0.00    +0.000 NA
ATOM      4  C   UNL     1       1.612   8.970  18.700  0.00  0.00    +0.000 A 
ATOM      5  C   UNL     1       1.113  10.194  18.214  0.00  0.00    +0.000 A 
ATOM      6  C   UNL     1       0.344  11.008  19.045  0.00  0.00    +0.000 A 
ATOM      7  C   UNL     1       0.094  10.624  20.358  0.00  0.00    +0.000 A 
ATOM      8  C   UNL     1       0.589   9.416  20.870  0.00  0.00    +0.000 A 
ATOM      9  C   UNL     1       1.339   8.587  20.009  0.00  0.00    +0.000 A 
ATOM     10  S   UNL     1       2.049   7.036  20.292  0.00  0.00    +0.000 S 
ENDBRANCH   1   2
BRANCH   1  11
ATOM     11  C   UNL     1       2.872   4.495  18.410  0.00  0.00    +0.000 A 
ATOM     12  C   UNL     1       1.592   4.091  18.004  0.00  0.00    +0.000 A 
ATOM     13  C   UNL     1       1.071   2.871  18.441  0.00  0.00    +0.000 A 
ATOM     14  C   UNL     1       1.819   2.047  19.282  0.00  0.00    +0.000 A 
ATOM     15  C   UNL     1       3.101   2.426  19.669  0.00  0.00    +0.000 A 
ATOM     16  C   UNL     1       3.627   3.637  19.229  0.00  0.00    +0.000 A 
ENDBRANCH   1  11
BRANCH   1  17
ATOM     17  O   UNL     1       4.836   5.967  18.371  0.00  0.00    +0.000 OA
BRANCH  17  18
ATOM     18  C   UNL     1       5.585   6.720  17.401  0.00  0.00    +0.000 C 
BRANCH  18  19
ATOM     19  C   UNL     1       7.052   6.301  17.265  0.00  0.00    +0.000 C 
BRANCH  19  20
ATOM     20  C   UNL     1       7.178   4.831  16.868  0.00  0.00    +0.000 C 
BRANCH  20  25
ATOM     21  C   UNL     1       5.687   3.305  12.345  0.00  0.00    +0.000 C 
ATOM     22  N   UNL     1       6.369   3.965  13.427  0.00  0.00    +0.000 N 
ATOM     23  C   UNL     1       7.302   4.951  13.311  0.00  0.00    +0.000 A 
ATOM     24  N   UNL     1       7.708   5.367  14.490  0.00  0.00    +0.000 NA
ATOM     25  C   UNL     1       7.007   4.615  15.406  0.00  0.00    +0.000 A 
ATOM     26  C   UNL     1       6.176   3.727  14.757  0.00  0.00    +0.000 A 
ENDBRANCH  20  25
ENDBRANCH  19  20
ENDBRANCH  18  19
ENDBRANCH  17  18
ENDBRANCH   1  17
TORSDOF 7
ENDMDL
MODEL 3
REMARK VINA RESULT:      -7.8      1.385      1.638
REMARK  Name = 
REMARK  8 active torsions:
REMARK  status: ('A' for Active; 'I' for Inactive)
REMARK    1  A    between atoms: C_1  and  N_2
REMARK    2  A    between atoms: C_5  and  C_6
REMARK    3  A    between atoms: C_6  and  C_7
REMARK    4  A    between atoms: C_7  and  C_8
REMARK    5  A    between atoms: C_8  and  O_9
REMARK    6  A    between atoms: O_9  and  C_10
REMARK    7  A    between atoms: C_10  and  C_11
REMARK    8  A    between atoms: C_10  and  C_17
REMARK                            x       y       z     vdW  Elec       q    Type
REMARK                         _______ _______ _______ _____ _____    ______ ____
ROOT
ATOM      1  C   UNL     1       3.255   6.001  18.862  0.00  0.00    +0.000 C 
ENDROOT
BRANCH   1   2
ATOM      2  C   UNL     1       2.468   7.283  19.054  0.00  0.00    +0.000 A 
ATOM      3  N   UNL     1       1.946   7.578  20.231  0.00  0.00    +0.000 NA
ATOM      4  C   UNL     1       1.304   8.792  20.184  0.00  0.00    +0.000 A 
ATOM      5  C   UNL     1       0.691   9.418  21.286  0.00  0.00    +0.000 A 
ATOM      6  C   UNL     1       0.079  10.662  21.126  0.00  0.00    +0.000 A 
ATOM      7  C   UNL     1       0.052  11.268  19.875  0.00  0.00    +0.000 A 
ATOM      8  C   UNL     1       0.645  10.660  18.759  0.00  0.00    +0.000 A 
ATOM      9  C   UNL     1       1.287   9.418  18.941  0.00  0.00    +0.000 A 
ATOM     10  S   UNL     1       2.145   8.428  17.813  0.00  0.00    +0.000 S 
ENDBRANCH   1   2
BRANCH   1  11
ATOM     11  C   UNL     1       2.437   4.751  19.138  0.00  0.00    +0.000 A 
ATOM     12  C   UNL     1       1.905   3.963  18.106  0.00  0.00    +0.000 A 
ATOM     13  C   UNL     1       1.060   2.893  18.406  0.00  0.00    +0.000 A 
ATOM     14  C   UNL     1       0.739   2.599  19.731  0.00  0.00    +0.000 A 
ATOM     15  C   UNL     1       1.282   3.357  20.765  0.00  0.00    +0.000 A 
ATOM     16  C   UNL     1       2.132   4.420  20.470  0.00  0.00    +0.000 A 
ENDBRANCH   1  11
BRANCH   1  17
ATOM     17  O   UNL     1       4.494   6.010  19.593  0.00  0.00    +0.000 OA
BRANCH  17  18
ATOM     18  C   UNL     1       5.413   4.979  19.188  0.00  0.00    +0.000 C 
BRANCH  18  19
ATOM     19  C   UNL     1       6.882   5.414  19.160  0.00  0.00    +0.000 C 
BRANCH  19  20
ATOM     20  C   UNL     1       7.148   6.408  18.031  0.00  0.00    +0.000 C 
BRANCH  20  25
ATOM     21  C   UNL     1       6.220   3.831  13.846  0.00  0.00    +0.000 C 
ATOM     22  N   UNL     1       6.219   4.824  14.889  0.00  0.00    +0.000 N 
ATOM     23  C   UNL     1       5.404   5.912  14.966  0.00  0.00    +0.000 A 
ATOM     24  N   UNL     1       5.632   6.604  16.060  0.00  0.00    +0.000 NA
ATOM     25  C   UNL     1       6.639   5.934  16.716  0.00  0.00    +0.000 A 
ATOM     26  C   UNL     1       7.025   4.826  15.990  0.00  0.00    +0.000 A 
ENDBRANCH  20  25
ENDBRANCH  19  20
ENDBRANCH  18  19
ENDBRANCH  17  18
ENDBRANCH   1  17
TORSDOF 7
ENDMDL
MODEL 4
REMARK VINA RESULT:      -7.7      2.683      8.107
REMARK  Name = 
REMARK  8 active torsions:
REMARK  status: ('A' for Active; 'I' for Inactive)
REMARK    1  A    between atoms: C_1  and  N_2
REMARK    2  A    between atoms: C_5  and  C_6
REMARK    3  A    between atoms: C_6  and  C_7
REMARK    4  A    between atoms: C_7  and  C_8
REMARK    5  A    between atoms: C_8  and  O_9
REMARK    6  A    between atoms: O_9  and  C_10
REMARK    7  A    between atoms: C_10  and  C_11
REMARK    8  A    between atoms: C_10  and  C_17
REMARK                            x       y       z     vdW  Elec       q    Type
REMARK                         _______ _______ _______ _____ _____    ______ ____
ROOT
ATOM      1  C   UNL     1       2.982   6.087  19.540  0.00  0.00    +0.000 C 
ENDROOT
BRANCH   1   2
ATOM      2  C   UNL     1       4.101   5.725  18.584  0.00  0.00    +0.000 A 
ATOM      3  N   UNL     1       3.926   5.826  17.279  0.00  0.00    +0.000 NA
ATOM      4  C   UNL     1       5.073   5.476  16.608  0.00  0.00    +0.000 A 
ATOM      5  C   UNL     1       5.233   5.530  15.210  0.00  0.00    +0.000 A 
ATOM      6  C   UNL     1       6.451   5.163  14.637  0.00  0.00    +0.000 A 
ATOM      7  C   UNL     1       7.495   4.720  15.442  0.00  0.00    +0.000 A 
ATOM      8  C   UNL     1       7.356   4.646  16.836  0.00  0.00    +0.000 A 
ATOM      9  C   UNL     1       6.131   5.049  17.405  0.00  0.00    +0.000 A 
ATOM     10  S   UNL     1       5.642   5.130  19.062  0.00  0.00    +0.000 S 
ENDBRANCH   1   2
BRANCH   1  11
ATOM     11  C   UNL     1       2.262   4.874  20.106  0.00  0.00    +0.000 A 
ATOM     12  C   UNL     1       2.520   4.387  21.396  0.00  0.00    +0.000 A 
ATOM     13  C   UNL     1       1.925   3.199  21.828  0.00  0.00    +0.000 A 
ATOM     14  C   UNL     1       1.071   2.492  20.982  0.00  0.00    +0.000 A 
ATOM     15  C   UNL     1       0.787   2.980  19.710  0.00  0.00    +0.000 A 
ATOM     16  C   UNL     1       1.372   4.167  19.279  0.00  0.00    +0.000 A 
ENDBRANCH   1  11
BRANCH   1  17
ATOM     17  O   UNL     1       2.068   7.041  18.971  0.00  0.00    +0.000 OA
BRANCH  17  18
ATOM     18  C   UNL     1       1.872   8.213  19.782  0.00  0.00    +0.000 C 
BRANCH  18  19
ATOM     19  C   UNL     1       1.046   7.977  21.050  0.00  0.00    +0.000 C 
BRANCH  19  20
ATOM     20  C   UNL     1       1.397   8.987  22.142  0.00  0.00    +0.000 C 
BRANCH  20  25
ATOM     21  C   UNL     1      -2.479  11.939  23.273  0.00  0.00    +0.000 C 
ATOM     22  N   UNL     1      -1.265  11.401  22.715  0.00  0.00    +0.000 N 
ATOM     23  C   UNL     1      -0.389  12.058  21.904  0.00  0.00    +0.000 A 
ATOM     24  N   UNL     1       0.638  11.298  21.595  0.00  0.00    +0.000 NA
ATOM     25  C   UNL     1       0.414  10.100  22.232  0.00  0.00    +0.000 A 
ATOM     26  C   UNL     1      -0.777  10.144  22.926  0.00  0.00    +0.000 A 
ENDBRANCH  20  25
ENDBRANCH  19  20
ENDBRANCH  18  19
ENDBRANCH  17  18
ENDBRANCH   1  17
TORSDOF 7
ENDMDL
MODEL 5
REMARK VINA RESULT:      -7.7      4.277      7.926
REMARK  Name = 
REMARK  8 active torsions:
REMARK  status: ('A' for Active; 'I' for Inactive)
REMARK    1  A    between atoms: C_1  and  N_2
REMARK    2  A    between atoms: C_5  and  C_6
REMARK    3  A    between atoms: C_6  and  C_7
REMARK    4  A    between atoms: C_7  and  C_8
REMARK    5  A    between atoms: C_8  and  O_9
REMARK    6  A    between atoms: O_9  and  C_10
REMARK    7  A    between atoms: C_10  and  C_11
REMARK    8  A    between atoms: C_10  and  C_17
REMARK                            x       y       z     vdW  Elec       q    Type
REMARK                         _______ _______ _______ _____ _____    ______ ____
ROOT
ATOM      1  C   UNL     1       6.364   6.254  17.279  0.00  0.00    +0.000 C 
ENDROOT
BRANCH   1   2
ATOM      2  C   UNL     1       6.321   5.490  15.970  0.00  0.00    +0.000 A 
ATOM      3  N   UNL     1       7.170   5.776  15.000  0.00  0.00    +0.000 NA
ATOM      4  C   UNL     1       6.970   4.947  13.923  0.00  0.00    +0.000 A 
ATOM      5  C   UNL     1       7.748   4.956  12.748  0.00  0.00    +0.000 A 
ATOM      6  C   UNL     1       7.463   4.056  11.721  0.00  0.00    +0.000 A 
ATOM      7  C   UNL     1       6.398   3.171  11.846  0.00  0.00    +0.000 A 
ATOM      8  C   UNL     1       5.601   3.150  13.000  0.00  0.00    +0.000 A 
ATOM      9  C   UNL     1       5.919   4.043  14.044  0.00  0.00    +0.000 A 
ATOM     10  S   UNL     1       5.189   4.250  15.597  0.00  0.00    +0.000 S 
ENDBRANCH   1   2
BRANCH   1  11
ATOM     11  C   UNL     1       5.061   6.180  18.057  0.00  0.00    +0.000 A 
ATOM     12  C   UNL     1       4.886   5.304  19.139  0.00  0.00    +0.000 A 
ATOM     13  C   UNL     1       3.634   5.183  19.747  0.00  0.00    +0.000 A 
ATOM     14  C   UNL     1       2.552   5.931  19.285  0.00  0.00    +0.000 A 
ATOM     15  C   UNL     1       2.721   6.824  18.230  0.00  0.00    +0.000 A 
ATOM     16  C   UNL     1       3.969   6.953  17.627  0.00  0.00    +0.000 A 
ENDBRANCH   1  11
BRANCH   1  17
ATOM     17  O   UNL     1       6.813   7.609  17.103  0.00  0.00    +0.000 OA
BRANCH  17  18
ATOM     18  C   UNL     1       7.931   7.963  17.937  0.00  0.00    +0.000 C 
BRANCH  18  19
ATOM     19  C   UNL     1       8.294   9.451  17.915  0.00  0.00    +0.000 C 
BRANCH  19  20
ATOM     20  C   UNL     1       9.171   9.829  19.108  0.00  0.00    +0.000 C 
BRANCH  20  25
ATOM     21  C   UNL     1      10.248  14.618  18.150  0.00  0.00    +0.000 C 
ATOM     22  N   UNL     1      10.327  13.230  18.526  0.00  0.00    +0.000 N 
ATOM     23  C   UNL     1      11.405  12.601  19.072  0.00  0.00    +0.000 A 
ATOM     24  N   UNL     1      11.142  11.340  19.331  0.00  0.00    +0.000 NA
ATOM     25  C   UNL     1       9.839  11.146  18.934  0.00  0.00    +0.000 A 
ATOM     26  C   UNL     1       9.320  12.315  18.417  0.00  0.00    +0.000 A 
ENDBRANCH  20  25
ENDBRANCH  19  20
ENDBRANCH  18  19
ENDBRANCH  17  18
ENDBRANCH   1  17
TORSDOF 7
ENDMDL
MODEL 6
REMARK VINA RESULT:      -7.6      4.214      7.833
REMARK  Name = 
REMARK  8 active torsions:
REMARK  status: ('A' for Active; 'I' for Inactive)
REMARK    1  A    between atoms: C_1  and  N_2
REMARK    2  A    between atoms: C_5  and  C_6
REMARK    3  A    between atoms: C_6  and  C_7
REMARK    4  A    between atoms: C_7  and  C_8
REMARK    5  A    between atoms: C_8  and  O_9
REMARK    6  A    between atoms: O_9  and  C_10
REMARK    7  A    between atoms: C_10  and  C_11
REMARK    8  A    between atoms: C_10  and  C_17
REMARK                            x       y       z     vdW  Elec       q    Type
REMARK                         _______ _______ _______ _____ _____    ______ ____
ROOT
ATOM      1  C   UNL     1       6.231   6.256  17.309  0.00  0.00    +0.000 C 
ENDROOT
BRANCH   1   2
ATOM      2  C   UNL     1       6.240   5.512  15.988  0.00  0.00    +0.000 A 
ATOM      3  N   UNL     1       7.128   5.809  15.058  0.00  0.00    +0.000 NA
ATOM      4  C   UNL     1       6.971   4.996  13.961  0.00  0.00    +0.000 A 
ATOM      5  C   UNL     1       7.795   5.020  12.819  0.00  0.00    +0.000 A 
ATOM      6  C   UNL     1       7.551   4.135  11.769  0.00  0.00    +0.000 A 
ATOM      7  C   UNL     1       6.480   3.250  11.838  0.00  0.00    +0.000 A 
ATOM      8  C   UNL     1       5.638   3.215  12.959  0.00  0.00    +0.000 A 
ATOM      9  C   UNL     1       5.915   4.093  14.028  0.00  0.00    +0.000 A 
ATOM     10  S   UNL     1       5.123   4.279  15.553  0.00  0.00    +0.000 S 
ENDBRANCH   1   2
BRANCH   1  11
ATOM     11  C   UNL     1       4.892   6.192  18.023  0.00  0.00    +0.000 A 
ATOM     12  C   UNL     1       3.826   7.041  17.690  0.00  0.00    +0.000 A 
ATOM     13  C   UNL     1       2.656   7.029  18.452  0.00  0.00    +0.000 A 
ATOM     14  C   UNL     1       2.538   6.174  19.546  0.00  0.00    +0.000 A 
ATOM     15  C   UNL     1       3.577   5.306  19.869  0.00  0.00    +0.000 A 
ATOM     16  C   UNL     1       4.743   5.310  19.108  0.00  0.00    +0.000 A 
ENDBRANCH   1  11
BRANCH   1  17
ATOM     17  O   UNL     1       6.709   7.607  17.174  0.00  0.00    +0.000 OA
BRANCH  17  18
ATOM     18  C   UNL     1       7.884   7.888  17.955  0.00  0.00    +0.000 C 
BRANCH  18  19
ATOM     19  C   UNL     1       8.361   9.341  17.885  0.00  0.00    +0.000 C 
BRANCH  19  20
ATOM     20  C   UNL     1       9.058   9.763  19.178  0.00  0.00    +0.000 C 
BRANCH  20  25
ATOM     21  C   UNL     1      11.550  13.706  17.372  0.00  0.00    +0.000 C 
ATOM     22  N   UNL     1      11.019  12.679  18.231  0.00  0.00    +0.000 N 
ATOM     23  C   UNL     1      11.208  12.573  19.576  0.00  0.00    +0.000 A 
ATOM     24  N   UNL     1      10.561  11.542  20.070  0.00  0.00    +0.000 NA
ATOM     25  C   UNL     1       9.928  10.956  18.998  0.00  0.00    +0.000 A 
ATOM     26  C   UNL     1      10.215  11.648  17.839  0.00  0.00    +0.000 A 
ENDBRANCH  20  25
ENDBRANCH  19  20
ENDBRANCH  18  19
ENDBRANCH  17  18
ENDBRANCH   1  17
TORSDOF 7
ENDMDL
MODEL 7
REMARK VINA RESULT:      -7.4      1.554      2.025
REMARK  Name = 
REMARK  8 active torsions:
REMARK  status: ('A' for Active; 'I' for Inactive)
REMARK    1  A    between atoms: C_1  and  N_2
REMARK    2  A    between atoms: C_5  and  C_6
REMARK    3  A    between atoms: C_6  and  C_7
REMARK    4  A    between atoms: C_7  and  C_8
REMARK    5  A    between atoms: C_8  and  O_9
REMARK    6  A    between atoms: O_9  and  C_10
REMARK    7  A    between atoms: C_10  and  C_11
REMARK    8  A    between atoms: C_10  and  C_17
REMARK                            x       y       z     vdW  Elec       q    Type
REMARK                         _______ _______ _______ _____ _____    ______ ____
ROOT
ATOM      1  C   UNL     1       3.433   5.728  18.995  0.00  0.00    +0.000 C 
ENDROOT
BRANCH   1   2
ATOM      2  C   UNL     1       2.596   6.958  19.289  0.00  0.00    +0.000 A 
ATOM      3  N   UNL     1       2.436   7.894  18.372  0.00  0.00    +0.000 NA
ATOM      4  C   UNL     1       1.622   8.898  18.842  0.00  0.00    +0.000 A 
ATOM      5  C   UNL     1       1.210  10.015  18.090  0.00  0.00    +0.000 A 
ATOM      6  C   UNL     1       0.369  10.967  18.666  0.00  0.00    +0.000 A 
ATOM      7  C   UNL     1      -0.040  10.826  19.987  0.00  0.00    +0.000 A 
ATOM      8  C   UNL     1       0.366   9.729  20.761  0.00  0.00    +0.000 A 
ATOM      9  C   UNL     1       1.191   8.757  20.157  0.00  0.00    +0.000 A 
ATOM     10  S   UNL     1       1.828   7.281  20.794  0.00  0.00    +0.000 S 
ENDBRANCH   1   2
BRANCH   1  11
ATOM     11  C   UNL     1       2.653   4.431  19.120  0.00  0.00    +0.000 A 
ATOM     12  C   UNL     1       2.311   3.882  20.365  0.00  0.00    +0.000 A 
ATOM     13  C   UNL     1       1.700   2.628  20.434  0.00  0.00    +0.000 A 
ATOM     14  C   UNL     1       1.425   1.914  19.268  0.00  0.00    +0.000 A 
ATOM     15  C   UNL     1       1.734   2.461  18.026  0.00  0.00    +0.000 A 
ATOM     16  C   UNL     1       2.336   3.714  17.953  0.00  0.00    +0.000 A 
ENDBRANCH   1  11
BRANCH   1  17
ATOM     17  O   UNL     1       4.650   5.705  19.760  0.00  0.00    +0.000 OA
BRANCH  17  18
ATOM     18  C   UNL     1       5.717   4.972  19.131  0.00  0.00    +0.000 C 
BRANCH  18  19
ATOM     19  C   UNL     1       7.105   5.597  19.302  0.00  0.00    +0.000 C 
BRANCH  19  20
ATOM     20  C   UNL     1       7.489   6.443  18.089  0.00  0.00    +0.000 C 
BRANCH  20  25
ATOM     21  C   UNL     1       6.116   3.883  14.018  0.00  0.00    +0.000 C 
ATOM     22  N   UNL     1       6.228   4.872  15.059  0.00  0.00    +0.000 N 
ATOM     23  C   UNL     1       5.428   5.962  15.226  0.00  0.00    +0.000 A 
ATOM     24  N   UNL     1       5.773   6.650  16.292  0.00  0.00    +0.000 NA
ATOM     25  C   UNL     1       6.843   5.975  16.834  0.00  0.00    +0.000 A 
ATOM     26  C   UNL     1       7.147   4.869  16.068  0.00  0.00    +0.000 A 
ENDBRANCH  20  25
ENDBRANCH  19  20
ENDBRANCH  18  19
ENDBRANCH  17  18
ENDBRANCH   1  17
TORSDOF 7
ENDMDL
MODEL 8
REMARK VINA RESULT:      -7.4      1.080      1.244
REMARK  Name = 
REMARK  8 active torsions:
REMARK  status: ('A' for Active; 'I' for Inactive)
REMARK    1  A    between atoms: C_1  and  N_2
REMARK    2  A    between atoms: C_5  and  C_6
REMARK    3  A    between atoms: C_6  and  C_7
REMARK    4  A    between atoms: C_7  and  C_8
REMARK    5  A    between atoms: C_8  and  O_9
REMARK    6  A    between atoms: O_9  and  C_10
REMARK    7  A    between atoms: C_10  and  C_11
REMARK    8  A    between atoms: C_10  and  C_17
REMARK                            x       y       z     vdW  Elec       q    Type
REMARK                         _______ _______ _______ _____ _____    ______ ____
ROOT
ATOM      1  C   UNL     1       3.808   5.597  18.864  0.00  0.00    +0.000 C 
ENDROOT
BRANCH   1   2
ATOM      2  C   UNL     1       2.913   6.807  19.054  0.00  0.00    +0.000 A 
ATOM      3  N   UNL     1       2.266   6.990  20.190  0.00  0.00    +0.000 NA
ATOM      4  C   UNL     1       1.542   8.157  20.152  0.00  0.00    +0.000 A 
ATOM      5  C   UNL     1       0.786   8.668  21.225  0.00  0.00    +0.000 A 
ATOM      6  C   UNL     1       0.101   9.874  21.079  0.00  0.00    +0.000 A 
ATOM      7  C   UNL     1       0.142  10.556  19.868  0.00  0.00    +0.000 A 
ATOM      8  C   UNL     1       0.877  10.062  18.780  0.00  0.00    +0.000 A 
ATOM      9  C   UNL     1       1.591   8.858  18.951  0.00  0.00    +0.000 A 
ATOM     10  S   UNL     1       2.620   8.004  17.854  0.00  0.00    +0.000 S 
ENDBRANCH   1   2
BRANCH   1  11
ATOM     11  C   UNL     1       3.060   4.279  18.969  0.00  0.00    +0.000 A 
ATOM     12  C   UNL     1       2.751   3.504  17.841  0.00  0.00    +0.000 A 
ATOM     13  C   UNL     1       1.958   2.362  17.972  0.00  0.00    +0.000 A 
ATOM     14  C   UNL     1       1.470   1.983  19.222  0.00  0.00    +0.000 A 
ATOM     15  C   UNL     1       1.793   2.729  20.352  0.00  0.00    +0.000 A 
ATOM     16  C   UNL     1       2.590   3.864  20.227  0.00  0.00    +0.000 A 
ENDBRANCH   1  11
BRANCH   1  17
ATOM     17  O   UNL     1       4.961   5.636  19.722  0.00  0.00    +0.000 OA
BRANCH  17  18
ATOM     18  C   UNL     1       6.134   5.033  19.145  0.00  0.00    +0.000 C 
BRANCH  18  19
ATOM     19  C   UNL     1       7.093   6.023  18.477  0.00  0.00    +0.000 C 
BRANCH  19  20
ATOM     20  C   UNL     1       6.449   6.694  17.265  0.00  0.00    +0.000 C 
BRANCH  20  25
ATOM     21  C   UNL     1       5.189   3.745  13.427  0.00  0.00    +0.000 C 
ATOM     22  N   UNL     1       5.920   4.540  14.380  0.00  0.00    +0.000 N 
ATOM     23  C   UNL     1       7.248   4.840  14.332  0.00  0.00    +0.000 A 
ATOM     24  N   UNL     1       7.600   5.615  15.334  0.00  0.00    +0.000 NA
ATOM     25  C   UNL     1       6.449   5.823  16.059  0.00  0.00    +0.000 A 
ATOM     26  C   UNL     1       5.394   5.148  15.483  0.00  0.00    +0.000 A 
ENDBRANCH  20  25
ENDBRANCH  19  20
ENDBRANCH  18  19
ENDBRANCH  17  18
ENDBRANCH   1  17
TORSDOF 7
ENDMDL
MODEL 9
REMARK VINA RESULT:      -7.3      0.942      1.213
REMARK  Name = 
REMARK  8 active torsions:
REMARK  status: ('A' for Active; 'I' for Inactive)
REMARK    1  A    between atoms: C_1  and  N_2
REMARK    2  A    between atoms: C_5  and  C_6
REMARK    3  A    between atoms: C_6  and  C_7
REMARK    4  A    between atoms: C_7  and  C_8
REMARK    5  A    between atoms: C_8  and  O_9
REMARK    6  A    between atoms: O_9  and  C_10
REMARK    7  A    between atoms: C_10  and  C_11
REMARK    8  A    between atoms: C_10  and  C_17
REMARK                            x       y       z     vdW  Elec       q    Type
REMARK                         _______ _______ _______ _____ _____    ______ ____
ROOT
ATOM      1  C   UNL     1       3.225   6.084  18.331  0.00  0.00    +0.000 C 
ENDROOT
BRANCH   1   2
ATOM      2  C   UNL     1       2.426   7.247  18.887  0.00  0.00    +0.000 A 
ATOM      3  N   UNL     1       2.070   7.269  20.158  0.00  0.00    +0.000 NA
ATOM      4  C   UNL     1       1.382   8.422  20.449  0.00  0.00    +0.000 A 
ATOM      5  C   UNL     1       0.913   8.776  21.729  0.00  0.00    +0.000 A 
ATOM      6  C   UNL     1       0.238   9.983  21.912  0.00  0.00    +0.000 A 
ATOM      7  C   UNL     1       0.005  10.821  20.827  0.00  0.00    +0.000 A 
ATOM      8  C   UNL     1       0.452  10.486  19.540  0.00  0.00    +0.000 A 
ATOM      9  C   UNL     1       1.161   9.278  19.375  0.00  0.00    +0.000 A 
ATOM     10  S   UNL     1       1.882   8.591  17.962  0.00  0.00    +0.000 S 
ENDBRANCH   1   2
BRANCH   1  11
ATOM     11  C   UNL     1       2.557   4.738  18.558  0.00  0.00    +0.000 A 
ATOM     12  C   UNL     1       2.707   3.670  17.661  0.00  0.00    +0.000 A 
ATOM     13  C   UNL     1       1.979   2.493  17.846  0.00  0.00    +0.000 A 
ATOM     14  C   UNL     1       1.100   2.371  18.922  0.00  0.00    +0.000 A 
ATOM     15  C   UNL     1       0.963   3.414  19.833  0.00  0.00    +0.000 A 
ATOM     16  C   UNL     1       1.693   4.586  19.657  0.00  0.00    +0.000 A 
ENDBRANCH   1  11
BRANCH   1  17
ATOM     17  O   UNL     1       4.589   6.096  18.787  0.00  0.00    +0.000 OA
BRANCH  17  18
ATOM     18  C   UNL     1       5.502   6.725  17.870  0.00  0.00    +0.000 C 
BRANCH  18  19
ATOM     19  C   UNL     1       5.475   6.149  16.451  0.00  0.00    +0.000 C 
BRANCH  19  20
ATOM     20  C   UNL     1       6.543   5.072  16.265  0.00  0.00    +0.000 C 
BRANCH  20  25
ATOM     21  C   UNL     1       6.336   3.030  11.704  0.00  0.00    +0.000 C 
ATOM     22  N   UNL     1       6.679   3.843  12.843  0.00  0.00    +0.000 N 
ATOM     23  C   UNL     1       7.540   4.899  12.851  0.00  0.00    +0.000 A 
ATOM     24  N   UNL     1       7.609   5.450  14.043  0.00  0.00    +0.000 NA
ATOM     25  C   UNL     1       6.757   4.717  14.837  0.00  0.00    +0.000 A 
ATOM     26  C   UNL     1       6.179   3.701  14.104  0.00  0.00    +0.000 A 
ENDBRANCH  20  25
ENDBRANCH  19  20
ENDBRANCH  18  19
ENDBRANCH  17  18
ENDBRANCH   1  17
TORSDOF 7
ENDMDL
