MODEL 1
REMARK VINA RESULT:      -7.9      0.000      0.000
REMARK  Name = 
REMARK  9 active torsions:
REMARK  status: ('A' for Active; 'I' for Inactive)
REMARK    1  A    between atoms: C_1  and  O_2
REMARK    2  A    between atoms: O_2  and  C_3
REMARK    3  A    between atoms: C_6  and  O_7
REMARK    4  A    between atoms: C_8  and  C_9
REMARK    5  A    between atoms: N_11  and  C_12
REMARK    6  A    between atoms: C_12  and  C_13
REMARK    7  A    between atoms: C_13  and  C_14
REMARK    8  A    between atoms: C_17  and  C_18
REMARK    9  A    between atoms: C_21  and  C_22
REMARK                            x       y       z     vdW  Elec       q    Type
REMARK                         _______ _______ _______ _____ _____    ______ ____
ROOT
ATOM      1  C   UNL     1       5.845   4.839  15.654  0.00  0.00    +0.000 C 
ATOM      2  O   UNL     1       6.034   5.977  16.081  0.00  0.00    +0.000 OA
ATOM      3  N   UNL     1       5.310   3.841  16.436  0.00  0.00    +0.000 N 
ATOM      4  H   UNL     1       5.156   2.932  16.006  0.00  0.00    +0.000 HD
ENDROOT
BRANCH   1   9
ATOM      5  C   UNL     1       5.547   3.327  12.203  0.00  0.00    +0.000 A 
ATOM      6  C   UNL     1       6.718   3.769  11.587  0.00  0.00    +0.000 A 
ATOM      7  C   UNL     1       7.629   4.571  12.276  0.00  0.00    +0.000 A 
ATOM      8  C   UNL     1       7.372   4.934  13.599  0.00  0.00    +0.000 A 
ATOM      9  C   UNL     1       6.202   4.501  14.240  0.00  0.00    +0.000 A 
ATOM     10  C   UNL     1       5.290   3.696  13.526  0.00  0.00    +0.000 A 
BRANCH   5  12
ATOM     11  C   UNL     1       3.603   3.175  10.841  0.00  0.00    +0.000 C 
ATOM     12  O   UNL     1       4.741   2.549  11.418  0.00  0.00    +0.000 OA
ENDBRANCH   5  12
BRANCH   8  13
ATOM     13  O   UNL     1       8.286   5.719  14.255  0.00  0.00    +0.000 OA
ATOM     14  H   UNL     1       8.278   6.608  13.862  0.00  0.00    +0.000 HD
ENDBRANCH   8  13
ENDBRANCH   1   9
BRANCH   3  15
ATOM     15  C   UNL     1       4.942   4.057  17.820  0.00  0.00    +0.000 C 
BRANCH  15  16
ATOM     16  C   UNL     1       3.435   3.920  18.045  0.00  0.00    +0.000 C 
BRANCH  16  17
ATOM     17  C   UNL     1       2.860   5.132  18.736  0.00  0.00    +0.000 A 
ATOM     18  C   UNL     1       2.965   6.391  18.134  0.00  0.00    +0.000 A 
ATOM     19  C   UNL     1       2.464   7.526  18.774  0.00  0.00    +0.000 A 
ATOM     20  C   UNL     1       1.852   7.435  20.033  0.00  0.00    +0.000 A 
ATOM     21  C   UNL     1       1.748   6.169  20.627  0.00  0.00    +0.000 A 
ATOM     22  C   UNL     1       2.248   5.029  19.989  0.00  0.00    +0.000 A 
BRANCH  20  23
ATOM     23  C   UNL     1       1.308   8.616  20.715  0.00  0.00    +0.000 A 
ATOM     24  C   UNL     1       1.293   8.934  22.063  0.00  0.00    +0.000 A 
ATOM     25  N   UNL     1       0.685  10.125  22.408  0.00  0.00    +0.000 NA
ATOM     26  C   UNL     1       0.241  10.715  21.320  0.00  0.00    +0.000 A 
ATOM     27  C   UNL     1      -0.503  12.001  21.301  0.00  0.00    +0.000 C 
ATOM     28  S   UNL     1       0.561   9.901  19.847  0.00  0.00    +0.000 S 
ENDBRANCH  20  23
ENDBRANCH  16  17
ENDBRANCH  15  16
ENDBRANCH   3  15
TORSDOF 7
ENDMDL
MODEL 2
REMARK VINA RESULT:      -7.6      1.468      1.864
REMARK  Name = 
REMARK  9 active torsions:
REMARK  status: ('A' for Active; 'I' for Inactive)
REMARK    1  A    between atoms: C_1  and  O_2
REMARK    2  A    between atoms: O_2  and  C_3
REMARK    3  A    between atoms: C_6  and  O_7
REMARK    4  A    between atoms: C_8  and  C_9
REMARK    5  A    between atoms: N_11  and  C_12
REMARK    6  A    between atoms: C_12  and  C_13
REMARK    7  A    between atoms: C_13  and  C_14
REMARK    8  A    between atoms: C_17  and  C_18
REMARK    9  A    between atoms: C_21  and  C_22
REMARK                            x       y       z     vdW  Elec       q    Type
REMARK                         _______ _______ _______ _____ _____    ______ ____
ROOT
ATOM      1  C   UNL     1       6.972   5.071  15.625  0.00  0.00    +0.000 C 
ATOM      2  O   UNL     1       7.468   6.132  15.999  0.00  0.00    +0.000 OA
ATOM      3  N   UNL     1       6.384   4.187  16.499  0.00  0.00    +0.000 N 
ATOM      4  H   UNL     1       5.969   3.341  16.114  0.00  0.00    +0.000 HD
ENDROOT
BRANCH   1   9
ATOM      5  C   UNL     1       6.008   3.347  12.402  0.00  0.00    +0.000 A 
ATOM      6  C   UNL     1       6.912   3.896  11.494  0.00  0.00    +0.000 A 
ATOM      7  C   UNL     1       7.854   4.841  11.905  0.00  0.00    +0.000 A 
ATOM      8  C   UNL     1       7.896   5.242  13.242  0.00  0.00    +0.000 A 
ATOM      9  C   UNL     1       6.998   4.703  14.174  0.00  0.00    +0.000 A 
ATOM     10  C   UNL     1       6.050   3.753  13.739  0.00  0.00    +0.000 A 
BRANCH   5  12
ATOM     11  C   UNL     1       5.710   1.303  11.223  0.00  0.00    +0.000 C 
ATOM     12  O   UNL     1       5.140   2.433  11.870  0.00  0.00    +0.000 OA
ENDBRANCH   5  12
BRANCH   8  13
ATOM     13  O   UNL     1       8.835   6.168  13.621  0.00  0.00    +0.000 OA
ATOM     14  H   UNL     1       9.281   6.508  12.826  0.00  0.00    +0.000 HD
ENDBRANCH   8  13
ENDBRANCH   1   9
BRANCH   3  15
ATOM     15  C   UNL     1       6.316   4.438  17.924  0.00  0.00    +0.000 C 
BRANCH  15  16
ATOM     16  C   UNL     1       4.947   4.086  18.509  0.00  0.00    +0.000 C 
BRANCH  16  17
ATOM     17  C   UNL     1       4.072   5.305  18.658  0.00  0.00    +0.000 A 
ATOM     18  C   UNL     1       3.158   5.381  19.714  0.00  0.00    +0.000 A 
ATOM     19  C   UNL     1       2.321   6.491  19.849  0.00  0.00    +0.000 A 
ATOM     20  C   UNL     1       2.369   7.548  18.930  0.00  0.00    +0.000 A 
ATOM     21  C   UNL     1       3.290   7.466  17.875  0.00  0.00    +0.000 A 
ATOM     22  C   UNL     1       4.132   6.357  17.738  0.00  0.00    +0.000 A 
BRANCH  20  23
ATOM     23  C   UNL     1       1.505   8.728  19.063  0.00  0.00    +0.000 A 
ATOM     24  C   UNL     1       1.040   9.601  18.094  0.00  0.00    +0.000 A 
ATOM     25  N   UNL     1       0.247  10.643  18.533  0.00  0.00    +0.000 NA
ATOM     26  C   UNL     1       0.106  10.559  19.838  0.00  0.00    +0.000 A 
ATOM     27  C   UNL     1      -0.650  11.531  20.670  0.00  0.00    +0.000 C 
ATOM     28  S   UNL     1       0.875   9.224  20.586  0.00  0.00    +0.000 S 
ENDBRANCH  20  23
ENDBRANCH  16  17
ENDBRANCH  15  16
ENDBRANCH   3  15
TORSDOF 7
ENDMDL
MODEL 3
REMARK VINA RESULT:      -7.5      5.892     11.828
REMARK  Name = 
REMARK  9 active torsions:
REMARK  status: ('A' for Active; 'I' for Inactive)
REMARK    1  A    between atoms: C_1  and  O_2
REMARK    2  A    between atoms: O_2  and  C_3
REMARK    3  A    between atoms: C_6  and  O_7
REMARK    4  A    between atoms: C_8  and  C_9
REMARK    5  A    between atoms: N_11  and  C_12
REMARK    6  A    between atoms: C_12  and  C_13
REMARK    7  A    between atoms: C_13  and  C_14
REMARK    8  A    between atoms: C_17  and  C_18
REMARK    9  A    between atoms: C_21  and  C_22
REMARK                            x       y       z     vdW  Elec       q    Type
REMARK                         _______ _______ _______ _____ _____    ______ ____
ROOT
ATOM      1  C   UNL     1      -0.540  11.922  22.564  0.00  0.00    +0.000 C 
ATOM      2  O   UNL     1      -0.109  10.905  23.106  0.00  0.00    +0.000 OA
ATOM      3  N   UNL     1      -0.041  12.385  21.369  0.00  0.00    +0.000 N 
ATOM      4  H   UNL     1      -0.467  13.217  20.967  0.00  0.00    +0.000 HD
ENDROOT
BRANCH   1   9
ATOM      5  C   UNL     1      -3.944  12.668  24.028  0.00  0.00    +0.000 A 
ATOM      6  C   UNL     1      -3.819  14.008  24.394  0.00  0.00    +0.000 A 
ATOM      7  C   UNL     1      -2.626  14.700  24.178  0.00  0.00    +0.000 A 
ATOM      8  C   UNL     1      -1.543  14.047  23.585  0.00  0.00    +0.000 A 
ATOM      9  C   UNL     1      -1.646  12.700  23.208  0.00  0.00    +0.000 A 
ATOM     10  C   UNL     1      -2.857  12.017  23.439  0.00  0.00    +0.000 A 
BRANCH   5  12
ATOM     11  C   UNL     1      -6.310  12.811  23.828  0.00  0.00    +0.000 C 
ATOM     12  O   UNL     1      -5.165  12.110  24.295  0.00  0.00    +0.000 OA
ENDBRANCH   5  12
BRANCH   8  13
ATOM     13  O   UNL     1      -0.384  14.751  23.379  0.00  0.00    +0.000 OA
ATOM     14  H   UNL     1      -0.526  15.676  23.642  0.00  0.00    +0.000 HD
ENDBRANCH   8  13
ENDBRANCH   1   9
BRANCH   3  15
ATOM     15  C   UNL     1       1.036  11.716  20.670  0.00  0.00    +0.000 C 
BRANCH  15  16
ATOM     16  C   UNL     1       0.544  10.976  19.425  0.00  0.00    +0.000 C 
BRANCH  16  17
ATOM     17  C   UNL     1       1.166   9.606  19.306  0.00  0.00    +0.000 A 
ATOM     18  C   UNL     1       1.229   8.771  20.426  0.00  0.00    +0.000 A 
ATOM     19  C   UNL     1       1.827   7.512  20.339  0.00  0.00    +0.000 A 
ATOM     20  C   UNL     1       2.382   7.058  19.134  0.00  0.00    +0.000 A 
ATOM     21  C   UNL     1       2.312   7.900  18.014  0.00  0.00    +0.000 A 
ATOM     22  C   UNL     1       1.712   9.161  18.098  0.00  0.00    +0.000 A 
BRANCH  20  23
ATOM     23  C   UNL     1       3.004   5.732  19.021  0.00  0.00    +0.000 A 
ATOM     24  C   UNL     1       4.261   5.306  19.414  0.00  0.00    +0.000 A 
ATOM     25  N   UNL     1       4.571   3.984  19.155  0.00  0.00    +0.000 NA
ATOM     26  C   UNL     1       3.547   3.406  18.568  0.00  0.00    +0.000 A 
ATOM     27  C   UNL     1       3.525   1.995  18.105  0.00  0.00    +0.000 C 
ATOM     28  S   UNL     1       2.166   4.394  18.337  0.00  0.00    +0.000 S 
ENDBRANCH  20  23
ENDBRANCH  16  17
ENDBRANCH  15  16
ENDBRANCH   3  15
TORSDOF 7
ENDMDL
MODEL 4
REMARK VINA RESULT:      -7.5      6.895      9.072
REMARK  Name = 
REMARK  9 active torsions:
REMARK  status: ('A' for Active; 'I' for Inactive)
REMARK    1  A    between atoms: C_1  and  O_2
REMARK    2  A    between atoms: O_2  and  C_3
REMARK    3  A    between atoms: C_6  and  O_7
REMARK    4  A    between atoms: C_8  and  C_9
REMARK    5  A    between atoms: N_11  and  C_12
REMARK    6  A    between atoms: C_12  and  C_13
REMARK    7  A    between atoms: C_13  and  C_14
REMARK    8  A    between atoms: C_17  and  C_18
REMARK    9  A    between atoms: C_21  and  C_22
REMARK                            x       y       z     vdW  Elec       q    Type
REMARK                         _______ _______ _______ _____ _____    ______ ____
ROOT
ATOM      1  C   UNL     1       9.548  11.366  18.831  0.00  0.00    +0.000 C 
ATOM      2  O   UNL     1       9.485  11.260  20.055  0.00  0.00    +0.000 OA
ATOM      3  N   UNL     1       9.058  10.399  17.984  0.00  0.00    +0.000 N 
ATOM      4  H   UNL     1       9.120  10.569  16.983  0.00  0.00    +0.000 HD
ENDROOT
BRANCH   1   9
ATOM      5  C   UNL     1       9.956  14.961  17.738  0.00  0.00    +0.000 A 
ATOM      6  C   UNL     1      11.202  14.938  17.112  0.00  0.00    +0.000 A 
ATOM      7  C   UNL     1      11.941  13.756  17.033  0.00  0.00    +0.000 A 
ATOM      8  C   UNL     1      11.428  12.579  17.583  0.00  0.00    +0.000 A 
ATOM      9  C   UNL     1      10.177  12.578  18.217  0.00  0.00    +0.000 A 
ATOM     10  C   UNL     1       9.448  13.783  18.291  0.00  0.00    +0.000 A 
BRANCH   5  12
ATOM     11  C   UNL     1       8.531  16.489  18.876  0.00  0.00    +0.000 C 
ATOM     12  O   UNL     1       9.338  16.182  17.746  0.00  0.00    +0.000 OA
ENDBRANCH   5  12
BRANCH   8  13
ATOM     13  O   UNL     1      12.171  11.431  17.488  0.00  0.00    +0.000 OA
ATOM     14  H   UNL     1      11.757  10.840  16.835  0.00  0.00    +0.000 HD
ENDBRANCH   8  13
ENDBRANCH   1   9
BRANCH   3  15
ATOM     15  C   UNL     1       8.442   9.183  18.473  0.00  0.00    +0.000 C 
BRANCH  15  16
ATOM     16  C   UNL     1       8.227   8.156  17.359  0.00  0.00    +0.000 C 
BRANCH  16  17
ATOM     17  C   UNL     1       7.148   7.164  17.714  0.00  0.00    +0.000 A 
ATOM     18  C   UNL     1       7.363   6.240  18.742  0.00  0.00    +0.000 A 
ATOM     19  C   UNL     1       6.385   5.297  19.063  0.00  0.00    +0.000 A 
ATOM     20  C   UNL     1       5.172   5.246  18.362  0.00  0.00    +0.000 A 
ATOM     21  C   UNL     1       4.963   6.178  17.334  0.00  0.00    +0.000 A 
ATOM     22  C   UNL     1       5.940   7.126  17.011  0.00  0.00    +0.000 A 
BRANCH  20  23
ATOM     23  C   UNL     1       4.127   4.269  18.693  0.00  0.00    +0.000 A 
ATOM     24  C   UNL     1       3.762   3.105  18.039  0.00  0.00    +0.000 A 
ATOM     25  N   UNL     1       2.713   2.392  18.589  0.00  0.00    +0.000 NA
ATOM     26  C   UNL     1       2.286   3.014  19.665  0.00  0.00    +0.000 A 
ATOM     27  C   UNL     1       1.143   2.565  20.502  0.00  0.00    +0.000 C 
ATOM     28  S   UNL     1       3.132   4.443  20.086  0.00  0.00    +0.000 S 
ENDBRANCH  20  23
ENDBRANCH  16  17
ENDBRANCH  15  16
ENDBRANCH   3  15
TORSDOF 7
ENDMDL
MODEL 5
REMARK VINA RESULT:      -7.4      0.974      1.435
REMARK  Name = 
REMARK  9 active torsions:
REMARK  status: ('A' for Active; 'I' for Inactive)
REMARK    1  A    between atoms: C_1  and  O_2
REMARK    2  A    between atoms: O_2  and  C_3
REMARK    3  A    between atoms: C_6  and  O_7
REMARK    4  A    between atoms: C_8  and  C_9
REMARK    5  A    between atoms: N_11  and  C_12
REMARK    6  A    between atoms: C_12  and  C_13
REMARK    7  A    between atoms: C_13  and  C_14
REMARK    8  A    between atoms: C_17  and  C_18
REMARK    9  A    between atoms: C_21  and  C_22
REMARK                            x       y       z     vdW  Elec       q    Type
REMARK                         _______ _______ _______ _____ _____    ______ ____
ROOT
ATOM      1  C   UNL     1       5.474   5.314  15.498  0.00  0.00    +0.000 C 
ATOM      2  O   UNL     1       5.321   6.530  15.604  0.00  0.00    +0.000 OA
ATOM      3  N   UNL     1       5.193   4.446  16.528  0.00  0.00    +0.000 N 
ATOM      4  H   UNL     1       5.317   3.450  16.357  0.00  0.00    +0.000 HD
ENDROOT
BRANCH   1   9
ATOM      5  C   UNL     1       5.475   3.347  12.270  0.00  0.00    +0.000 A 
ATOM      6  C   UNL     1       6.769   3.562  11.796  0.00  0.00    +0.000 A 
ATOM      7  C   UNL     1       7.671   4.353  12.511  0.00  0.00    +0.000 A 
ATOM      8  C   UNL     1       7.277   4.935  13.718  0.00  0.00    +0.000 A 
ATOM      9  C   UNL     1       5.981   4.733  14.215  0.00  0.00    +0.000 A 
ATOM     10  C   UNL     1       5.083   3.935  13.476  0.00  0.00    +0.000 A 
BRANCH   5  12
ATOM     11  C   UNL     1       3.517   3.140  10.936  0.00  0.00    +0.000 C 
ATOM     12  O   UNL     1       4.695   2.554  11.474  0.00  0.00    +0.000 OA
ENDBRANCH   5  12
BRANCH   8  13
ATOM     13  O   UNL     1       8.183   5.704  14.404  0.00  0.00    +0.000 OA
ATOM     14  H   UNL     1       7.759   6.543  14.654  0.00  0.00    +0.000 HD
ENDBRANCH   8  13
ENDBRANCH   1   9
BRANCH   3  15
ATOM     15  C   UNL     1       4.710   4.903  17.814  0.00  0.00    +0.000 C 
BRANCH  15  16
ATOM     16  C   UNL     1       3.187   4.820  17.921  0.00  0.00    +0.000 C 
BRANCH  16  17
ATOM     17  C   UNL     1       2.607   6.035  18.602  0.00  0.00    +0.000 A 
ATOM     18  C   UNL     1       2.185   5.952  19.933  0.00  0.00    +0.000 A 
ATOM     19  C   UNL     1       1.620   7.060  20.568  0.00  0.00    +0.000 A 
ATOM     20  C   UNL     1       1.455   8.276  19.890  0.00  0.00    +0.000 A 
ATOM     21  C   UNL     1       1.884   8.352  18.556  0.00  0.00    +0.000 A 
ATOM     22  C   UNL     1       2.451   7.245  17.917  0.00  0.00    +0.000 A 
BRANCH  20  23
ATOM     23  C   UNL     1       0.874   9.454  20.545  0.00  0.00    +0.000 A 
ATOM     24  C   UNL     1       1.060  10.800  20.277  0.00  0.00    +0.000 A 
ATOM     25  N   UNL     1       0.381  11.689  21.088  0.00  0.00    +0.000 NA
ATOM     26  C   UNL     1      -0.324  11.017  21.970  0.00  0.00    +0.000 A 
ATOM     27  C   UNL     1      -1.155  11.637  23.035  0.00  0.00    +0.000 C 
ATOM     28  S   UNL     1      -0.240   9.311  21.849  0.00  0.00    +0.000 S 
ENDBRANCH  20  23
ENDBRANCH  16  17
ENDBRANCH  15  16
ENDBRANCH   3  15
TORSDOF 7
ENDMDL
MODEL 6
REMARK VINA RESULT:      -7.3      1.396      2.060
REMARK  Name = 
REMARK  9 active torsions:
REMARK  status: ('A' for Active; 'I' for Inactive)
REMARK    1  A    between atoms: C_1  and  O_2
REMARK    2  A    between atoms: O_2  and  C_3
REMARK    3  A    between atoms: C_6  and  O_7
REMARK    4  A    between atoms: C_8  and  C_9
REMARK    5  A    between atoms: N_11  and  C_12
REMARK    6  A    between atoms: C_12  and  C_13
REMARK    7  A    between atoms: C_13  and  C_14
REMARK    8  A    between atoms: C_17  and  C_18
REMARK    9  A    between atoms: C_21  and  C_22
REMARK                            x       y       z     vdW  Elec       q    Type
REMARK                         _______ _______ _______ _____ _____    ______ ____
ROOT
ATOM      1  C   UNL     1       5.237   4.688  15.944  0.00  0.00    +0.000 C 
ATOM      2  O   UNL     1       4.605   3.773  16.471  0.00  0.00    +0.000 OA
ATOM      3  N   UNL     1       5.394   5.914  16.547  0.00  0.00    +0.000 N 
ATOM      4  H   UNL     1       5.954   6.613  16.064  0.00  0.00    +0.000 HD
ENDROOT
BRANCH   1   9
ATOM      5  C   UNL     1       5.663   3.459  12.395  0.00  0.00    +0.000 A 
ATOM      6  C   UNL     1       6.899   4.002  12.043  0.00  0.00    +0.000 A 
ATOM      7  C   UNL     1       7.622   4.782  12.948  0.00  0.00    +0.000 A 
ATOM      8  C   UNL     1       7.106   5.022  14.224  0.00  0.00    +0.000 A 
ATOM      9  C   UNL     1       5.866   4.486  14.600  0.00  0.00    +0.000 A 
ATOM     10  C   UNL     1       5.148   3.705  13.671  0.00  0.00    +0.000 A 
BRANCH   5  12
ATOM     11  C   UNL     1       3.742   3.090  11.043  0.00  0.00    +0.000 C 
ATOM     12  O   UNL     1       5.061   2.715  11.417  0.00  0.00    +0.000 OA
ENDBRANCH   5  12
BRANCH   8  13
ATOM     13  O   UNL     1       7.838   5.787  15.095  0.00  0.00    +0.000 OA
ATOM     14  H   UNL     1       8.416   6.380  14.585  0.00  0.00    +0.000 HD
ENDBRANCH   8  13
ENDBRANCH   1   9
BRANCH   3  15
ATOM     15  C   UNL     1       4.817   6.220  17.840  0.00  0.00    +0.000 C 
BRANCH  15  16
ATOM     16  C   UNL     1       3.307   5.973  17.871  0.00  0.00    +0.000 C 
BRANCH  16  17
ATOM     17  C   UNL     1       2.565   7.124  18.501  0.00  0.00    +0.000 A 
ATOM     18  C   UNL     1       2.191   7.057  19.847  0.00  0.00    +0.000 A 
ATOM     19  C   UNL     1       1.478   8.103  20.438  0.00  0.00    +0.000 A 
ATOM     20  C   UNL     1       1.114   9.237  19.699  0.00  0.00    +0.000 A 
ATOM     21  C   UNL     1       1.495   9.298  18.350  0.00  0.00    +0.000 A 
ATOM     22  C   UNL     1       2.211   8.254  17.756  0.00  0.00    +0.000 A 
BRANCH  20  23
ATOM     23  C   UNL     1       0.375  10.351  20.307  0.00  0.00    +0.000 A 
ATOM     24  C   UNL     1      -0.137  11.498  19.724  0.00  0.00    +0.000 A 
ATOM     25  N   UNL     1      -0.778  12.385  20.568  0.00  0.00    +0.000 NA
ATOM     26  C   UNL     1      -0.756  11.908  21.793  0.00  0.00    +0.000 A 
ATOM     27  C   UNL     1      -1.316  12.604  22.980  0.00  0.00    +0.000 C 
ATOM     28  S   UNL     1      -0.011  10.377  21.983  0.00  0.00    +0.000 S 
ENDBRANCH  20  23
ENDBRANCH  16  17
ENDBRANCH  15  16
ENDBRANCH   3  15
TORSDOF 7
ENDMDL
MODEL 7
REMARK VINA RESULT:      -7.3      2.146      3.580
REMARK  Name = 
REMARK  9 active torsions:
REMARK  status: ('A' for Active; 'I' for Inactive)
REMARK    1  A    between atoms: C_1  and  O_2
REMARK    2  A    between atoms: O_2  and  C_3
REMARK    3  A    between atoms: C_6  and  O_7
REMARK    4  A    between atoms: C_8  and  C_9
REMARK    5  A    between atoms: N_11  and  C_12
REMARK    6  A    between atoms: C_12  and  C_13
REMARK    7  A    between atoms: C_13  and  C_14
REMARK    8  A    between atoms: C_17  and  C_18
REMARK    9  A    between atoms: C_21  and  C_22
REMARK                            x       y       z     vdW  Elec       q    Type
REMARK                         _______ _______ _______ _____ _____    ______ ____
ROOT
ATOM      1  C   UNL     1       5.145   3.377  18.757  0.00  0.00    +0.000 C 
ATOM      2  O   UNL     1       5.293   3.207  19.966  0.00  0.00    +0.000 OA
ATOM      3  N   UNL     1       4.256   2.636  18.014  0.00  0.00    +0.000 N 
ATOM      4  H   UNL     1       4.167   2.852  17.023  0.00  0.00    +0.000 HD
ENDROOT
BRANCH   1   9
ATOM      5  C   UNL     1       6.592   5.371  15.890  0.00  0.00    +0.000 A 
ATOM      6  C   UNL     1       7.396   6.298  16.554  0.00  0.00    +0.000 A 
ATOM      7  C   UNL     1       7.484   6.300  17.947  0.00  0.00    +0.000 A 
ATOM      8  C   UNL     1       6.763   5.362  18.689  0.00  0.00    +0.000 A 
ATOM      9  C   UNL     1       5.950   4.419  18.044  0.00  0.00    +0.000 A 
ATOM     10  C   UNL     1       5.869   4.436  16.636  0.00  0.00    +0.000 A 
BRANCH   5  12
ATOM     11  C   UNL     1       6.440   4.274  13.785  0.00  0.00    +0.000 C 
ATOM     12  O   UNL     1       6.596   5.477  14.526  0.00  0.00    +0.000 OA
ENDBRANCH   5  12
BRANCH   8  13
ATOM     13  O   UNL     1       6.872   5.382  20.057  0.00  0.00    +0.000 OA
ATOM     14  H   UNL     1       6.889   6.307  20.358  0.00  0.00    +0.000 HD
ENDBRANCH   8  13
ENDBRANCH   1   9
BRANCH   3  15
ATOM     15  C   UNL     1       3.438   1.594  18.601  0.00  0.00    +0.000 C 
BRANCH  15  16
ATOM     16  C   UNL     1       1.997   2.052  18.833  0.00  0.00    +0.000 C 
BRANCH  16  17
ATOM     17  C   UNL     1       1.908   3.547  19.014  0.00  0.00    +0.000 A 
ATOM     18  C   UNL     1       1.844   4.089  20.303  0.00  0.00    +0.000 A 
ATOM     19  C   UNL     1       1.733   5.469  20.486  0.00  0.00    +0.000 A 
ATOM     20  C   UNL     1       1.674   6.342  19.391  0.00  0.00    +0.000 A 
ATOM     21  C   UNL     1       1.743   5.791  18.102  0.00  0.00    +0.000 A 
ATOM     22  C   UNL     1       1.856   4.409  17.914  0.00  0.00    +0.000 A 
BRANCH  20  23
ATOM     23  C   UNL     1       1.570   7.796  19.565  0.00  0.00    +0.000 A 
ATOM     24  C   UNL     1       1.294   8.535  20.703  0.00  0.00    +0.000 A 
ATOM     25  N   UNL     1       1.245   9.907  20.549  0.00  0.00    +0.000 NA
ATOM     26  C   UNL     1       1.487  10.210  19.293  0.00  0.00    +0.000 A 
ATOM     27  C   UNL     1       1.480  11.589  18.741  0.00  0.00    +0.000 C 
ATOM     28  S   UNL     1       1.820   8.886  18.258  0.00  0.00    +0.000 S 
ENDBRANCH  20  23
ENDBRANCH  16  17
ENDBRANCH  15  16
ENDBRANCH   3  15
TORSDOF 7
ENDMDL
MODEL 8
REMARK VINA RESULT:      -7.3      7.026      8.241
REMARK  Name = 
REMARK  9 active torsions:
REMARK  status: ('A' for Active; 'I' for Inactive)
REMARK    1  A    between atoms: C_1  and  O_2
REMARK    2  A    between atoms: O_2  and  C_3
REMARK    3  A    between atoms: C_6  and  O_7
REMARK    4  A    between atoms: C_8  and  C_9
REMARK    5  A    between atoms: N_11  and  C_12
REMARK    6  A    between atoms: C_12  and  C_13
REMARK    7  A    between atoms: C_13  and  C_14
REMARK    8  A    between atoms: C_17  and  C_18
REMARK    9  A    between atoms: C_21  and  C_22
REMARK                            x       y       z     vdW  Elec       q    Type
REMARK                         _______ _______ _______ _____ _____    ______ ____
ROOT
ATOM      1  C   UNL     1       6.555   6.254  16.922  0.00  0.00    +0.000 C 
ATOM      2  O   UNL     1       7.357   5.859  16.077  0.00  0.00    +0.000 OA
ATOM      3  N   UNL     1       6.743   7.421  17.625  0.00  0.00    +0.000 N 
ATOM      4  H   UNL     1       6.023   7.698  18.288  0.00  0.00    +0.000 HD
ENDROOT
BRANCH   1   9
ATOM      5  C   UNL     1       3.154   5.399  18.333  0.00  0.00    +0.000 A 
ATOM      6  C   UNL     1       2.961   4.099  17.867  0.00  0.00    +0.000 A 
ATOM      7  C   UNL     1       3.928   3.470  17.081  0.00  0.00    +0.000 A 
ATOM      8  C   UNL     1       5.107   4.147  16.758  0.00  0.00    +0.000 A 
ATOM      9  C   UNL     1       5.323   5.454  17.216  0.00  0.00    +0.000 A 
ATOM     10  C   UNL     1       4.332   6.075  18.004  0.00  0.00    +0.000 A 
BRANCH   5  12
ATOM     11  C   UNL     1       1.929   5.306  20.370  0.00  0.00    +0.000 C 
ATOM     12  O   UNL     1       2.130   5.897  19.092  0.00  0.00    +0.000 OA
ENDBRANCH   5  12
BRANCH   8  13
ATOM     13  O   UNL     1       6.043   3.505  15.988  0.00  0.00    +0.000 OA
ATOM     14  H   UNL     1       6.628   2.988  16.569  0.00  0.00    +0.000 HD
ENDBRANCH   8  13
ENDBRANCH   1   9
BRANCH   3  15
ATOM     15  C   UNL     1       7.906   8.262  17.428  0.00  0.00    +0.000 C 
BRANCH  15  16
ATOM     16  C   UNL     1       8.599   8.607  18.748  0.00  0.00    +0.000 C 
BRANCH  16  17
ATOM     17  C   UNL     1       9.007  10.058  18.803  0.00  0.00    +0.000 A 
ATOM     18  C   UNL     1       9.730  10.536  19.901  0.00  0.00    +0.000 A 
ATOM     19  C   UNL     1      10.090  11.882  19.981  0.00  0.00    +0.000 A 
ATOM     20  C   UNL     1       9.733  12.787  18.972  0.00  0.00    +0.000 A 
ATOM     21  C   UNL     1       9.010  12.300  17.872  0.00  0.00    +0.000 A 
ATOM     22  C   UNL     1       8.649  10.951  17.788  0.00  0.00    +0.000 A 
BRANCH  20  23
ATOM     23  C   UNL     1      10.113  14.204  19.032  0.00  0.00    +0.000 A 
ATOM     24  C   UNL     1      11.272  14.830  18.604  0.00  0.00    +0.000 A 
ATOM     25  N   UNL     1      11.349  16.194  18.816  0.00  0.00    +0.000 NA
ATOM     26  C   UNL     1      10.246  16.603  19.401  0.00  0.00    +0.000 A 
ATOM     27  C   UNL     1       9.983  18.004  19.820  0.00  0.00    +0.000 C 
ATOM     28  S   UNL     1       9.063  15.399  19.688  0.00  0.00    +0.000 S 
ENDBRANCH  20  23
ENDBRANCH  16  17
ENDBRANCH  15  16
ENDBRANCH   3  15
TORSDOF 7
ENDMDL
MODEL 9
REMARK VINA RESULT:      -7.3      5.682     11.817
REMARK  Name = 
REMARK  9 active torsions:
REMARK  status: ('A' for Active; 'I' for Inactive)
REMARK    1  A    between atoms: C_1  and  O_2
REMARK    2  A    between atoms: O_2  and  C_3
REMARK    3  A    between atoms: C_6  and  O_7
REMARK    4  A    between atoms: C_8  and  C_9
REMARK    5  A    between atoms: N_11  and  C_12
REMARK    6  A    between atoms: C_12  and  C_13
REMARK    7  A    between atoms: C_13  and  C_14
REMARK    8  A    between atoms: C_17  and  C_18
REMARK    9  A    between atoms: C_21  and  C_22
REMARK                            x       y       z     vdW  Elec       q    Type
REMARK                         _______ _______ _______ _____ _____    ______ ____
ROOT
ATOM      1  C   UNL     1      -0.606  12.105  22.368  0.00  0.00    +0.000 C 
ATOM      2  O   UNL     1      -0.160  11.051  22.819  0.00  0.00    +0.000 OA
ATOM      3  N   UNL     1      -0.149  12.652  21.192  0.00  0.00    +0.000 N 
ATOM      4  H   UNL     1      -0.585  13.512  20.867  0.00  0.00    +0.000 HD
ENDROOT
BRANCH   1   9
ATOM      5  C   UNL     1      -3.982  12.787  23.927  0.00  0.00    +0.000 A 
ATOM      6  C   UNL     1      -3.809  14.067  24.453  0.00  0.00    +0.000 A 
ATOM      7  C   UNL     1      -2.592  14.738  24.317  0.00  0.00    +0.000 A 
ATOM      8  C   UNL     1      -1.533  14.124  23.644  0.00  0.00    +0.000 A 
ATOM      9  C   UNL     1      -1.683  12.838  23.106  0.00  0.00    +0.000 A 
ATOM     10  C   UNL     1      -2.918  12.174  23.258  0.00  0.00    +0.000 A 
BRANCH   5  12
ATOM     11  C   UNL     1      -6.303  12.824  23.413  0.00  0.00    +0.000 C 
ATOM     12  O   UNL     1      -5.221  12.244  24.129  0.00  0.00    +0.000 OA
ENDBRANCH   5  12
BRANCH   8  13
ATOM     13  O   UNL     1      -0.349  14.806  23.520  0.00  0.00    +0.000 OA
ATOM     14  H   UNL     1      -0.534  15.699  23.181  0.00  0.00    +0.000 HD
ENDBRANCH   8  13
ENDBRANCH   1   9
BRANCH   3  15
ATOM     15  C   UNL     1       0.898  12.032  20.407  0.00  0.00    +0.000 C 
BRANCH  15  16
ATOM     16  C   UNL     1       0.338  11.166  19.278  0.00  0.00    +0.000 C 
BRANCH  16  17
ATOM     17  C   UNL     1       1.079   9.858  19.155  0.00  0.00    +0.000 A 
ATOM     18  C   UNL     1       1.647   9.493  17.930  0.00  0.00    +0.000 A 
ATOM     19  C   UNL     1       2.312   8.273  17.792  0.00  0.00    +0.000 A 
ATOM     20  C   UNL     1       2.421   7.383  18.871  0.00  0.00    +0.000 A 
ATOM     21  C   UNL     1       1.851   7.758  20.097  0.00  0.00    +0.000 A 
ATOM     22  C   UNL     1       1.186   8.981  20.239  0.00  0.00    +0.000 A 
BRANCH  20  23
ATOM     23  C   UNL     1       3.127   6.102  18.748  0.00  0.00    +0.000 A 
ATOM     24  C   UNL     1       4.041   5.680  17.797  0.00  0.00    +0.000 A 
ATOM     25  N   UNL     1       4.528   4.394  17.938  0.00  0.00    +0.000 NA
ATOM     26  C   UNL     1       3.986   3.841  19.001  0.00  0.00    +0.000 A 
ATOM     27  C   UNL     1       4.240   2.448  19.450  0.00  0.00    +0.000 C 
ATOM     28  S   UNL     1       2.911   4.834  19.891  0.00  0.00    +0.000 S 
ENDBRANCH  20  23
ENDBRANCH  16  17
ENDBRANCH  15  16
ENDBRANCH   3  15
TORSDOF 7
ENDMDL
