MODEL 1
REMARK VINA RESULT:      -7.3      0.000      0.000
REMARK  Name = 
REMARK  8 active torsions:
REMARK  status: ('A' for Active; 'I' for Inactive)
REMARK    1  A    between atoms: C_1  and  C_2
REMARK    2  A    between atoms: C_3  and  C_4
REMARK    3  A    between atoms: N_15  and  C_16
REMARK    4  A    between atoms: C_16  and  C_17
REMARK    5  A    between atoms: C_17  and  N_18
REMARK    6  A    between atoms: C_17  and  C_19
REMARK    7  A    between atoms: N_27  and  C_28
REMARK    8  A    between atoms: C_28  and  C_29
REMARK                            x       y       z     vdW  Elec       q    Type
REMARK                         _______ _______ _______ _____ _____    ______ ____
ROOT
ATOM      1  C   UNL     1       6.202  15.400  21.666  0.00  0.00    +0.000 C 
ATOM      2  C   UNL     1       7.493  15.623  20.915  0.00  0.00    +0.000 A 
ATOM      3  C   UNL     1       7.487  15.949  19.614  0.00  0.00    +0.000 A 
ATOM      4  C   UNL     1       8.790  16.352  19.016  0.00  0.00    +0.000 A 
ATOM      5  O   UNL     1       8.821  17.214  18.136  0.00  0.00    +0.000 OA
ATOM      6  N   UNL     1       9.897  15.724  19.516  0.00  0.00    +0.000 N 
ATOM      7  C   UNL     1       9.963  15.545  20.887  0.00  0.00    +0.000 A 
ATOM      8  O   UNL     1      11.043  15.516  21.490  0.00  0.00    +0.000 OA
ATOM      9  N   UNL     1       8.726  15.513  21.574  0.00  0.00    +0.000 N 
ENDROOT
BRANCH   3  10
ATOM     10  C   UNL     1       6.340  15.946  18.694  0.00  0.00    +0.000 A 
ATOM     11  C   UNL     1       5.935  14.738  18.082  0.00  0.00    +0.000 A 
ATOM     12  C   UNL     1       4.587  14.523  17.788  0.00  0.00    +0.000 A 
ATOM     13  C   UNL     1       3.706  15.510  18.162  0.00  0.00    +0.000 A 
ATOM     14  C   UNL     1       4.128  16.738  18.629  0.00  0.00    +0.000 A 
ATOM     15  C   UNL     1       5.452  17.021  18.843  0.00  0.00    +0.000 A 
ATOM     16  O   UNL     1       3.092  17.488  19.106  0.00  0.00    +0.000 OA
ATOM     17  C   UNL     1       2.141  16.419  19.286  0.00  0.00    +0.000 C 
ATOM     18  O   UNL     1       2.359  15.353  18.336  0.00  0.00    +0.000 OA
ENDBRANCH   3  10
BRANCH   6  19
ATOM     19  C   UNL     1      11.141  15.926  18.763  0.00  0.00    +0.000 C 
BRANCH  19  20
ATOM     20  C   UNL     1      11.454  14.928  17.608  0.00  0.00    +0.000 C 
BRANCH  20  21
ATOM     21  C   UNL     1      10.973  13.536  18.022  0.00  0.00    +0.000 A 
ATOM     22  C   UNL     1      11.719  12.767  18.929  0.00  0.00    +0.000 A 
ATOM     23  C   UNL     1      11.258  11.524  19.361  0.00  0.00    +0.000 A 
ATOM     24  C   UNL     1      10.042  11.021  18.889  0.00  0.00    +0.000 A 
ATOM     25  C   UNL     1       9.297  11.771  17.985  0.00  0.00    +0.000 A 
ATOM     26  C   UNL     1       9.758  13.014  17.549  0.00  0.00    +0.000 A 
ENDBRANCH  20  21
BRANCH  20  27
ATOM     27  N   UNL     1      10.920  15.294  16.295  0.00  0.00    +0.000 NA
ATOM     28  H   UNL     1      10.889  16.312  16.209  0.00  0.00    +0.000 HD
ATOM     29  H   UNL     1       9.963  14.954  16.208  0.00  0.00    +0.000 HD
ENDBRANCH  20  27
ENDBRANCH  19  20
ENDBRANCH   6  19
BRANCH   9  30
ATOM     30  C   UNL     1       8.808  15.350  23.031  0.00  0.00    +0.000 C 
BRANCH  30  31
ATOM     31  C   UNL     1       8.330  14.044  23.607  0.00  0.00    +0.000 A 
ATOM     32  C   UNL     1       8.644  12.777  23.121  0.00  0.00    +0.000 A 
ATOM     33  F   UNL     1       9.372  12.626  22.005  0.00  0.00    +0.000 F 
ATOM     34  C   UNL     1       8.210  11.618  23.773  0.00  0.00    +0.000 A 
ATOM     35  C   UNL     1       7.428  11.711  24.922  0.00  0.00    +0.000 A 
ATOM     36  C   UNL     1       7.055  12.966  25.395  0.00  0.00    +0.000 A 
ATOM     37  C   UNL     1       7.500  14.108  24.734  0.00  0.00    +0.000 A 
ATOM     38  F   UNL     1       7.118  15.306  25.203  0.00  0.00    +0.000 F 
ENDBRANCH  30  31
ENDBRANCH   9  30
TORSDOF 7
ENDMDL
MODEL 2
REMARK VINA RESULT:      -7.0      0.206      1.597
REMARK  Name = 
REMARK  8 active torsions:
REMARK  status: ('A' for Active; 'I' for Inactive)
REMARK    1  A    between atoms: C_1  and  C_2
REMARK    2  A    between atoms: C_3  and  C_4
REMARK    3  A    between atoms: N_15  and  C_16
REMARK    4  A    between atoms: C_16  and  C_17
REMARK    5  A    between atoms: C_17  and  N_18
REMARK    6  A    between atoms: C_17  and  C_19
REMARK    7  A    between atoms: N_27  and  C_28
REMARK    8  A    between atoms: C_28  and  C_29
REMARK                            x       y       z     vdW  Elec       q    Type
REMARK                         _______ _______ _______ _____ _____    ______ ____
ROOT
ATOM      1  C   UNL     1       6.204  15.365  21.682  0.00  0.00    +0.000 C 
ATOM      2  C   UNL     1       7.487  15.634  20.932  0.00  0.00    +0.000 A 
ATOM      3  C   UNL     1       7.469  15.982  19.637  0.00  0.00    +0.000 A 
ATOM      4  C   UNL     1       8.759  16.427  19.042  0.00  0.00    +0.000 A 
ATOM      5  O   UNL     1       8.765  17.305  18.177  0.00  0.00    +0.000 OA
ATOM      6  N   UNL     1       9.883  15.819  19.528  0.00  0.00    +0.000 N 
ATOM      7  C   UNL     1       9.958  15.617  20.895  0.00  0.00    +0.000 A 
ATOM      8  O   UNL     1      11.040  15.604  21.495  0.00  0.00    +0.000 OA
ATOM      9  N   UNL     1       8.724  15.543  21.585  0.00  0.00    +0.000 N 
ENDROOT
BRANCH   3  10
ATOM     10  C   UNL     1       6.319  15.966  18.720  0.00  0.00    +0.000 A 
ATOM     11  C   UNL     1       5.927  14.754  18.108  0.00  0.00    +0.000 A 
ATOM     12  C   UNL     1       4.580  14.523  17.818  0.00  0.00    +0.000 A 
ATOM     13  C   UNL     1       3.688  15.500  18.195  0.00  0.00    +0.000 A 
ATOM     14  C   UNL     1       4.098  16.732  18.663  0.00  0.00    +0.000 A 
ATOM     15  C   UNL     1       5.419  17.030  18.872  0.00  0.00    +0.000 A 
ATOM     16  O   UNL     1       3.054  17.470  19.143  0.00  0.00    +0.000 OA
ATOM     17  C   UNL     1       2.117  16.390  19.325  0.00  0.00    +0.000 C 
ATOM     18  O   UNL     1       2.344  15.327  18.373  0.00  0.00    +0.000 OA
ENDBRANCH   3  10
BRANCH   6  19
ATOM     19  C   UNL     1      11.119  16.065  18.775  0.00  0.00    +0.000 C 
BRANCH  19  20
ATOM     20  C   UNL     1      11.488  15.056  17.646  0.00  0.00    +0.000 C 
BRANCH  20  21
ATOM     21  C   UNL     1      11.079  13.651  18.094  0.00  0.00    +0.000 A 
ATOM     22  C   UNL     1       9.922  13.048  17.577  0.00  0.00    +0.000 A 
ATOM     23  C   UNL     1       9.575  11.745  17.931  0.00  0.00    +0.000 A 
ATOM     24  C   UNL     1      10.377  11.018  18.817  0.00  0.00    +0.000 A 
ATOM     25  C   UNL     1      11.523  11.608  19.341  0.00  0.00    +0.000 A 
ATOM     26  C   UNL     1      11.870  12.913  18.990  0.00  0.00    +0.000 A 
ENDBRANCH  20  21
BRANCH  20  27
ATOM     27  N   UNL     1      10.939  15.360  16.323  0.00  0.00    +0.000 NA
ATOM     28  H   UNL     1      11.247  16.290  16.030  0.00  0.00    +0.000 HD
ATOM     29  H   UNL     1       9.921  15.380  16.371  0.00  0.00    +0.000 HD
ENDBRANCH  20  27
ENDBRANCH  19  20
ENDBRANCH   6  19
BRANCH   9  30
ATOM     30  C   UNL     1       8.815  15.356  23.039  0.00  0.00    +0.000 C 
BRANCH  30  31
ATOM     31  C   UNL     1       8.242  14.086  23.609  0.00  0.00    +0.000 A 
ATOM     32  C   UNL     1       7.286  14.007  24.619  0.00  0.00    +0.000 A 
ATOM     33  F   UNL     1       6.841  15.110  25.238  0.00  0.00    +0.000 F 
ATOM     34  C   UNL     1       6.761  12.777  25.029  0.00  0.00    +0.000 A 
ATOM     35  C   UNL     1       7.204  11.594  24.443  0.00  0.00    +0.000 A 
ATOM     36  C   UNL     1       8.197  11.644  23.470  0.00  0.00    +0.000 A 
ATOM     37  C   UNL     1       8.706  12.878  23.072  0.00  0.00    +0.000 A 
ATOM     38  F   UNL     1       9.671  12.899  22.140  0.00  0.00    +0.000 F 
ENDBRANCH  30  31
ENDBRANCH   9  30
TORSDOF 7
ENDMDL
MODEL 3
REMARK VINA RESULT:      -6.6      7.496     10.384
REMARK  Name = 
REMARK  8 active torsions:
REMARK  status: ('A' for Active; 'I' for Inactive)
REMARK    1  A    between atoms: C_1  and  C_2
REMARK    2  A    between atoms: C_3  and  C_4
REMARK    3  A    between atoms: N_15  and  C_16
REMARK    4  A    between atoms: C_16  and  C_17
REMARK    5  A    between atoms: C_17  and  N_18
REMARK    6  A    between atoms: C_17  and  C_19
REMARK    7  A    between atoms: N_27  and  C_28
REMARK    8  A    between atoms: C_28  and  C_29
REMARK                            x       y       z     vdW  Elec       q    Type
REMARK                         _______ _______ _______ _____ _____    ______ ____
ROOT
ATOM      1  C   UNL     1      -0.405  14.297  18.748  0.00  0.00    +0.000 C 
ATOM      2  C   UNL     1      -0.044  12.877  19.113  0.00  0.00    +0.000 A 
ATOM      3  C   UNL     1       0.903  12.619  20.027  0.00  0.00    +0.000 A 
ATOM      4  C   UNL     1       1.042  11.205  20.471  0.00  0.00    +0.000 A 
ATOM      5  O   UNL     1       1.355  10.955  21.637  0.00  0.00    +0.000 OA
ATOM      6  N   UNL     1       0.787  10.253  19.523  0.00  0.00    +0.000 N 
ATOM      7  C   UNL     1      -0.302  10.455  18.693  0.00  0.00    +0.000 A 
ATOM      8  O   UNL     1      -0.943   9.512  18.215  0.00  0.00    +0.000 OA
ATOM      9  N   UNL     1      -0.712  11.799  18.516  0.00  0.00    +0.000 N 
ENDROOT
BRANCH   3  10
ATOM     10  C   UNL     1       1.840  13.571  20.641  0.00  0.00    +0.000 A 
ATOM     11  C   UNL     1       3.014  13.946  19.949  0.00  0.00    +0.000 A 
ATOM     12  C   UNL     1       3.542  15.229  20.114  0.00  0.00    +0.000 A 
ATOM     13  C   UNL     1       2.843  16.087  20.930  0.00  0.00    +0.000 A 
ATOM     14  C   UNL     1       1.781  15.666  21.706  0.00  0.00    +0.000 A 
ATOM     15  C   UNL     1       1.293  14.388  21.641  0.00  0.00    +0.000 A 
ATOM     16  O   UNL     1       1.130  16.713  22.293  0.00  0.00    +0.000 OA
ATOM     17  C   UNL     1       1.622  17.759  21.431  0.00  0.00    +0.000 C 
ATOM     18  O   UNL     1       2.939  17.450  20.924  0.00  0.00    +0.000 OA
ENDBRANCH   3  10
BRANCH   6  19
ATOM     19  C   UNL     1       1.166   8.879  19.879  0.00  0.00    +0.000 C 
BRANCH  19  20
ATOM     20  C   UNL     1       2.241   8.177  18.995  0.00  0.00    +0.000 C 
BRANCH  20  21
ATOM     21  C   UNL     1       2.120   6.665  19.189  0.00  0.00    +0.000 A 
ATOM     22  C   UNL     1       1.859   6.130  20.460  0.00  0.00    +0.000 A 
ATOM     23  C   UNL     1       1.685   4.758  20.637  0.00  0.00    +0.000 A 
ATOM     24  C   UNL     1       1.774   3.889  19.545  0.00  0.00    +0.000 A 
ATOM     25  C   UNL     1       2.039   4.408  18.281  0.00  0.00    +0.000 A 
ATOM     26  C   UNL     1       2.217   5.780  18.103  0.00  0.00    +0.000 A 
ENDBRANCH  20  21
BRANCH  20  27
ATOM     27  N   UNL     1       2.214   8.523  17.573  0.00  0.00    +0.000 NA
ATOM     28  H   UNL     1       1.507   9.243  17.409  0.00  0.00    +0.000 HD
ATOM     29  H   UNL     1       1.944   7.705  17.027  0.00  0.00    +0.000 HD
ENDBRANCH  20  27
ENDBRANCH  19  20
ENDBRANCH   6  19
BRANCH   9  30
ATOM     30  C   UNL     1      -1.884  12.001  17.656  0.00  0.00    +0.000 C 
BRANCH  30  31
ATOM     31  C   UNL     1      -3.240  11.815  18.282  0.00  0.00    +0.000 A 
ATOM     32  C   UNL     1      -3.667  12.383  19.481  0.00  0.00    +0.000 A 
ATOM     33  F   UNL     1      -2.832  13.111  20.237  0.00  0.00    +0.000 F 
ATOM     34  C   UNL     1      -4.975  12.210  19.944  0.00  0.00    +0.000 A 
ATOM     35  C   UNL     1      -5.881  11.440  19.216  0.00  0.00    +0.000 A 
ATOM     36  C   UNL     1      -5.462  10.819  18.044  0.00  0.00    +0.000 A 
ATOM     37  C   UNL     1      -4.156  11.006  17.597  0.00  0.00    +0.000 A 
ATOM     38  F   UNL     1      -3.773  10.387  16.470  0.00  0.00    +0.000 F 
ENDBRANCH  30  31
ENDBRANCH   9  30
TORSDOF 7
ENDMDL
MODEL 4
REMARK VINA RESULT:      -6.5      8.762     11.836
REMARK  Name = 
REMARK  8 active torsions:
REMARK  status: ('A' for Active; 'I' for Inactive)
REMARK    1  A    between atoms: C_1  and  C_2
REMARK    2  A    between atoms: C_3  and  C_4
REMARK    3  A    between atoms: N_15  and  C_16
REMARK    4  A    between atoms: C_16  and  C_17
REMARK    5  A    between atoms: C_17  and  N_18
REMARK    6  A    between atoms: C_17  and  C_19
REMARK    7  A    between atoms: N_27  and  C_28
REMARK    8  A    between atoms: C_28  and  C_29
REMARK                            x       y       z     vdW  Elec       q    Type
REMARK                         _______ _______ _______ _____ _____    ______ ____
ROOT
ATOM      1  C   UNL     1       1.485  10.424  22.185  0.00  0.00    +0.000 C 
ATOM      2  C   UNL     1       0.555  10.702  21.028  0.00  0.00    +0.000 A 
ATOM      3  C   UNL     1      -0.505  11.510  21.174  0.00  0.00    +0.000 A 
ATOM      4  C   UNL     1      -1.238  11.889  19.934  0.00  0.00    +0.000 A 
ATOM      5  O   UNL     1      -1.742  13.009  19.837  0.00  0.00    +0.000 OA
ATOM      6  N   UNL     1      -1.287  10.936  18.955  0.00  0.00    +0.000 N 
ATOM      7  C   UNL     1      -0.129  10.222  18.702  0.00  0.00    +0.000 A 
ATOM      8  O   UNL     1       0.129   9.774  17.578  0.00  0.00    +0.000 OA
ATOM      9  N   UNL     1       0.796  10.133  19.769  0.00  0.00    +0.000 N 
ENDROOT
BRANCH   3  10
ATOM     10  C   UNL     1      -1.045  12.066  22.424  0.00  0.00    +0.000 A 
ATOM     11  C   UNL     1      -0.649  13.355  22.847  0.00  0.00    +0.000 A 
ATOM     12  C   UNL     1      -1.541  14.160  23.558  0.00  0.00    +0.000 A 
ATOM     13  C   UNL     1      -2.801  13.651  23.772  0.00  0.00    +0.000 A 
ATOM     14  C   UNL     1      -3.127  12.343  23.477  0.00  0.00    +0.000 A 
ATOM     15  C   UNL     1      -2.246  11.492  22.864  0.00  0.00    +0.000 A 
ATOM     16  O   UNL     1      -4.467  12.110  23.601  0.00  0.00    +0.000 OA
ATOM     17  C   UNL     1      -4.912  13.480  23.542  0.00  0.00    +0.000 C 
ATOM     18  O   UNL     1      -3.916  14.382  24.074  0.00  0.00    +0.000 OA
ENDBRANCH   3  10
BRANCH   6  19
ATOM     19  C   UNL     1      -2.215  11.204  17.848  0.00  0.00    +0.000 C 
BRANCH  19  20
ATOM     20  C   UNL     1      -3.367  10.181  17.610  0.00  0.00    +0.000 C 
BRANCH  20  21
ATOM     21  C   UNL     1      -4.704  10.906  17.774  0.00  0.00    +0.000 A 
ATOM     22  C   UNL     1      -4.997  12.041  17.002  0.00  0.00    +0.000 A 
ATOM     23  C   UNL     1      -6.237  12.671  17.099  0.00  0.00    +0.000 A 
ATOM     24  C   UNL     1      -7.210  12.181  17.976  0.00  0.00    +0.000 A 
ATOM     25  C   UNL     1      -6.929  11.060  18.750  0.00  0.00    +0.000 A 
ATOM     26  C   UNL     1      -5.687  10.430  18.657  0.00  0.00    +0.000 A 
ENDBRANCH  20  21
BRANCH  20  27
ATOM     27  N   UNL     1      -3.318   9.461  16.336  0.00  0.00    +0.000 NA
ATOM     28  H   UNL     1      -4.267   9.334  15.978  0.00  0.00    +0.000 HD
ATOM     29  H   UNL     1      -2.924   8.533  16.483  0.00  0.00    +0.000 HD
ENDBRANCH  20  27
ENDBRANCH  19  20
ENDBRANCH   6  19
BRANCH   9  30
ATOM     30  C   UNL     1       2.033   9.396  19.483  0.00  0.00    +0.000 C 
BRANCH  30  31
ATOM     31  C   UNL     1       1.967   7.893  19.523  0.00  0.00    +0.000 A 
ATOM     32  C   UNL     1       1.535   7.126  20.603  0.00  0.00    +0.000 A 
ATOM     33  F   UNL     1       1.200   7.700  21.768  0.00  0.00    +0.000 F 
ATOM     34  C   UNL     1       1.439   5.734  20.515  0.00  0.00    +0.000 A 
ATOM     35  C   UNL     1       1.799   5.078  19.339  0.00  0.00    +0.000 A 
ATOM     36  C   UNL     1       2.285   5.818  18.266  0.00  0.00    +0.000 A 
ATOM     37  C   UNL     1       2.370   7.204  18.371  0.00  0.00    +0.000 A 
ATOM     38  F   UNL     1       2.852   7.895  17.326  0.00  0.00    +0.000 F 
ENDBRANCH  30  31
ENDBRANCH   9  30
TORSDOF 7
ENDMDL
MODEL 5
REMARK VINA RESULT:      -6.4      7.632     10.516
REMARK  Name = 
REMARK  8 active torsions:
REMARK  status: ('A' for Active; 'I' for Inactive)
REMARK    1  A    between atoms: C_1  and  C_2
REMARK    2  A    between atoms: C_3  and  C_4
REMARK    3  A    between atoms: N_15  and  C_16
REMARK    4  A    between atoms: C_16  and  C_17
REMARK    5  A    between atoms: C_17  and  N_18
REMARK    6  A    between atoms: C_17  and  C_19
REMARK    7  A    between atoms: N_27  and  C_28
REMARK    8  A    between atoms: C_28  and  C_29
REMARK                            x       y       z     vdW  Elec       q    Type
REMARK                         _______ _______ _______ _____ _____    ______ ____
ROOT
ATOM      1  C   UNL     1      -0.678  17.012  22.149  0.00  0.00    +0.000 C 
ATOM      2  C   UNL     1      -0.729  15.647  21.503  0.00  0.00    +0.000 A 
ATOM      3  C   UNL     1      -1.725  14.792  21.777  0.00  0.00    +0.000 A 
ATOM      4  C   UNL     1      -1.805  13.563  20.940  0.00  0.00    +0.000 A 
ATOM      5  O   UNL     1      -2.905  13.086  20.654  0.00  0.00    +0.000 OA
ATOM      6  N   UNL     1      -0.610  13.046  20.523  0.00  0.00    +0.000 N 
ATOM      7  C   UNL     1       0.352  13.938  20.084  0.00  0.00    +0.000 A 
ATOM      8  O   UNL     1       1.186  13.628  19.224  0.00  0.00    +0.000 OA
ATOM      9  N   UNL     1       0.258  15.258  20.587  0.00  0.00    +0.000 N 
ENDROOT
BRANCH   3  10
ATOM     10  C   UNL     1      -2.753  14.916  22.821  0.00  0.00    +0.000 A 
ATOM     11  C   UNL     1      -3.866  15.762  22.614  0.00  0.00    +0.000 A 
ATOM     12  C   UNL     1      -5.103  15.439  23.175  0.00  0.00    +0.000 A 
ATOM     13  C   UNL     1      -5.175  14.260  23.880  0.00  0.00    +0.000 A 
ATOM     14  C   UNL     1      -4.053  13.517  24.191  0.00  0.00    +0.000 A 
ATOM     15  C   UNL     1      -2.806  13.855  23.736  0.00  0.00    +0.000 A 
ATOM     16  O   UNL     1      -4.376  12.306  24.733  0.00  0.00    +0.000 OA
ATOM     17  C   UNL     1      -5.744  12.246  24.282  0.00  0.00    +0.000 C 
ATOM     18  O   UNL     1      -6.319  13.567  24.162  0.00  0.00    +0.000 OA
ENDBRANCH   3  10
BRANCH   6  19
ATOM     19  C   UNL     1      -0.669  11.707  19.921  0.00  0.00    +0.000 C 
BRANCH  19  20
ATOM     20  C   UNL     1      -0.244  10.499  20.810  0.00  0.00    +0.000 C 
BRANCH  20  21
ATOM     21  C   UNL     1       0.638   9.567  19.976  0.00  0.00    +0.000 A 
ATOM     22  C   UNL     1       0.880   9.841  18.621  0.00  0.00    +0.000 A 
ATOM     23  C   UNL     1       1.732   9.033  17.869  0.00  0.00    +0.000 A 
ATOM     24  C   UNL     1       2.358   7.929  18.457  0.00  0.00    +0.000 A 
ATOM     25  C   UNL     1       2.121   7.645  19.799  0.00  0.00    +0.000 A 
ATOM     26  C   UNL     1       1.266   8.450  20.551  0.00  0.00    +0.000 A 
ENDBRANCH  20  21
BRANCH  20  27
ATOM     27  N   UNL     1       0.410  10.843  22.073  0.00  0.00    +0.000 NA
ATOM     28  H   UNL     1       1.326  10.390  22.119  0.00  0.00    +0.000 HD
ATOM     29  H   UNL     1      -0.141  10.486  22.852  0.00  0.00    +0.000 HD
ENDBRANCH  20  27
ENDBRANCH  19  20
ENDBRANCH   6  19
BRANCH   9  30
ATOM     30  C   UNL     1       1.267  16.203  20.094  0.00  0.00    +0.000 C 
BRANCH  30  31
ATOM     31  C   UNL     1       0.980  16.902  18.792  0.00  0.00    +0.000 A 
ATOM     32  C   UNL     1      -0.275  17.317  18.351  0.00  0.00    +0.000 A 
ATOM     33  F   UNL     1      -1.382  17.043  19.057  0.00  0.00    +0.000 F 
ATOM     34  C   UNL     1      -0.429  18.028  17.156  0.00  0.00    +0.000 A 
ATOM     35  C   UNL     1       0.681  18.318  16.365  0.00  0.00    +0.000 A 
ATOM     36  C   UNL     1       1.937  17.868  16.758  0.00  0.00    +0.000 A 
ATOM     37  C   UNL     1       2.071  17.165  17.953  0.00  0.00    +0.000 A 
ATOM     38  F   UNL     1       3.291  16.731  18.304  0.00  0.00    +0.000 F 
ENDBRANCH  30  31
ENDBRANCH   9  30
TORSDOF 7
ENDMDL
MODEL 6
REMARK VINA RESULT:      -6.3      2.947      6.828
REMARK  Name = 
REMARK  8 active torsions:
REMARK  status: ('A' for Active; 'I' for Inactive)
REMARK    1  A    between atoms: C_1  and  C_2
REMARK    2  A    between atoms: C_3  and  C_4
REMARK    3  A    between atoms: N_15  and  C_16
REMARK    4  A    between atoms: C_16  and  C_17
REMARK    5  A    between atoms: C_17  and  N_18
REMARK    6  A    between atoms: C_17  and  C_19
REMARK    7  A    between atoms: N_27  and  C_28
REMARK    8  A    between atoms: C_28  and  C_29
REMARK                            x       y       z     vdW  Elec       q    Type
REMARK                         _______ _______ _______ _____ _____    ______ ____
ROOT
ATOM      1  C   UNL     1       9.081  13.648  22.272  0.00  0.00    +0.000 C 
ATOM      2  C   UNL     1       7.916  14.226  21.503  0.00  0.00    +0.000 A 
ATOM      3  C   UNL     1       6.685  14.253  22.034  0.00  0.00    +0.000 A 
ATOM      4  C   UNL     1       5.650  15.025  21.293  0.00  0.00    +0.000 A 
ATOM      5  O   UNL     1       4.773  15.630  21.914  0.00  0.00    +0.000 OA
ATOM      6  N   UNL     1       5.762  15.019  19.930  0.00  0.00    +0.000 N 
ATOM      7  C   UNL     1       7.030  15.160  19.395  0.00  0.00    +0.000 A 
ATOM      8  O   UNL     1       7.218  15.696  18.295  0.00  0.00    +0.000 OA
ATOM      9  N   UNL     1       8.107  14.763  20.223  0.00  0.00    +0.000 N 
ENDROOT
BRANCH   3  10
ATOM     10  C   UNL     1       6.225  13.597  23.268  0.00  0.00    +0.000 A 
ATOM     11  C   UNL     1       6.209  12.186  23.348  0.00  0.00    +0.000 A 
ATOM     12  C   UNL     1       6.440  11.555  24.572  0.00  0.00    +0.000 A 
ATOM     13  C   UNL     1       6.719  12.367  25.646  0.00  0.00    +0.000 A 
ATOM     14  C   UNL     1       6.593  13.740  25.584  0.00  0.00    +0.000 A 
ATOM     15  C   UNL     1       6.276  14.392  24.422  0.00  0.00    +0.000 A 
ATOM     16  O   UNL     1       7.090  14.350  26.701  0.00  0.00    +0.000 OA
ATOM     17  C   UNL     1       7.904  13.259  27.176  0.00  0.00    +0.000 C 
ATOM     18  O   UNL     1       7.346  11.981  26.798  0.00  0.00    +0.000 OA
ENDBRANCH   3  10
BRANCH   6  19
ATOM     19  C   UNL     1       4.612  15.557  19.192  0.00  0.00    +0.000 C 
BRANCH  19  20
ATOM     20  C   UNL     1       3.978  14.656  18.090  0.00  0.00    +0.000 C 
BRANCH  20  21
ATOM     21  C   UNL     1       2.918  13.764  18.739  0.00  0.00    +0.000 A 
ATOM     22  C   UNL     1       2.255  14.180  19.904  0.00  0.00    +0.000 A 
ATOM     23  C   UNL     1       1.245  13.403  20.469  0.00  0.00    +0.000 A 
ATOM     24  C   UNL     1       0.878  12.189  19.881  0.00  0.00    +0.000 A 
ATOM     25  C   UNL     1       1.532  11.763  18.729  0.00  0.00    +0.000 A 
ATOM     26  C   UNL     1       2.546  12.537  18.165  0.00  0.00    +0.000 A 
ENDBRANCH  20  21
BRANCH  20  27
ATOM     27  N   UNL     1       3.424  15.366  16.936  0.00  0.00    +0.000 NA
ATOM     28  H   UNL     1       2.569  14.899  16.624  0.00  0.00    +0.000 HD
ATOM     29  H   UNL     1       4.086  15.330  16.161  0.00  0.00    +0.000 HD
ENDBRANCH  20  27
ENDBRANCH  19  20
ENDBRANCH   6  19
BRANCH   9  30
ATOM     30  C   UNL     1       9.449  14.942  19.656  0.00  0.00    +0.000 C 
BRANCH  30  31
ATOM     31  C   UNL     1      10.162  13.710  19.167  0.00  0.00    +0.000 A 
ATOM     32  C   UNL     1       9.610  12.717  18.361  0.00  0.00    +0.000 A 
ATOM     33  F   UNL     1       8.318  12.753  18.006  0.00  0.00    +0.000 F 
ATOM     34  C   UNL     1      10.380  11.645  17.897  0.00  0.00    +0.000 A 
ATOM     35  C   UNL     1      11.722  11.537  18.254  0.00  0.00    +0.000 A 
ATOM     36  C   UNL     1      12.280  12.488  19.103  0.00  0.00    +0.000 A 
ATOM     37  C   UNL     1      11.500  13.550  19.552  0.00  0.00    +0.000 A 
ATOM     38  F   UNL     1      12.059  14.448  20.379  0.00  0.00    +0.000 F 
ENDBRANCH  30  31
ENDBRANCH   9  30
TORSDOF 7
ENDMDL
MODEL 7
REMARK VINA RESULT:      -6.3      8.734     12.493
REMARK  Name = 
REMARK  8 active torsions:
REMARK  status: ('A' for Active; 'I' for Inactive)
REMARK    1  A    between atoms: C_1  and  C_2
REMARK    2  A    between atoms: C_3  and  C_4
REMARK    3  A    between atoms: N_15  and  C_16
REMARK    4  A    between atoms: C_16  and  C_17
REMARK    5  A    between atoms: C_17  and  N_18
REMARK    6  A    between atoms: C_17  and  C_19
REMARK    7  A    between atoms: N_27  and  C_28
REMARK    8  A    between atoms: C_28  and  C_29
REMARK                            x       y       z     vdW  Elec       q    Type
REMARK                         _______ _______ _______ _____ _____    ______ ____
ROOT
ATOM      1  C   UNL     1      -0.135  13.998  18.677  0.00  0.00    +0.000 C 
ATOM      2  C   UNL     1      -1.031  14.118  19.887  0.00  0.00    +0.000 A 
ATOM      3  C   UNL     1      -1.333  15.317  20.405  0.00  0.00    +0.000 A 
ATOM      4  C   UNL     1      -2.383  15.349  21.460  0.00  0.00    +0.000 A 
ATOM      5  O   UNL     1      -3.148  16.312  21.536  0.00  0.00    +0.000 OA
ATOM      6  N   UNL     1      -2.431  14.261  22.287  0.00  0.00    +0.000 N 
ATOM      7  C   UNL     1      -2.284  13.013  21.708  0.00  0.00    +0.000 A 
ATOM      8  O   UNL     1      -2.821  12.005  22.183  0.00  0.00    +0.000 OA
ATOM      9  N   UNL     1      -1.580  12.972  20.480  0.00  0.00    +0.000 N 
ENDROOT
BRANCH   3  10
ATOM     10  C   UNL     1      -0.739  16.618  20.062  0.00  0.00    +0.000 A 
ATOM     11  C   UNL     1       0.572  16.926  20.490  0.00  0.00    +0.000 A 
ATOM     12  C   UNL     1       1.388  17.744  19.706  0.00  0.00    +0.000 A 
ATOM     13  C   UNL     1       0.866  18.176  18.509  0.00  0.00    +0.000 A 
ATOM     14  C   UNL     1      -0.458  17.984  18.170  0.00  0.00    +0.000 A 
ATOM     15  C   UNL     1      -1.316  17.266  18.960  0.00  0.00    +0.000 A 
ATOM     16  O   UNL     1      -0.709  18.332  16.873  0.00  0.00    +0.000 OA
ATOM     17  C   UNL     1       0.650  18.298  16.393  0.00  0.00    +0.000 C 
ATOM     18  O   UNL     1       1.589  18.629  17.441  0.00  0.00    +0.000 OA
ENDBRANCH   3  10
BRANCH   6  19
ATOM     19  C   UNL     1      -3.284  14.399  23.475  0.00  0.00    +0.000 C 
BRANCH  19  20
ATOM     20  C   UNL     1      -4.680  15.067  23.286  0.00  0.00    +0.000 C 
BRANCH  20  21
ATOM     21  C   UNL     1      -5.696  13.980  22.932  0.00  0.00    +0.000 A 
ATOM     22  C   UNL     1      -6.363  13.272  23.944  0.00  0.00    +0.000 A 
ATOM     23  C   UNL     1      -7.336  12.324  23.632  0.00  0.00    +0.000 A 
ATOM     24  C   UNL     1      -7.660  12.059  22.298  0.00  0.00    +0.000 A 
ATOM     25  C   UNL     1      -7.002  12.750  21.286  0.00  0.00    +0.000 A 
ATOM     26  C   UNL     1      -6.025  13.697  21.596  0.00  0.00    +0.000 A 
ENDBRANCH  20  21
BRANCH  20  27
ATOM     27  N   UNL     1      -5.152  15.873  24.413  0.00  0.00    +0.000 NA
ATOM     28  H   UNL     1      -4.774  16.820  24.338  0.00  0.00    +0.000 HD
ATOM     29  H   UNL     1      -4.805  15.478  25.286  0.00  0.00    +0.000 HD
ENDBRANCH  20  27
ENDBRANCH  19  20
ENDBRANCH   6  19
BRANCH   9  30
ATOM     30  C   UNL     1      -1.452  11.648  19.860  0.00  0.00    +0.000 C 
BRANCH  30  31
ATOM     31  C   UNL     1      -2.307  11.365  18.654  0.00  0.00    +0.000 A 
ATOM     32  C   UNL     1      -3.616  11.805  18.463  0.00  0.00    +0.000 A 
ATOM     33  F   UNL     1      -4.264  12.482  19.421  0.00  0.00    +0.000 F 
ATOM     34  C   UNL     1      -4.302  11.552  17.271  0.00  0.00    +0.000 A 
ATOM     35  C   UNL     1      -3.691  10.829  16.249  0.00  0.00    +0.000 A 
ATOM     36  C   UNL     1      -2.405  10.334  16.438  0.00  0.00    +0.000 A 
ATOM     37  C   UNL     1      -1.735  10.599  17.630  0.00  0.00    +0.000 A 
ATOM     38  F   UNL     1      -0.500  10.100  17.793  0.00  0.00    +0.000 F 
ENDBRANCH  30  31
ENDBRANCH   9  30
TORSDOF 7
ENDMDL
MODEL 8
REMARK VINA RESULT:      -6.3      5.860      8.373
REMARK  Name = 
REMARK  8 active torsions:
REMARK  status: ('A' for Active; 'I' for Inactive)
REMARK    1  A    between atoms: C_1  and  C_2
REMARK    2  A    between atoms: C_3  and  C_4
REMARK    3  A    between atoms: N_15  and  C_16
REMARK    4  A    between atoms: C_16  and  C_17
REMARK    5  A    between atoms: C_17  and  N_18
REMARK    6  A    between atoms: C_17  and  C_19
REMARK    7  A    between atoms: N_27  and  C_28
REMARK    8  A    between atoms: C_28  and  C_29
REMARK                            x       y       z     vdW  Elec       q    Type
REMARK                         _______ _______ _______ _____ _____    ______ ____
ROOT
ATOM      1  C   UNL     1      -1.728  12.287  20.716  0.00  0.00    +0.000 C 
ATOM      2  C   UNL     1      -0.320  12.814  20.569  0.00  0.00    +0.000 A 
ATOM      3  C   UNL     1       0.117  13.831  21.325  0.00  0.00    +0.000 A 
ATOM      4  C   UNL     1       1.572  14.142  21.257  0.00  0.00    +0.000 A 
ATOM      5  O   UNL     1       2.162  14.542  22.263  0.00  0.00    +0.000 OA
ATOM      6  N   UNL     1       2.170  13.939  20.045  0.00  0.00    +0.000 N 
ATOM      7  C   UNL     1       1.829  12.793  19.350  0.00  0.00    +0.000 A 
ATOM      8  O   UNL     1       2.624  12.231  18.586  0.00  0.00    +0.000 OA
ATOM      9  N   UNL     1       0.563  12.234  19.648  0.00  0.00    +0.000 N 
ENDROOT
BRANCH   3  10
ATOM     10  C   UNL     1      -0.675  14.694  22.215  0.00  0.00    +0.000 A 
ATOM     11  C   UNL     1      -1.247  15.884  21.712  0.00  0.00    +0.000 A 
ATOM     12  C   UNL     1      -2.460  16.346  22.227  0.00  0.00    +0.000 A 
ATOM     13  C   UNL     1      -3.062  15.570  23.189  0.00  0.00    +0.000 A 
ATOM     14  C   UNL     1      -2.427  14.489  23.768  0.00  0.00    +0.000 A 
ATOM     15  C   UNL     1      -1.193  14.061  23.354  0.00  0.00    +0.000 A 
ATOM     16  O   UNL     1      -3.271  13.764  24.560  0.00  0.00    +0.000 OA
ATOM     17  C   UNL     1      -4.516  14.253  24.021  0.00  0.00    +0.000 C 
ATOM     18  O   UNL     1      -4.384  15.606  23.533  0.00  0.00    +0.000 OA
ENDBRANCH   3  10
BRANCH   6  19
ATOM     19  C   UNL     1       3.528  14.481  19.904  0.00  0.00    +0.000 C 
BRANCH  19  20
ATOM     20  C   UNL     1       3.708  15.755  19.025  0.00  0.00    +0.000 C 
BRANCH  20  21
ATOM     21  C   UNL     1       5.182  15.872  18.630  0.00  0.00    +0.000 A 
ATOM     22  C   UNL     1       5.917  17.022  18.958  0.00  0.00    +0.000 A 
ATOM     23  C   UNL     1       7.275  17.112  18.658  0.00  0.00    +0.000 A 
ATOM     24  C   UNL     1       7.927  16.053  18.018  0.00  0.00    +0.000 A 
ATOM     25  C   UNL     1       7.208  14.910  17.683  0.00  0.00    +0.000 A 
ATOM     26  C   UNL     1       5.847  14.820  17.979  0.00  0.00    +0.000 A 
ENDBRANCH  20  21
BRANCH  20  27
ATOM     27  N   UNL     1       2.846  15.836  17.845  0.00  0.00    +0.000 NA
ATOM     28  H   UNL     1       3.369  15.540  17.018  0.00  0.00    +0.000 HD
ATOM     29  H   UNL     1       2.563  16.803  17.692  0.00  0.00    +0.000 HD
ENDBRANCH  20  27
ENDBRANCH  19  20
ENDBRANCH   6  19
BRANCH   9  30
ATOM     30  C   UNL     1       0.221  11.003  18.925  0.00  0.00    +0.000 C 
BRANCH  30  31
ATOM     31  C   UNL     1       0.870   9.727  19.391  0.00  0.00    +0.000 A 
ATOM     32  C   UNL     1       0.743   9.166  20.660  0.00  0.00    +0.000 A 
ATOM     33  F   UNL     1       0.060   9.795  21.628  0.00  0.00    +0.000 F 
ATOM     34  C   UNL     1       1.326   7.934  20.974  0.00  0.00    +0.000 A 
ATOM     35  C   UNL     1       2.071   7.247  20.018  0.00  0.00    +0.000 A 
ATOM     36  C   UNL     1       2.257   7.813  18.761  0.00  0.00    +0.000 A 
ATOM     37  C   UNL     1       1.665   9.039  18.465  0.00  0.00    +0.000 A 
ATOM     38  F   UNL     1       1.869   9.569  17.250  0.00  0.00    +0.000 F 
ENDBRANCH  30  31
ENDBRANCH   9  30
TORSDOF 7
ENDMDL
MODEL 9
REMARK VINA RESULT:      -6.3      6.436      9.683
REMARK  Name = 
REMARK  8 active torsions:
REMARK  status: ('A' for Active; 'I' for Inactive)
REMARK    1  A    between atoms: C_1  and  C_2
REMARK    2  A    between atoms: C_3  and  C_4
REMARK    3  A    between atoms: N_15  and  C_16
REMARK    4  A    between atoms: C_16  and  C_17
REMARK    5  A    between atoms: C_17  and  N_18
REMARK    6  A    between atoms: C_17  and  C_19
REMARK    7  A    between atoms: N_27  and  C_28
REMARK    8  A    between atoms: C_28  and  C_29
REMARK                            x       y       z     vdW  Elec       q    Type
REMARK                         _______ _______ _______ _____ _____    ______ ____
ROOT
ATOM      1  C   UNL     1       0.389  16.340  22.994  0.00  0.00    +0.000 C 
ATOM      2  C   UNL     1       0.166  15.062  22.220  0.00  0.00    +0.000 A 
ATOM      3  C   UNL     1      -1.013  14.424  22.267  0.00  0.00    +0.000 A 
ATOM      4  C   UNL     1      -1.206  13.297  21.314  0.00  0.00    +0.000 A 
ATOM      5  O   UNL     1      -2.320  13.084  20.831  0.00  0.00    +0.000 OA
ATOM      6  N   UNL     1      -0.089  12.563  21.022  0.00  0.00    +0.000 N 
ATOM      7  C   UNL     1       1.090  13.256  20.810  0.00  0.00    +0.000 A 
ATOM      8  O   UNL     1       1.970  12.830  20.051  0.00  0.00    +0.000 OA
ATOM      9  N   UNL     1       1.186  14.530  21.419  0.00  0.00    +0.000 N 
ENDROOT
BRANCH   3  10
ATOM     10  C   UNL     1      -2.146  14.698  23.163  0.00  0.00    +0.000 A 
ATOM     11  C   UNL     1      -3.027  15.765  22.875  0.00  0.00    +0.000 A 
ATOM     12  C   UNL     1      -4.375  15.671  23.227  0.00  0.00    +0.000 A 
ATOM     13  C   UNL     1      -4.784  14.494  23.810  0.00  0.00    +0.000 A 
ATOM     14  C   UNL     1      -3.891  13.521  24.210  0.00  0.00    +0.000 A 
ATOM     15  C   UNL     1      -2.546  13.620  23.967  0.00  0.00    +0.000 A 
ATOM     16  O   UNL     1      -4.524  12.374  24.595  0.00  0.00    +0.000 OA
ATOM     17  C   UNL     1      -5.790  12.622  23.952  0.00  0.00    +0.000 C 
ATOM     18  O   UNL     1      -6.070  14.037  23.867  0.00  0.00    +0.000 OA
ENDBRANCH   3  10
BRANCH   6  19
ATOM     19  C   UNL     1      -0.321  11.310  20.293  0.00  0.00    +0.000 C 
BRANCH  19  20
ATOM     20  C   UNL     1       0.107   9.982  20.988  0.00  0.00    +0.000 C 
BRANCH  20  21
ATOM     21  C   UNL     1       0.978   9.182  20.018  0.00  0.00    +0.000 A 
ATOM     22  C   UNL     1       1.615   8.004  20.441  0.00  0.00    +0.000 A 
ATOM     23  C   UNL     1       2.360   7.234  19.548  0.00  0.00    +0.000 A 
ATOM     24  C   UNL     1       2.488   7.630  18.213  0.00  0.00    +0.000 A 
ATOM     25  C   UNL     1       1.866   8.798  17.784  0.00  0.00    +0.000 A 
ATOM     26  C   UNL     1       1.123   9.571  18.677  0.00  0.00    +0.000 A 
ENDBRANCH  20  21
BRANCH  20  27
ATOM     27  N   UNL     1       0.774  10.133  22.282  0.00  0.00    +0.000 NA
ATOM     28  H   UNL     1       1.686  10.574  22.148  0.00  0.00    +0.000 HD
ATOM     29  H   UNL     1       0.940   9.215  22.692  0.00  0.00    +0.000 HD
ENDBRANCH  20  27
ENDBRANCH  19  20
ENDBRANCH   6  19
BRANCH   9  30
ATOM     30  C   UNL     1       2.429  15.268  21.165  0.00  0.00    +0.000 C 
BRANCH  30  31
ATOM     31  C   UNL     1       2.645  15.799  19.774  0.00  0.00    +0.000 A 
ATOM     32  C   UNL     1       3.627  15.370  18.882  0.00  0.00    +0.000 A 
ATOM     33  F   UNL     1       4.540  14.459  19.246  0.00  0.00    +0.000 F 
ATOM     34  C   UNL     1       3.698  15.875  17.580  0.00  0.00    +0.000 A 
ATOM     35  C   UNL     1       2.793  16.845  17.153  0.00  0.00    +0.000 A 
ATOM     36  C   UNL     1       1.839  17.328  18.042  0.00  0.00    +0.000 A 
ATOM     37  C   UNL     1       1.780  16.810  19.334  0.00  0.00    +0.000 A 
ATOM     38  F   UNL     1       0.859  17.300  20.176  0.00  0.00    +0.000 F 
ENDBRANCH  30  31
ENDBRANCH   9  30
TORSDOF 7
ENDMDL
