MODEL 1
REMARK VINA RESULT:      -7.6      0.000      0.000
REMARK  Name = 
REMARK  10 active torsions:
REMARK  status: ('A' for Active; 'I' for Inactive)
REMARK    1  A    between atoms: C_1  and  O_2
REMARK    2  A    between atoms: O_2  and  C_3
REMARK    3  A    between atoms: C_6  and  C_7
REMARK    4  A    between atoms: C_7  and  C_8
REMARK    5  A    between atoms: C_8  and  N_9
REMARK    6  A    between atoms: C_10  and  C_12
REMARK    7  A    between atoms: C_12  and  O_13
REMARK    8  A    between atoms: O_13  and  C_14
REMARK    9  A    between atoms: C_26  and  O_27
REMARK   10  A    between atoms: O_27  and  C_28
REMARK                            x       y       z     vdW  Elec       q    Type
REMARK                         _______ _______ _______ _____ _____    ______ ____
ROOT
ATOM      1  N   UNL     1       7.558   7.386  17.293  0.00  0.00    +0.000 N 
ATOM      2  C   UNL     1       7.302   6.106  17.743  0.00  0.00    +0.000 C 
ATOM      3  O   UNL     1       7.758   5.657  18.791  0.00  0.00    +0.000 OA
ATOM      4  H   UNL     1       7.014   7.723  16.504  0.00  0.00    +0.000 HD
ENDROOT
BRANCH   1   5
ATOM      5  C   UNL     1       8.298   8.346  18.099  0.00  0.00    +0.000 C 
BRANCH   5   6
ATOM      6  C   UNL     1       8.002   9.795  17.699  0.00  0.00    +0.000 C 
BRANCH   6  10
ATOM      7  C   UNL     1      10.611  12.619  19.720  0.00  0.00    +0.000 A 
ATOM      8  C   UNL     1      10.150  11.465  20.370  0.00  0.00    +0.000 A 
ATOM      9  C   UNL     1       9.311  10.556  19.723  0.00  0.00    +0.000 A 
ATOM     10  C   UNL     1       8.877  10.796  18.419  0.00  0.00    +0.000 A 
ATOM     11  C   UNL     1       9.296  11.974  17.788  0.00  0.00    +0.000 A 
ATOM     12  C   UNL     1      10.151  12.896  18.422  0.00  0.00    +0.000 A 
BRANCH   7  14
ATOM     13  C   UNL     1      10.874  14.661  20.883  0.00  0.00    +0.000 C 
ATOM     14  O   UNL     1      11.475  13.488  20.336  0.00  0.00    +0.000 OA
ENDBRANCH   7  14
BRANCH  12  15
ATOM     15  O   UNL     1      10.435  13.967  17.617  0.00  0.00    +0.000 OA
ATOM     16  C   UNL     1      11.464  13.850  16.647  0.00  0.00    +0.000 C 
ENDBRANCH  12  15
ENDBRANCH   6  10
ENDBRANCH   5   6
ENDBRANCH   1   5
BRANCH   2  17
ATOM     17  C   UNL     1       6.411   5.262  16.829  0.00  0.00    +0.000 C 
BRANCH  17  18
ATOM     18  O   UNL     1       5.204   4.852  17.461  0.00  0.00    +0.000 OA
BRANCH  18  19
ATOM     19  C   UNL     1       4.320   5.838  17.767  0.00  0.00    +0.000 A 
ATOM     20  N   UNL     1       4.394   6.988  17.090  0.00  0.00    +0.000 NA
ATOM     21  S   UNL     1       3.137   7.908  17.675  0.00  0.00    +0.000 S 
ATOM     22  N   UNL     1       2.537   6.885  18.831  0.00  0.00    +0.000 NA
ATOM     23  C   UNL     1       3.270   5.759  18.793  0.00  0.00    +0.000 A 
ATOM     24  N   UNL     1       2.985   4.699  19.621  0.00  0.00    +0.000 N 
ATOM     25  C   UNL     1       3.759   3.459  19.745  0.00  0.00    +0.000 C 
ATOM     26  C   UNL     1       2.800   2.250  19.804  0.00  0.00    +0.000 C 
ATOM     27  O   UNL     1       1.796   2.393  20.825  0.00  0.00    +0.000 OA
ATOM     28  C   UNL     1       1.041   3.599  20.620  0.00  0.00    +0.000 C 
ATOM     29  C   UNL     1       1.957   4.826  20.672  0.00  0.00    +0.000 C 
ENDBRANCH  18  19
ENDBRANCH  17  18
ENDBRANCH   2  17
TORSDOF 8
ENDMDL
MODEL 2
REMARK VINA RESULT:      -7.4      1.502      1.944
REMARK  Name = 
REMARK  10 active torsions:
REMARK  status: ('A' for Active; 'I' for Inactive)
REMARK    1  A    between atoms: C_1  and  O_2
REMARK    2  A    between atoms: O_2  and  C_3
REMARK    3  A    between atoms: C_6  and  C_7
REMARK    4  A    between atoms: C_7  and  C_8
REMARK    5  A    between atoms: C_8  and  N_9
REMARK    6  A    between atoms: C_10  and  C_12
REMARK    7  A    between atoms: C_12  and  O_13
REMARK    8  A    between atoms: O_13  and  C_14
REMARK    9  A    between atoms: C_26  and  O_27
REMARK   10  A    between atoms: O_27  and  C_28
REMARK                            x       y       z     vdW  Elec       q    Type
REMARK                         _______ _______ _______ _____ _____    ______ ____
ROOT
ATOM      1  N   UNL     1       7.309   7.969  18.006  0.00  0.00    +0.000 N 
ATOM      2  C   UNL     1       7.289   6.778  17.308  0.00  0.00    +0.000 C 
ATOM      3  O   UNL     1       7.867   6.615  16.237  0.00  0.00    +0.000 OA
ATOM      4  H   UNL     1       6.941   7.963  18.953  0.00  0.00    +0.000 HD
ENDROOT
BRANCH   1   5
ATOM      5  C   UNL     1       8.127   9.093  17.575  0.00  0.00    +0.000 C 
BRANCH   5   6
ATOM      6  C   UNL     1       8.912   9.721  18.732  0.00  0.00    +0.000 C 
BRANCH   6  10
ATOM      7  C   UNL     1      10.427  13.650  17.670  0.00  0.00    +0.000 A 
ATOM      8  C   UNL     1      11.222  12.503  17.522  0.00  0.00    +0.000 A 
ATOM      9  C   UNL     1      10.737  11.239  17.864  0.00  0.00    +0.000 A 
ATOM     10  C   UNL     1       9.457  11.091  18.399  0.00  0.00    +0.000 A 
ATOM     11  C   UNL     1       8.683  12.243  18.595  0.00  0.00    +0.000 A 
ATOM     12  C   UNL     1       9.153  13.523  18.245  0.00  0.00    +0.000 A 
BRANCH   7  14
ATOM     13  C   UNL     1      12.292  14.980  17.081  0.00  0.00    +0.000 C 
ATOM     14  O   UNL     1      10.883  14.886  17.289  0.00  0.00    +0.000 OA
ENDBRANCH   7  14
BRANCH  12  15
ATOM     15  O   UNL     1       8.228  14.497  18.515  0.00  0.00    +0.000 OA
ATOM     16  C   UNL     1       7.008  14.513  17.791  0.00  0.00    +0.000 C 
ENDBRANCH  12  15
ENDBRANCH   6  10
ENDBRANCH   5   6
ENDBRANCH   1   5
BRANCH   2  17
ATOM     17  C   UNL     1       6.473   5.657  17.958  0.00  0.00    +0.000 C 
BRANCH  17  18
ATOM     18  O   UNL     1       5.251   5.398  17.278  0.00  0.00    +0.000 OA
BRANCH  18  19
ATOM     19  C   UNL     1       4.178   6.137  17.667  0.00  0.00    +0.000 A 
ATOM     20  N   UNL     1       4.145   7.431  17.331  0.00  0.00    +0.000 NA
ATOM     21  S   UNL     1       2.681   7.980  17.902  0.00  0.00    +0.000 S 
ATOM     22  N   UNL     1       2.115   6.605  18.631  0.00  0.00    +0.000 NA
ATOM     23  C   UNL     1       3.028   5.639  18.435  0.00  0.00    +0.000 A 
ATOM     24  N   UNL     1       2.820   4.361  18.899  0.00  0.00    +0.000 N 
ATOM     25  C   UNL     1       3.771   3.246  18.836  0.00  0.00    +0.000 C 
ATOM     26  C   UNL     1       3.034   1.958  18.412  0.00  0.00    +0.000 C 
ATOM     27  O   UNL     1       1.892   1.678  19.241  0.00  0.00    +0.000 OA
ATOM     28  C   UNL     1       0.976   2.785  19.222  0.00  0.00    +0.000 C 
ATOM     29  C   UNL     1       1.653   4.055  19.749  0.00  0.00    +0.000 C 
ENDBRANCH  18  19
ENDBRANCH  17  18
ENDBRANCH   2  17
TORSDOF 8
ENDMDL
MODEL 3
REMARK VINA RESULT:      -7.4      1.351      2.131
REMARK  Name = 
REMARK  10 active torsions:
REMARK  status: ('A' for Active; 'I' for Inactive)
REMARK    1  A    between atoms: C_1  and  O_2
REMARK    2  A    between atoms: O_2  and  C_3
REMARK    3  A    between atoms: C_6  and  C_7
REMARK    4  A    between atoms: C_7  and  C_8
REMARK    5  A    between atoms: C_8  and  N_9
REMARK    6  A    between atoms: C_10  and  C_12
REMARK    7  A    between atoms: C_12  and  O_13
REMARK    8  A    between atoms: O_13  and  C_14
REMARK    9  A    between atoms: C_26  and  O_27
REMARK   10  A    between atoms: O_27  and  C_28
REMARK                            x       y       z     vdW  Elec       q    Type
REMARK                         _______ _______ _______ _____ _____    ______ ____
ROOT
ATOM      1  N   UNL     1       7.019   7.498  17.885  0.00  0.00    +0.000 N 
ATOM      2  C   UNL     1       7.041   6.378  17.078  0.00  0.00    +0.000 C 
ATOM      3  O   UNL     1       7.727   6.293  16.063  0.00  0.00    +0.000 OA
ATOM      4  H   UNL     1       6.551   7.419  18.783  0.00  0.00    +0.000 HD
ENDROOT
BRANCH   1   5
ATOM      5  C   UNL     1       7.910   8.625  17.653  0.00  0.00    +0.000 C 
BRANCH   5   6
ATOM      6  C   UNL     1       8.883   8.850  18.814  0.00  0.00    +0.000 C 
BRANCH   6  10
ATOM      7  C   UNL     1       9.717  13.064  19.452  0.00  0.00    +0.000 A 
ATOM      8  C   UNL     1       9.639  12.529  18.158  0.00  0.00    +0.000 A 
ATOM      9  C   UNL     1       9.372  11.174  17.950  0.00  0.00    +0.000 A 
ATOM     10  C   UNL     1       9.213  10.309  19.033  0.00  0.00    +0.000 A 
ATOM     11  C   UNL     1       9.342  10.834  20.326  0.00  0.00    +0.000 A 
ATOM     12  C   UNL     1       9.600  12.200  20.553  0.00  0.00    +0.000 A 
BRANCH   7  14
ATOM     13  C   UNL     1       8.751  15.202  19.750  0.00  0.00    +0.000 C 
ATOM     14  O   UNL     1       9.930  14.404  19.658  0.00  0.00    +0.000 OA
ENDBRANCH   7  14
BRANCH  12  15
ATOM     15  O   UNL     1       9.676  12.490  21.889  0.00  0.00    +0.000 OA
ATOM     16  C   UNL     1       8.546  12.255  22.714  0.00  0.00    +0.000 C 
ENDBRANCH  12  15
ENDBRANCH   6  10
ENDBRANCH   5   6
ENDBRANCH   1   5
BRANCH   2  17
ATOM     17  C   UNL     1       6.129   5.234  17.529  0.00  0.00    +0.000 C 
BRANCH  17  18
ATOM     18  O   UNL     1       4.842   5.283  16.924  0.00  0.00    +0.000 OA
BRANCH  18  19
ATOM     19  C   UNL     1       3.920   6.075  17.533  0.00  0.00    +0.000 A 
ATOM     20  N   UNL     1       3.909   7.378  17.234  0.00  0.00    +0.000 NA
ATOM     21  S   UNL     1       2.629   8.000  18.096  0.00  0.00    +0.000 S 
ATOM     22  N   UNL     1       2.129   6.642  18.901  0.00  0.00    +0.000 NA
ATOM     23  C   UNL     1       2.916   5.627  18.509  0.00  0.00    +0.000 A 
ATOM     24  N   UNL     1       2.719   4.352  18.983  0.00  0.00    +0.000 N 
ATOM     25  C   UNL     1       3.562   3.181  18.711  0.00  0.00    +0.000 C 
ATOM     26  C   UNL     1       2.670   1.955  18.422  0.00  0.00    +0.000 C 
ATOM     27  O   UNL     1       1.700   1.722  19.458  0.00  0.00    +0.000 OA
ATOM     28  C   UNL     1       0.875   2.885  19.643  0.00  0.00    +0.000 C 
ATOM     29  C   UNL     1       1.728   4.094  20.045  0.00  0.00    +0.000 C 
ENDBRANCH  18  19
ENDBRANCH  17  18
ENDBRANCH   2  17
TORSDOF 8
ENDMDL
MODEL 4
REMARK VINA RESULT:      -7.4      6.177      9.885
REMARK  Name = 
REMARK  10 active torsions:
REMARK  status: ('A' for Active; 'I' for Inactive)
REMARK    1  A    between atoms: C_1  and  O_2
REMARK    2  A    between atoms: O_2  and  C_3
REMARK    3  A    between atoms: C_6  and  C_7
REMARK    4  A    between atoms: C_7  and  C_8
REMARK    5  A    between atoms: C_8  and  N_9
REMARK    6  A    between atoms: C_10  and  C_12
REMARK    7  A    between atoms: C_12  and  O_13
REMARK    8  A    between atoms: O_13  and  C_14
REMARK    9  A    between atoms: C_26  and  O_27
REMARK   10  A    between atoms: O_27  and  C_28
REMARK                            x       y       z     vdW  Elec       q    Type
REMARK                         _______ _______ _______ _____ _____    ______ ____
ROOT
ATOM      1  N   UNL     1       1.031   9.358  19.685  0.00  0.00    +0.000 N 
ATOM      2  C   UNL     1       1.789   8.630  18.791  0.00  0.00    +0.000 C 
ATOM      3  O   UNL     1       1.927   8.945  17.612  0.00  0.00    +0.000 OA
ATOM      4  H   UNL     1       1.104   9.115  20.669  0.00  0.00    +0.000 HD
ENDROOT
BRANCH   1   5
ATOM      5  C   UNL     1       0.431  10.633  19.319  0.00  0.00    +0.000 C 
BRANCH   5   6
ATOM      6  C   UNL     1      -1.079  10.664  19.576  0.00  0.00    +0.000 C 
BRANCH   6  10
ATOM      7  C   UNL     1      -3.490  10.514  15.967  0.00  0.00    +0.000 A 
ATOM      8  C   UNL     1      -2.274   9.820  16.055  0.00  0.00    +0.000 A 
ATOM      9  C   UNL     1      -1.496   9.868  17.214  0.00  0.00    +0.000 A 
ATOM     10  C   UNL     1      -1.895  10.642  18.304  0.00  0.00    +0.000 A 
ATOM     11  C   UNL     1      -3.085  11.375  18.197  0.00  0.00    +0.000 A 
ATOM     12  C   UNL     1      -3.886  11.329  17.040  0.00  0.00    +0.000 A 
BRANCH   7  14
ATOM     13  C   UNL     1      -3.629   9.936  13.678  0.00  0.00    +0.000 C 
ATOM     14  O   UNL     1      -4.279  10.429  14.849  0.00  0.00    +0.000 OA
ENDBRANCH   7  14
BRANCH  12  15
ATOM     15  O   UNL     1      -5.001  12.115  17.160  0.00  0.00    +0.000 OA
ATOM     16  C   UNL     1      -6.085  11.660  17.955  0.00  0.00    +0.000 C 
ENDBRANCH  12  15
ENDBRANCH   6  10
ENDBRANCH   5   6
ENDBRANCH   1   5
BRANCH   2  17
ATOM     17  C   UNL     1       2.447   7.375  19.368  0.00  0.00    +0.000 C 
BRANCH  17  18
ATOM     18  O   UNL     1       2.354   6.253  18.498  0.00  0.00    +0.000 OA
BRANCH  18  19
ATOM     19  C   UNL     1       2.921   5.099  18.941  0.00  0.00    +0.000 A 
ATOM     20  N   UNL     1       2.255   4.373  19.846  0.00  0.00    +0.000 NA
ATOM     21  S   UNL     1       3.202   3.027  20.090  0.00  0.00    +0.000 S 
ATOM     22  N   UNL     1       4.485   3.388  19.107  0.00  0.00    +0.000 NA
ATOM     23  C   UNL     1       4.221   4.563  18.512  0.00  0.00    +0.000 A 
ATOM     24  N   UNL     1       5.094   5.111  17.603  0.00  0.00    +0.000 N 
ATOM     25  C   UNL     1       4.971   6.424  16.959  0.00  0.00    +0.000 C 
ATOM     26  C   UNL     1       5.322   6.303  15.461  0.00  0.00    +0.000 C 
ATOM     27  O   UNL     1       6.603   5.686  15.243  0.00  0.00    +0.000 OA
ATOM     28  C   UNL     1       6.644   4.385  15.853  0.00  0.00    +0.000 C 
ATOM     29  C   UNL     1       6.412   4.491  17.365  0.00  0.00    +0.000 C 
ENDBRANCH  18  19
ENDBRANCH  17  18
ENDBRANCH   2  17
TORSDOF 8
ENDMDL
MODEL 5
REMARK VINA RESULT:      -7.4      6.152      9.125
REMARK  Name = 
REMARK  10 active torsions:
REMARK  status: ('A' for Active; 'I' for Inactive)
REMARK    1  A    between atoms: C_1  and  O_2
REMARK    2  A    between atoms: O_2  and  C_3
REMARK    3  A    between atoms: C_6  and  C_7
REMARK    4  A    between atoms: C_7  and  C_8
REMARK    5  A    between atoms: C_8  and  N_9
REMARK    6  A    between atoms: C_10  and  C_12
REMARK    7  A    between atoms: C_12  and  O_13
REMARK    8  A    between atoms: O_13  and  C_14
REMARK    9  A    between atoms: C_26  and  O_27
REMARK   10  A    between atoms: O_27  and  C_28
REMARK                            x       y       z     vdW  Elec       q    Type
REMARK                         _______ _______ _______ _____ _____    ______ ____
ROOT
ATOM      1  N   UNL     1       1.410   9.415  18.673  0.00  0.00    +0.000 N 
ATOM      2  C   UNL     1       2.100   8.246  18.923  0.00  0.00    +0.000 C 
ATOM      3  O   UNL     1       1.961   7.590  19.952  0.00  0.00    +0.000 OA
ATOM      4  H   UNL     1       1.467   9.801  17.735  0.00  0.00    +0.000 HD
ENDROOT
BRANCH   1   5
ATOM      5  C   UNL     1       0.370   9.896  19.570  0.00  0.00    +0.000 C 
BRANCH   5   6
ATOM      6  C   UNL     1      -0.070  11.326  19.241  0.00  0.00    +0.000 C 
BRANCH   6  10
ATOM      7  C   UNL     1      -4.017  11.630  17.455  0.00  0.00    +0.000 A 
ATOM      8  C   UNL     1      -3.833  11.794  18.836  0.00  0.00    +0.000 A 
ATOM      9  C   UNL     1      -2.565  11.696  19.413  0.00  0.00    +0.000 A 
ATOM     10  C   UNL     1      -1.451  11.392  18.629  0.00  0.00    +0.000 A 
ATOM     11  C   UNL     1      -1.644  11.178  17.258  0.00  0.00    +0.000 A 
ATOM     12  C   UNL     1      -2.914  11.284  16.659  0.00  0.00    +0.000 A 
BRANCH   7  14
ATOM     13  C   UNL     1      -6.090  12.768  17.471  0.00  0.00    +0.000 C 
ATOM     14  O   UNL     1      -5.254  11.775  16.879  0.00  0.00    +0.000 OA
ENDBRANCH   7  14
BRANCH  12  15
ATOM     15  O   UNL     1      -2.864  11.043  15.311  0.00  0.00    +0.000 OA
ATOM     16  C   UNL     1      -3.242   9.766  14.823  0.00  0.00    +0.000 C 
ENDBRANCH  12  15
ENDBRANCH   6  10
ENDBRANCH   5   6
ENDBRANCH   1   5
BRANCH   2  17
ATOM     17  C   UNL     1       3.074   7.818  17.823  0.00  0.00    +0.000 C 
BRANCH  17  18
ATOM     18  O   UNL     1       3.134   6.406  17.658  0.00  0.00    +0.000 OA
BRANCH  18  19
ATOM     19  C   UNL     1       4.254   5.793  18.123  0.00  0.00    +0.000 A 
ATOM     20  N   UNL     1       5.443   6.296  17.774  0.00  0.00    +0.000 NA
ATOM     21  S   UNL     1       6.555   5.350  18.572  0.00  0.00    +0.000 S 
ATOM     22  N   UNL     1       5.544   4.262  19.306  0.00  0.00    +0.000 NA
ATOM     23  C   UNL     1       4.284   4.606  18.990  0.00  0.00    +0.000 A 
ATOM     24  N   UNL     1       3.212   3.904  19.486  0.00  0.00    +0.000 N 
ATOM     25  C   UNL     1       1.800   4.115  19.146  0.00  0.00    +0.000 C 
ATOM     26  C   UNL     1       0.941   4.049  20.427  0.00  0.00    +0.000 C 
ATOM     27  O   UNL     1       1.166   2.844  21.180  0.00  0.00    +0.000 OA
ATOM     28  C   UNL     1       2.555   2.719  21.525  0.00  0.00    +0.000 C 
ATOM     29  C   UNL     1       3.423   2.666  20.262  0.00  0.00    +0.000 C 
ENDBRANCH  18  19
ENDBRANCH  17  18
ENDBRANCH   2  17
TORSDOF 8
ENDMDL
MODEL 6
REMARK VINA RESULT:      -7.4      1.240      1.342
REMARK  Name = 
REMARK  10 active torsions:
REMARK  status: ('A' for Active; 'I' for Inactive)
REMARK    1  A    between atoms: C_1  and  O_2
REMARK    2  A    between atoms: O_2  and  C_3
REMARK    3  A    between atoms: C_6  and  C_7
REMARK    4  A    between atoms: C_7  and  C_8
REMARK    5  A    between atoms: C_8  and  N_9
REMARK    6  A    between atoms: C_10  and  C_12
REMARK    7  A    between atoms: C_12  and  O_13
REMARK    8  A    between atoms: O_13  and  C_14
REMARK    9  A    between atoms: C_26  and  O_27
REMARK   10  A    between atoms: O_27  and  C_28
REMARK                            x       y       z     vdW  Elec       q    Type
REMARK                         _______ _______ _______ _____ _____    ______ ____
ROOT
ATOM      1  N   UNL     1       7.347   6.598  18.293  0.00  0.00    +0.000 N 
ATOM      2  C   UNL     1       7.158   5.869  17.136  0.00  0.00    +0.000 C 
ATOM      3  O   UNL     1       7.751   6.105  16.087  0.00  0.00    +0.000 OA
ATOM      4  H   UNL     1       6.938   6.234  19.148  0.00  0.00    +0.000 HD
ENDROOT
BRANCH   1   5
ATOM      5  C   UNL     1       8.363   7.636  18.384  0.00  0.00    +0.000 C 
BRANCH   5   6
ATOM      6  C   UNL     1       7.911   8.954  17.748  0.00  0.00    +0.000 C 
BRANCH   6  10
ATOM      7  C   UNL     1       9.961  12.414  19.389  0.00  0.00    +0.000 A 
ATOM      8  C   UNL     1      10.095  11.146  19.975  0.00  0.00    +0.000 A 
ATOM      9  C   UNL     1       9.436  10.033  19.450  0.00  0.00    +0.000 A 
ATOM     10  C   UNL     1       8.594  10.163  18.346  0.00  0.00    +0.000 A 
ATOM     11  C   UNL     1       8.420  11.439  17.791  0.00  0.00    +0.000 A 
ATOM     12  C   UNL     1       9.085  12.569  18.302  0.00  0.00    +0.000 A 
BRANCH   7  14
ATOM     13  C   UNL     1      10.158  14.029  21.105  0.00  0.00    +0.000 C 
ATOM     14  O   UNL     1      10.646  13.499  19.873  0.00  0.00    +0.000 OA
ENDBRANCH   7  14
BRANCH  12  15
ATOM     15  O   UNL     1       8.773  13.705  17.602  0.00  0.00    +0.000 OA
ATOM     16  C   UNL     1       7.677  14.500  18.025  0.00  0.00    +0.000 C 
ENDBRANCH  12  15
ENDBRANCH   6  10
ENDBRANCH   5   6
ENDBRANCH   1   5
BRANCH   2  17
ATOM     17  C   UNL     1       6.135   4.735  17.242  0.00  0.00    +0.000 C 
BRANCH  17  18
ATOM     18  O   UNL     1       4.898   5.047  16.610  0.00  0.00    +0.000 OA
BRANCH  18  19
ATOM     19  C   UNL     1       4.077   5.898  17.280  0.00  0.00    +0.000 A 
ATOM     20  N   UNL     1       4.156   7.203  17.004  0.00  0.00    +0.000 NA
ATOM     21  S   UNL     1       2.978   7.909  17.943  0.00  0.00    +0.000 S 
ATOM     22  N   UNL     1       2.410   6.579  18.750  0.00  0.00    +0.000 NA
ATOM     23  C   UNL     1       3.091   5.512  18.300  0.00  0.00    +0.000 A 
ATOM     24  N   UNL     1       2.815   4.247  18.763  0.00  0.00    +0.000 N 
ATOM     25  C   UNL     1       3.544   3.019  18.427  0.00  0.00    +0.000 C 
ATOM     26  C   UNL     1       2.541   1.875  18.165  0.00  0.00    +0.000 C 
ATOM     27  O   UNL     1       1.610   1.700  19.248  0.00  0.00    +0.000 OA
ATOM     28  C   UNL     1       0.894   2.921  19.495  0.00  0.00    +0.000 C 
ATOM     29  C   UNL     1       1.862   4.048  19.871  0.00  0.00    +0.000 C 
ENDBRANCH  18  19
ENDBRANCH  17  18
ENDBRANCH   2  17
TORSDOF 8
ENDMDL
MODEL 7
REMARK VINA RESULT:      -7.3      5.971      9.114
REMARK  Name = 
REMARK  10 active torsions:
REMARK  status: ('A' for Active; 'I' for Inactive)
REMARK    1  A    between atoms: C_1  and  O_2
REMARK    2  A    between atoms: O_2  and  C_3
REMARK    3  A    between atoms: C_6  and  C_7
REMARK    4  A    between atoms: C_7  and  C_8
REMARK    5  A    between atoms: C_8  and  N_9
REMARK    6  A    between atoms: C_10  and  C_12
REMARK    7  A    between atoms: C_12  and  O_13
REMARK    8  A    between atoms: O_13  and  C_14
REMARK    9  A    between atoms: C_26  and  O_27
REMARK   10  A    between atoms: O_27  and  C_28
REMARK                            x       y       z     vdW  Elec       q    Type
REMARK                         _______ _______ _______ _____ _____    ______ ____
ROOT
ATOM      1  N   UNL     1       1.324   9.189  19.180  0.00  0.00    +0.000 N 
ATOM      2  C   UNL     1       2.068   8.028  19.231  0.00  0.00    +0.000 C 
ATOM      3  O   UNL     1       2.044   7.255  20.186  0.00  0.00    +0.000 OA
ATOM      4  H   UNL     1       1.283   9.680  18.291  0.00  0.00    +0.000 HD
ENDROOT
BRANCH   1   5
ATOM      5  C   UNL     1       0.355   9.523  20.213  0.00  0.00    +0.000 C 
BRANCH   5   6
ATOM      6  C   UNL     1      -0.315  10.879  19.970  0.00  0.00    +0.000 C 
BRANCH   6  10
ATOM      7  C   UNL     1      -3.275  10.689  16.798  0.00  0.00    +0.000 A 
ATOM      8  C   UNL     1      -2.025  10.068  16.660  0.00  0.00    +0.000 A 
ATOM      9  C   UNL     1      -1.071  10.128  17.678  0.00  0.00    +0.000 A 
ATOM     10  C   UNL     1      -1.327  10.845  18.847  0.00  0.00    +0.000 A 
ATOM     11  C   UNL     1      -2.556  11.509  18.963  0.00  0.00    +0.000 A 
ATOM     12  C   UNL     1      -3.533  11.448  17.951  0.00  0.00    +0.000 A 
BRANCH   7  14
ATOM     13  C   UNL     1      -3.756  10.178  14.540  0.00  0.00    +0.000 C 
ATOM     14  O   UNL     1      -4.232  10.589  15.820  0.00  0.00    +0.000 OA
ENDBRANCH   7  14
BRANCH  12  15
ATOM     15  O   UNL     1      -4.655  12.162  18.281  0.00  0.00    +0.000 OA
ATOM     16  C   UNL     1      -4.847  12.565  19.627  0.00  0.00    +0.000 C 
ENDBRANCH  12  15
ENDBRANCH   6  10
ENDBRANCH   5   6
ENDBRANCH   1   5
BRANCH   2  17
ATOM     17  C   UNL     1       2.952   7.767  18.009  0.00  0.00    +0.000 C 
BRANCH  17  18
ATOM     18  O   UNL     1       3.077   6.383  17.705  0.00  0.00    +0.000 OA
BRANCH  18  19
ATOM     19  C   UNL     1       4.211   5.771  18.140  0.00  0.00    +0.000 A 
ATOM     20  N   UNL     1       5.389   6.293  17.783  0.00  0.00    +0.000 NA
ATOM     21  S   UNL     1       6.523   5.342  18.543  0.00  0.00    +0.000 S 
ATOM     22  N   UNL     1       5.534   4.230  19.269  0.00  0.00    +0.000 NA
ATOM     23  C   UNL     1       4.266   4.567  18.981  0.00  0.00    +0.000 A 
ATOM     24  N   UNL     1       3.208   3.844  19.479  0.00  0.00    +0.000 N 
ATOM     25  C   UNL     1       1.789   4.048  19.166  0.00  0.00    +0.000 C 
ATOM     26  C   UNL     1       0.951   3.947  20.459  0.00  0.00    +0.000 C 
ATOM     27  O   UNL     1       1.200   2.729  21.183  0.00  0.00    +0.000 OA
ATOM     28  C   UNL     1       2.596   2.612  21.503  0.00  0.00    +0.000 C 
ATOM     29  C   UNL     1       3.443   2.593  20.226  0.00  0.00    +0.000 C 
ENDBRANCH  18  19
ENDBRANCH  17  18
ENDBRANCH   2  17
TORSDOF 8
ENDMDL
MODEL 8
REMARK VINA RESULT:      -7.3      6.239      9.188
REMARK  Name = 
REMARK  10 active torsions:
REMARK  status: ('A' for Active; 'I' for Inactive)
REMARK    1  A    between atoms: C_1  and  O_2
REMARK    2  A    between atoms: O_2  and  C_3
REMARK    3  A    between atoms: C_6  and  C_7
REMARK    4  A    between atoms: C_7  and  C_8
REMARK    5  A    between atoms: C_8  and  N_9
REMARK    6  A    between atoms: C_10  and  C_12
REMARK    7  A    between atoms: C_12  and  O_13
REMARK    8  A    between atoms: O_13  and  C_14
REMARK    9  A    between atoms: C_26  and  O_27
REMARK   10  A    between atoms: O_27  and  C_28
REMARK                            x       y       z     vdW  Elec       q    Type
REMARK                         _______ _______ _______ _____ _____    ______ ____
ROOT
ATOM      1  N   UNL     1       1.589   9.525  17.770  0.00  0.00    +0.000 N 
ATOM      2  C   UNL     1       2.190   8.464  18.418  0.00  0.00    +0.000 C 
ATOM      3  O   UNL     1       1.841   8.068  19.527  0.00  0.00    +0.000 OA
ATOM      4  H   UNL     1       1.834   9.679  16.797  0.00  0.00    +0.000 HD
ENDROOT
BRANCH   1   5
ATOM      5  C   UNL     1       0.406  10.179  18.310  0.00  0.00    +0.000 C 
BRANCH   5   6
ATOM      6  C   UNL     1      -0.888   9.669  17.668  0.00  0.00    +0.000 C 
BRANCH   6  10
ATOM      7  C   UNL     1      -4.396  11.900  18.924  0.00  0.00    +0.000 A 
ATOM      8  C   UNL     1      -4.483  10.911  17.932  0.00  0.00    +0.000 A 
ATOM      9  C   UNL     1      -3.356  10.193  17.526  0.00  0.00    +0.000 A 
ATOM     10  C   UNL     1      -2.104  10.471  18.074  0.00  0.00    +0.000 A 
ATOM     11  C   UNL     1      -2.009  11.494  19.027  0.00  0.00    +0.000 A 
ATOM     12  C   UNL     1      -3.137  12.220  19.455  0.00  0.00    +0.000 A 
BRANCH   7  14
ATOM     13  C   UNL     1      -6.149  12.014  20.507  0.00  0.00    +0.000 C 
ATOM     14  O   UNL     1      -5.510  12.571  19.359  0.00  0.00    +0.000 OA
ENDBRANCH   7  14
BRANCH  12  15
ATOM     15  O   UNL     1      -2.811  13.162  20.395  0.00  0.00    +0.000 OA
ATOM     16  C   UNL     1      -1.934  12.809  21.453  0.00  0.00    +0.000 C 
ENDBRANCH  12  15
ENDBRANCH   6  10
ENDBRANCH   5   6
ENDBRANCH   1   5
BRANCH   2  17
ATOM     17  C   UNL     1       3.349   7.812  17.660  0.00  0.00    +0.000 C 
BRANCH  17  18
ATOM     18  O   UNL     1       3.275   6.391  17.656  0.00  0.00    +0.000 OA
BRANCH  18  19
ATOM     19  C   UNL     1       4.370   5.730  18.117  0.00  0.00    +0.000 A 
ATOM     20  N   UNL     1       5.578   6.184  17.766  0.00  0.00    +0.000 NA
ATOM     21  S   UNL     1       6.652   5.191  18.557  0.00  0.00    +0.000 S 
ATOM     22  N   UNL     1       5.598   4.145  19.292  0.00  0.00    +0.000 NA
ATOM     23  C   UNL     1       4.353   4.541  18.981  0.00  0.00    +0.000 A 
ATOM     24  N   UNL     1       3.254   3.883  19.479  0.00  0.00    +0.000 N 
ATOM     25  C   UNL     1       1.851   4.153  19.143  0.00  0.00    +0.000 C 
ATOM     26  C   UNL     1       0.994   4.120  20.427  0.00  0.00    +0.000 C 
ATOM     27  O   UNL     1       1.171   2.905  21.176  0.00  0.00    +0.000 OA
ATOM     28  C   UNL     1       2.555   2.722  21.516  0.00  0.00    +0.000 C 
ATOM     29  C   UNL     1       3.415   2.636  20.251  0.00  0.00    +0.000 C 
ENDBRANCH  18  19
ENDBRANCH  17  18
ENDBRANCH   2  17
TORSDOF 8
ENDMDL
MODEL 9
REMARK VINA RESULT:      -7.3      6.001      9.636
REMARK  Name = 
REMARK  10 active torsions:
REMARK  status: ('A' for Active; 'I' for Inactive)
REMARK    1  A    between atoms: C_1  and  O_2
REMARK    2  A    between atoms: O_2  and  C_3
REMARK    3  A    between atoms: C_6  and  C_7
REMARK    4  A    between atoms: C_7  and  C_8
REMARK    5  A    between atoms: C_8  and  N_9
REMARK    6  A    between atoms: C_10  and  C_12
REMARK    7  A    between atoms: C_12  and  O_13
REMARK    8  A    between atoms: O_13  and  C_14
REMARK    9  A    between atoms: C_26  and  O_27
REMARK   10  A    between atoms: O_27  and  C_28
REMARK                            x       y       z     vdW  Elec       q    Type
REMARK                         _______ _______ _______ _____ _____    ______ ____
ROOT
ATOM      1  N   UNL     1       1.508   8.858  19.602  0.00  0.00    +0.000 N 
ATOM      2  C   UNL     1       1.718   7.632  20.200  0.00  0.00    +0.000 C 
ATOM      3  O   UNL     1       1.109   7.257  21.199  0.00  0.00    +0.000 OA
ATOM      4  H   UNL     1       1.936   9.015  18.694  0.00  0.00    +0.000 HD
ENDROOT
BRANCH   1   5
ATOM      5  C   UNL     1       0.453   9.755  20.047  0.00  0.00    +0.000 C 
BRANCH   5   6
ATOM      6  C   UNL     1       0.199  10.896  19.057  0.00  0.00    +0.000 C 
BRANCH   6  10
ATOM      7  C   UNL     1      -3.923  11.258  17.739  0.00  0.00    +0.000 A 
ATOM      8  C   UNL     1      -3.467  11.928  18.884  0.00  0.00    +0.000 A 
ATOM      9  C   UNL     1      -2.143  11.813  19.310  0.00  0.00    +0.000 A 
ATOM     10  C   UNL     1      -1.246  10.992  18.624  0.00  0.00    +0.000 A 
ATOM     11  C   UNL     1      -1.715  10.283  17.511  0.00  0.00    +0.000 A 
ATOM     12  C   UNL     1      -3.045  10.397  17.061  0.00  0.00    +0.000 A 
BRANCH   7  14
ATOM     13  C   UNL     1      -6.225  10.938  18.176  0.00  0.00    +0.000 C 
ATOM     14  O   UNL     1      -5.210  11.409  17.290  0.00  0.00    +0.000 OA
ENDBRANCH   7  14
BRANCH  12  15
ATOM     15  O   UNL     1      -3.278   9.623  15.955  0.00  0.00    +0.000 OA
ATOM     16  C   UNL     1      -3.093  10.185  14.666  0.00  0.00    +0.000 C 
ENDBRANCH  12  15
ENDBRANCH   6  10
ENDBRANCH   5   6
ENDBRANCH   1   5
BRANCH   2  17
ATOM     17  C   UNL     1       2.785   6.758  19.537  0.00  0.00    +0.000 C 
BRANCH  17  18
ATOM     18  O   UNL     1       2.352   6.199  18.302  0.00  0.00    +0.000 OA
BRANCH  18  19
ATOM     19  C   UNL     1       2.423   4.846  18.197  0.00  0.00    +0.000 A 
ATOM     20  N   UNL     1       1.464   4.115  18.775  0.00  0.00    +0.000 NA
ATOM     21  S   UNL     1       1.835   2.541  18.383  0.00  0.00    +0.000 S 
ATOM     22  N   UNL     1       3.242   2.772  17.540  0.00  0.00    +0.000 NA
ATOM     23  C   UNL     1       3.473   4.095  17.494  0.00  0.00    +0.000 A 
ATOM     24  N   UNL     1       4.560   4.603  16.824  0.00  0.00    +0.000 N 
ATOM     25  C   UNL     1       4.977   6.009  16.779  0.00  0.00    +0.000 C 
ATOM     26  C   UNL     1       5.388   6.383  15.339  0.00  0.00    +0.000 C 
ATOM     27  O   UNL     1       6.373   5.486  14.797  0.00  0.00    +0.000 OA
ATOM     28  C   UNL     1       5.888   4.133  14.823  0.00  0.00    +0.000 C 
ATOM     29  C   UNL     1       5.580   3.698  16.259  0.00  0.00    +0.000 C 
ENDBRANCH  18  19
ENDBRANCH  17  18
ENDBRANCH   2  17
TORSDOF 8
ENDMDL
