MODEL 1
REMARK VINA RESULT:      -8.4      0.000      0.000
REMARK  Name = 
REMARK  6 active torsions:
REMARK  status: ('A' for Active; 'I' for Inactive)
REMARK    1  A    between atoms: C_1  and  C_2
REMARK    2  A    between atoms: C_7  and  C_8
REMARK    3  A    between atoms: C_8  and  N_9
REMARK    4  A    between atoms: N_9  and  C_10
REMARK    5  A    between atoms: C_10  and  C_11
REMARK    6  A    between atoms: N_18  and  C_19
REMARK                            x       y       z     vdW  Elec       q    Type
REMARK                         _______ _______ _______ _____ _____    ______ ____
ROOT
ATOM      1  N   UNL     1       2.592   6.836  19.270  0.00  0.00    +0.000 N 
ATOM      2  C   UNL     1       3.461   6.721  18.168  0.00  0.00    +0.000 C 
ATOM      3  O   UNL     1       3.324   7.452  17.190  0.00  0.00    +0.000 OA
ATOM      4  N   UNL     1       4.391   5.713  18.212  0.00  0.00    +0.000 N 
ATOM      5  H   UNL     1       4.409   5.099  19.021  0.00  0.00    +0.000 HD
ENDROOT
BRANCH   4   6
ATOM      6  C   UNL     1       5.319   5.394  17.185  0.00  0.00    +0.000 A 
ATOM      7  C   UNL     1       6.560   6.024  17.034  0.00  0.00    +0.000 A 
ATOM      8  C   UNL     1       7.423   5.673  15.991  0.00  0.00    +0.000 A 
ATOM      9  C   UNL     1       7.053   4.692  15.074  0.00  0.00    +0.000 A 
ATOM     10  C   UNL     1       5.823   4.048  15.212  0.00  0.00    +0.000 A 
ATOM     11  C   UNL     1       4.977   4.394  16.266  0.00  0.00    +0.000 A 
ATOM     12  F   UNL     1       3.788   3.777  16.363  0.00  0.00    +0.000 F 
ENDBRANCH   4   6
BRANCH   1  13
ATOM     13  C   UNL     1       1.462   7.743  19.023  0.00  0.00    +0.000 C 
BRANCH  13  20
ATOM     14  C   UNL     1      -2.133  13.425  23.179  0.00  0.00    +0.000 C 
ATOM     15  C   UNL     1      -1.270  12.287  22.714  0.00  0.00    +0.000 A 
ATOM     16  C   UNL     1      -1.391  11.020  23.302  0.00  0.00    +0.000 A 
ATOM     17  C   UNL     1      -0.639   9.934  22.836  0.00  0.00    +0.000 A 
ATOM     18  C   UNL     1       0.221  10.094  21.749  0.00  0.00    +0.000 A 
ATOM     19  C   UNL     1       0.835   8.928  21.088  0.00  0.00    +0.000 A 
ATOM     20  C   UNL     1       1.417   9.018  19.865  0.00  0.00    +0.000 A 
ATOM     21  C   UNL     1       1.623  10.341  19.336  0.00  0.00    +0.000 A 
ATOM     22  N   UNL     1       2.154  10.799  18.220  0.00  0.00    +0.000 NA
ATOM     23  N   UNL     1       2.004  12.164  18.233  0.00  0.00    +0.000 NA
ATOM     24  N   UNL     1       1.356  12.561  19.319  0.00  0.00    +0.000 NA
ATOM     25  N   UNL     1       1.115  11.434  20.013  0.00  0.00    +0.000 N 
ATOM     26  C   UNL     1       0.348  11.367  21.181  0.00  0.00    +0.000 A 
ATOM     27  C   UNL     1      -0.354  12.473  21.671  0.00  0.00    +0.000 A 
ENDBRANCH  13  20
ENDBRANCH   1  13
BRANCH   1  28
ATOM     28  C   UNL     1       2.293   5.667  20.123  0.00  0.00    +0.000 C 
BRANCH  28  29
ATOM     29  C   UNL     1       1.810   4.383  19.434  0.00  0.00    +0.000 C 
ATOM     30  C   UNL     1       0.699   3.619  20.126  0.00  0.00    +0.000 C 
ATOM     31  C   UNL     1       0.776   2.294  19.413  0.00  0.00    +0.000 C 
ATOM     32  C   UNL     1       2.263   2.126  19.157  0.00  0.00    +0.000 C 
ATOM     33  O   UNL     1       2.863   3.433  19.224  0.00  0.00    +0.000 OA
ENDBRANCH  28  29
ENDBRANCH   1  28
TORSDOF 5
ENDMDL
MODEL 2
REMARK VINA RESULT:      -8.3      0.825      1.184
REMARK  Name = 
REMARK  6 active torsions:
REMARK  status: ('A' for Active; 'I' for Inactive)
REMARK    1  A    between atoms: C_1  and  C_2
REMARK    2  A    between atoms: C_7  and  C_8
REMARK    3  A    between atoms: C_8  and  N_9
REMARK    4  A    between atoms: N_9  and  C_10
REMARK    5  A    between atoms: C_10  and  C_11
REMARK    6  A    between atoms: N_18  and  C_19
REMARK                            x       y       z     vdW  Elec       q    Type
REMARK                         _______ _______ _______ _____ _____    ______ ____
ROOT
ATOM      1  N   UNL     1       2.642   6.851  19.112  0.00  0.00    +0.000 N 
ATOM      2  C   UNL     1       3.462   6.703  17.978  0.00  0.00    +0.000 C 
ATOM      3  O   UNL     1       3.291   7.413  16.990  0.00  0.00    +0.000 OA
ATOM      4  N   UNL     1       4.384   5.686  18.006  0.00  0.00    +0.000 N 
ATOM      5  H   UNL     1       4.430   5.090  18.827  0.00  0.00    +0.000 HD
ENDROOT
BRANCH   4   6
ATOM      6  C   UNL     1       5.265   5.335  16.948  0.00  0.00    +0.000 A 
ATOM      7  C   UNL     1       4.972   4.363  15.983  0.00  0.00    +0.000 A 
ATOM      8  C   UNL     1       5.890   4.054  14.973  0.00  0.00    +0.000 A 
ATOM      9  C   UNL     1       7.121   4.704  14.920  0.00  0.00    +0.000 A 
ATOM     10  C   UNL     1       7.426   5.680  15.869  0.00  0.00    +0.000 A 
ATOM     11  C   UNL     1       6.497   5.993  16.861  0.00  0.00    +0.000 A 
ATOM     12  F   UNL     1       6.825   6.919  17.777  0.00  0.00    +0.000 F 
ENDBRANCH   4   6
BRANCH   1  13
ATOM     13  C   UNL     1       1.510   7.765  18.892  0.00  0.00    +0.000 C 
BRANCH  13  20
ATOM     14  C   UNL     1      -2.070  13.315  23.234  0.00  0.00    +0.000 C 
ATOM     15  C   UNL     1      -1.206  12.195  22.730  0.00  0.00    +0.000 A 
ATOM     16  C   UNL     1      -1.312  10.912  23.286  0.00  0.00    +0.000 A 
ATOM     17  C   UNL     1      -0.559   9.843  22.784  0.00  0.00    +0.000 A 
ATOM     18  C   UNL     1       0.288  10.037  21.692  0.00  0.00    +0.000 A 
ATOM     19  C   UNL     1       0.901   8.892  20.994  0.00  0.00    +0.000 A 
ATOM     20  C   UNL     1       1.468   9.016  19.767  0.00  0.00    +0.000 A 
ATOM     21  C   UNL     1       1.660  10.354  19.270  0.00  0.00    +0.000 A 
ATOM     22  N   UNL     1       2.175  10.844  18.161  0.00  0.00    +0.000 NA
ATOM     23  N   UNL     1       2.018  12.207  18.211  0.00  0.00    +0.000 NA
ATOM     24  N   UNL     1       1.380  12.572  19.314  0.00  0.00    +0.000 NA
ATOM     25  N   UNL     1       1.153  11.426  19.982  0.00  0.00    +0.000 N 
ATOM     26  C   UNL     1       0.400  11.324  21.156  0.00  0.00    +0.000 A 
ATOM     27  C   UNL     1      -0.302  12.413  21.682  0.00  0.00    +0.000 A 
ENDBRANCH  13  20
ENDBRANCH   1  13
BRANCH   1  28
ATOM     28  C   UNL     1       2.367   5.705  20.003  0.00  0.00    +0.000 C 
BRANCH  28  29
ATOM     29  C   UNL     1       1.794   4.428  19.371  0.00  0.00    +0.000 C 
ATOM     30  C   UNL     1       0.778   3.662  20.193  0.00  0.00    +0.000 C 
ATOM     31  C   UNL     1       0.758   2.342  19.465  0.00  0.00    +0.000 C 
ATOM     32  C   UNL     1       2.200   2.172  19.020  0.00  0.00    +0.000 C 
ATOM     33  O   UNL     1       2.808   3.476  19.021  0.00  0.00    +0.000 OA
ENDBRANCH  28  29
ENDBRANCH   1  28
TORSDOF 5
ENDMDL
MODEL 3
REMARK VINA RESULT:      -8.2      4.544      9.548
REMARK  Name = 
REMARK  6 active torsions:
REMARK  status: ('A' for Active; 'I' for Inactive)
REMARK    1  A    between atoms: C_1  and  C_2
REMARK    2  A    between atoms: C_7  and  C_8
REMARK    3  A    between atoms: C_8  and  N_9
REMARK    4  A    between atoms: N_9  and  C_10
REMARK    5  A    between atoms: C_10  and  C_11
REMARK    6  A    between atoms: N_18  and  C_19
REMARK                            x       y       z     vdW  Elec       q    Type
REMARK                         _______ _______ _______ _____ _____    ______ ____
ROOT
ATOM      1  N   UNL     1      -1.487  11.877  19.048  0.00  0.00    +0.000 N 
ATOM      2  C   UNL     1      -2.058  12.686  20.048  0.00  0.00    +0.000 C 
ATOM      3  O   UNL     1      -1.387  13.550  20.606  0.00  0.00    +0.000 OA
ATOM      4  N   UNL     1      -3.349  12.401  20.416  0.00  0.00    +0.000 N 
ATOM      5  H   UNL     1      -3.828  11.628  19.964  0.00  0.00    +0.000 HD
ENDROOT
BRANCH   4   6
ATOM      6  C   UNL     1      -4.085  13.058  21.439  0.00  0.00    +0.000 A 
ATOM      7  C   UNL     1      -3.909  12.808  22.806  0.00  0.00    +0.000 A 
ATOM      8  C   UNL     1      -4.677  13.480  23.764  0.00  0.00    +0.000 A 
ATOM      9  C   UNL     1      -5.640  14.405  23.368  0.00  0.00    +0.000 A 
ATOM     10  C   UNL     1      -5.824  14.672  22.011  0.00  0.00    +0.000 A 
ATOM     11  C   UNL     1      -5.041  14.009  21.065  0.00  0.00    +0.000 A 
ATOM     12  F   UNL     1      -5.254  14.266  19.764  0.00  0.00    +0.000 F 
ENDBRANCH   4   6
BRANCH   1  13
ATOM     13  C   UNL     1      -0.034  12.061  18.914  0.00  0.00    +0.000 C 
BRANCH  13  20
ATOM     14  C   UNL     1       2.271   4.561  19.866  0.00  0.00    +0.000 C 
ATOM     15  C   UNL     1       2.185   6.028  19.561  0.00  0.00    +0.000 A 
ATOM     16  C   UNL     1       2.354   6.490  18.247  0.00  0.00    +0.000 A 
ATOM     17  C   UNL     1       2.214   7.848  17.936  0.00  0.00    +0.000 A 
ATOM     18  C   UNL     1       1.866   8.761  18.933  0.00  0.00    +0.000 A 
ATOM     19  C   UNL     1       1.476  10.142  18.595  0.00  0.00    +0.000 A 
ATOM     20  C   UNL     1       0.846  10.951  19.486  0.00  0.00    +0.000 A 
ATOM     21  C   UNL     1       0.784  10.494  20.850  0.00  0.00    +0.000 A 
ATOM     22  N   UNL     1       0.279  11.005  21.955  0.00  0.00    +0.000 NA
ATOM     23  N   UNL     1       0.454  10.071  22.947  0.00  0.00    +0.000 NA
ATOM     24  N   UNL     1       1.024   8.974  22.471  0.00  0.00    +0.000 NA
ATOM     25  N   UNL     1       1.235   9.226  21.167  0.00  0.00    +0.000 N 
ATOM     26  C   UNL     1       1.717   8.293  20.243  0.00  0.00    +0.000 A 
ATOM     27  C   UNL     1       1.910   6.949  20.579  0.00  0.00    +0.000 A 
ENDBRANCH  13  20
ENDBRANCH   1  13
BRANCH   1  28
ATOM     28  C   UNL     1      -1.977  10.502  18.814  0.00  0.00    +0.000 C 
BRANCH  28  29
ATOM     29  C   UNL     1      -2.927  10.272  17.630  0.00  0.00    +0.000 C 
ATOM     30  C   UNL     1      -2.332  10.420  16.244  0.00  0.00    +0.000 C 
ATOM     31  C   UNL     1      -3.581  10.518  15.406  0.00  0.00    +0.000 C 
ATOM     32  C   UNL     1      -4.540  11.280  16.304  0.00  0.00    +0.000 C 
ATOM     33  O   UNL     1      -4.071  11.136  17.657  0.00  0.00    +0.000 OA
ENDBRANCH  28  29
ENDBRANCH   1  28
TORSDOF 5
ENDMDL
MODEL 4
REMARK VINA RESULT:      -8.1      0.999      1.136
REMARK  Name = 
REMARK  6 active torsions:
REMARK  status: ('A' for Active; 'I' for Inactive)
REMARK    1  A    between atoms: C_1  and  C_2
REMARK    2  A    between atoms: C_7  and  C_8
REMARK    3  A    between atoms: C_8  and  N_9
REMARK    4  A    between atoms: N_9  and  C_10
REMARK    5  A    between atoms: C_10  and  C_11
REMARK    6  A    between atoms: N_18  and  C_19
REMARK                            x       y       z     vdW  Elec       q    Type
REMARK                         _______ _______ _______ _____ _____    ______ ____
ROOT
ATOM      1  N   UNL     1       2.501   6.054  20.237  0.00  0.00    +0.000 N 
ATOM      2  C   UNL     1       3.335   5.979  19.106  0.00  0.00    +0.000 C 
ATOM      3  O   UNL     1       3.077   6.636  18.100  0.00  0.00    +0.000 OA
ATOM      4  N   UNL     1       4.377   5.087  19.159  0.00  0.00    +0.000 N 
ATOM      5  H   UNL     1       4.496   4.524  19.996  0.00  0.00    +0.000 HD
ENDROOT
BRANCH   4   6
ATOM      6  C   UNL     1       5.295   4.821  18.109  0.00  0.00    +0.000 A 
ATOM      7  C   UNL     1       6.636   5.224  18.128  0.00  0.00    +0.000 A 
ATOM      8  C   UNL     1       7.487   4.942  17.054  0.00  0.00    +0.000 A 
ATOM      9  C   UNL     1       7.006   4.261  15.937  0.00  0.00    +0.000 A 
ATOM     10  C   UNL     1       5.675   3.846  15.904  0.00  0.00    +0.000 A 
ATOM     11  C   UNL     1       4.840   4.117  16.988  0.00  0.00    +0.000 A 
ATOM     12  F   UNL     1       3.556   3.727  16.921  0.00  0.00    +0.000 F 
ENDBRANCH   4   6
BRANCH   1  13
ATOM     13  C   UNL     1       1.264   6.812  19.996  0.00  0.00    +0.000 C 
BRANCH  13  20
ATOM     14  C   UNL     1      -2.150  13.479  22.520  0.00  0.00    +0.000 C 
ATOM     15  C   UNL     1      -1.315  12.240  22.365  0.00  0.00    +0.000 A 
ATOM     16  C   UNL     1      -1.439  11.182  23.278  0.00  0.00    +0.000 A 
ATOM     17  C   UNL     1      -0.714   9.997  23.110  0.00  0.00    +0.000 A 
ATOM     18  C   UNL     1       0.122   9.839  22.005  0.00  0.00    +0.000 A 
ATOM     19  C   UNL     1       0.704   8.525  21.674  0.00  0.00    +0.000 A 
ATOM     20  C   UNL     1       1.258   8.267  20.461  0.00  0.00    +0.000 A 
ATOM     21  C   UNL     1       1.470   9.393  19.589  0.00  0.00    +0.000 A 
ATOM     22  N   UNL     1       1.980   9.521  18.380  0.00  0.00    +0.000 NA
ATOM     23  N   UNL     1       1.850  10.841  18.025  0.00  0.00    +0.000 NA
ATOM     24  N   UNL     1       1.234  11.530  18.975  0.00  0.00    +0.000 NA
ATOM     25  N   UNL     1       0.994  10.639  19.953  0.00  0.00    +0.000 N 
ATOM     26  C   UNL     1       0.254  10.907  21.110  0.00  0.00    +0.000 A 
ATOM     27  C   UNL     1      -0.421  12.118  21.294  0.00  0.00    +0.000 A 
ENDBRANCH  13  20
ENDBRANCH   1  13
BRANCH   1  28
ATOM     28  C   UNL     1       2.371   4.906  21.159  0.00  0.00    +0.000 C 
BRANCH  28  29
ATOM     29  C   UNL     1       1.746   3.615  20.613  0.00  0.00    +0.000 C 
ATOM     30  C   UNL     1       2.705   2.565  20.089  0.00  0.00    +0.000 C 
ATOM     31  C   UNL     1       1.764   1.680  19.313  0.00  0.00    +0.000 C 
ATOM     32  C   UNL     1       0.756   2.663  18.745  0.00  0.00    +0.000 C 
ATOM     33  O   UNL     1       0.813   3.854  19.550  0.00  0.00    +0.000 OA
ENDBRANCH  28  29
ENDBRANCH   1  28
TORSDOF 5
ENDMDL
MODEL 5
REMARK VINA RESULT:      -8.1      1.214      1.610
REMARK  Name = 
REMARK  6 active torsions:
REMARK  status: ('A' for Active; 'I' for Inactive)
REMARK    1  A    between atoms: C_1  and  C_2
REMARK    2  A    between atoms: C_7  and  C_8
REMARK    3  A    between atoms: C_8  and  N_9
REMARK    4  A    between atoms: N_9  and  C_10
REMARK    5  A    between atoms: C_10  and  C_11
REMARK    6  A    between atoms: N_18  and  C_19
REMARK                            x       y       z     vdW  Elec       q    Type
REMARK                         _______ _______ _______ _____ _____    ______ ____
ROOT
ATOM      1  N   UNL     1       2.843   5.888  19.860  0.00  0.00    +0.000 N 
ATOM      2  C   UNL     1       3.511   5.890  18.621  0.00  0.00    +0.000 C 
ATOM      3  O   UNL     1       3.071   6.541  17.678  0.00  0.00    +0.000 OA
ATOM      4  N   UNL     1       4.609   5.074  18.506  0.00  0.00    +0.000 N 
ATOM      5  H   UNL     1       4.884   4.508  19.304  0.00  0.00    +0.000 HD
ENDROOT
BRANCH   4   6
ATOM      6  C   UNL     1       5.387   4.889  17.332  0.00  0.00    +0.000 A 
ATOM      7  C   UNL     1       5.073   3.965  16.329  0.00  0.00    +0.000 A 
ATOM      8  C   UNL     1       5.889   3.822  15.201  0.00  0.00    +0.000 A 
ATOM      9  C   UNL     1       7.040   4.595  15.065  0.00  0.00    +0.000 A 
ATOM     10  C   UNL     1       7.365   5.526  16.051  0.00  0.00    +0.000 A 
ATOM     11  C   UNL     1       6.534   5.673  17.163  0.00  0.00    +0.000 A 
ATOM     12  F   UNL     1       6.883   6.559  18.110  0.00  0.00    +0.000 F 
ENDBRANCH   4   6
BRANCH   1  13
ATOM     13  C   UNL     1       1.535   6.559  19.812  0.00  0.00    +0.000 C 
BRANCH  13  20
ATOM     14  C   UNL     1      -1.992  13.070  22.576  0.00  0.00    +0.000 C 
ATOM     15  C   UNL     1      -1.120  11.866  22.366  0.00  0.00    +0.000 A 
ATOM     16  C   UNL     1      -1.160  10.796  23.272  0.00  0.00    +0.000 A 
ATOM     17  C   UNL     1      -0.400   9.640  23.056  0.00  0.00    +0.000 A 
ATOM     18  C   UNL     1       0.385   9.523  21.908  0.00  0.00    +0.000 A 
ATOM     19  C   UNL     1       0.997   8.235  21.534  0.00  0.00    +0.000 A 
ATOM     20  C   UNL     1       1.498   8.009  20.292  0.00  0.00    +0.000 A 
ATOM     21  C   UNL     1       1.624   9.150  19.423  0.00  0.00    +0.000 A 
ATOM     22  N   UNL     1       2.068   9.307  18.192  0.00  0.00    +0.000 NA
ATOM     23  N   UNL     1       1.871  10.625  17.858  0.00  0.00    +0.000 NA
ATOM     24  N   UNL     1       1.279  11.282  18.845  0.00  0.00    +0.000 NA
ATOM     25  N   UNL     1       1.121  10.374  19.824  0.00  0.00    +0.000 N 
ATOM     26  C   UNL     1       0.431  10.603  21.020  0.00  0.00    +0.000 A 
ATOM     27  C   UNL     1      -0.278  11.787  21.250  0.00  0.00    +0.000 A 
ENDBRANCH  13  20
ENDBRANCH   1  13
BRANCH   1  28
ATOM     28  C   UNL     1       2.923   4.721  20.762  0.00  0.00    +0.000 C 
BRANCH  28  29
ATOM     29  C   UNL     1       2.184   3.441  20.346  0.00  0.00    +0.000 C 
ATOM     30  C   UNL     1       2.943   2.479  19.454  0.00  0.00    +0.000 C 
ATOM     31  C   UNL     1       1.821   1.604  18.958  0.00  0.00    +0.000 C 
ATOM     32  C   UNL     1       0.659   2.572  18.831  0.00  0.00    +0.000 C 
ATOM     33  O   UNL     1       0.948   3.706  19.669  0.00  0.00    +0.000 OA
ENDBRANCH  28  29
ENDBRANCH   1  28
TORSDOF 5
ENDMDL
MODEL 6
REMARK VINA RESULT:      -8.0      1.088      1.333
REMARK  Name = 
REMARK  6 active torsions:
REMARK  status: ('A' for Active; 'I' for Inactive)
REMARK    1  A    between atoms: C_1  and  C_2
REMARK    2  A    between atoms: C_7  and  C_8
REMARK    3  A    between atoms: C_8  and  N_9
REMARK    4  A    between atoms: N_9  and  C_10
REMARK    5  A    between atoms: C_10  and  C_11
REMARK    6  A    between atoms: N_18  and  C_19
REMARK                            x       y       z     vdW  Elec       q    Type
REMARK                         _______ _______ _______ _____ _____    ______ ____
ROOT
ATOM      1  N   UNL     1       3.224   5.878  19.448  0.00  0.00    +0.000 N 
ATOM      2  C   UNL     1       3.840   5.924  18.183  0.00  0.00    +0.000 C 
ATOM      3  O   UNL     1       3.323   6.553  17.263  0.00  0.00    +0.000 OA
ATOM      4  N   UNL     1       4.977   5.173  18.017  0.00  0.00    +0.000 N 
ATOM      5  H   UNL     1       5.316   4.620  18.798  0.00  0.00    +0.000 HD
ENDROOT
BRANCH   4   6
ATOM      6  C   UNL     1       5.714   5.039  16.810  0.00  0.00    +0.000 A 
ATOM      7  C   UNL     1       6.942   5.670  16.575  0.00  0.00    +0.000 A 
ATOM      8  C   UNL     1       7.612   5.508  15.357  0.00  0.00    +0.000 A 
ATOM      9  C   UNL     1       7.058   4.721  14.351  0.00  0.00    +0.000 A 
ATOM     10  C   UNL     1       5.839   4.079  14.570  0.00  0.00    +0.000 A 
ATOM     11  C   UNL     1       5.188   4.233  15.794  0.00  0.00    +0.000 A 
ATOM     12  F   UNL     1       4.003   3.624  15.971  0.00  0.00    +0.000 F 
ENDBRANCH   4   6
BRANCH   1  13
ATOM     13  C   UNL     1       1.880   6.473  19.459  0.00  0.00    +0.000 C 
BRANCH  13  20
ATOM     14  C   UNL     1      -1.923  12.615  22.667  0.00  0.00    +0.000 C 
ATOM     15  C   UNL     1      -0.986  11.482  22.364  0.00  0.00    +0.000 A 
ATOM     16  C   UNL     1      -0.909  10.376  23.224  0.00  0.00    +0.000 A 
ATOM     17  C   UNL     1      -0.087   9.284  22.922  0.00  0.00    +0.000 A 
ATOM     18  C   UNL     1       0.645   9.266  21.734  0.00  0.00    +0.000 A 
ATOM     19  C   UNL     1       1.321   8.038  21.276  0.00  0.00    +0.000 A 
ATOM     20  C   UNL     1       1.772   7.897  20.003  0.00  0.00    +0.000 A 
ATOM     21  C   UNL     1       1.779   9.077  19.178  0.00  0.00    +0.000 A 
ATOM     22  N   UNL     1       2.148   9.313  17.935  0.00  0.00    +0.000 NA
ATOM     23  N   UNL     1       1.848  10.626  17.668  0.00  0.00    +0.000 NA
ATOM     24  N   UNL     1       1.265  11.202  18.710  0.00  0.00    +0.000 NA
ATOM     25  N   UNL     1       1.217  10.247  19.656  0.00  0.00    +0.000 N 
ATOM     26  C   UNL     1       0.575  10.381  20.891  0.00  0.00    +0.000 A 
ATOM     27  C   UNL     1      -0.198  11.504  21.207  0.00  0.00    +0.000 A 
ENDBRANCH  13  20
ENDBRANCH   1  13
BRANCH   1  28
ATOM     28  C   UNL     1       3.409   4.712  20.338  0.00  0.00    +0.000 C 
BRANCH  28  29
ATOM     29  C   UNL     1       2.997   3.332  19.806  0.00  0.00    +0.000 C 
ATOM     30  C   UNL     1       4.119   2.362  19.495  0.00  0.00    +0.000 C 
ATOM     31  C   UNL     1       3.389   1.338  18.664  0.00  0.00    +0.000 C 
ATOM     32  C   UNL     1       2.382   2.173  17.894  0.00  0.00    +0.000 C 
ATOM     33  O   UNL     1       2.206   3.408  18.612  0.00  0.00    +0.000 OA
ENDBRANCH  28  29
ENDBRANCH   1  28
TORSDOF 5
ENDMDL
MODEL 7
REMARK VINA RESULT:      -7.9      3.644      6.207
REMARK  Name = 
REMARK  6 active torsions:
REMARK  status: ('A' for Active; 'I' for Inactive)
REMARK    1  A    between atoms: C_1  and  C_2
REMARK    2  A    between atoms: C_7  and  C_8
REMARK    3  A    between atoms: C_8  and  N_9
REMARK    4  A    between atoms: N_9  and  C_10
REMARK    5  A    between atoms: C_10  and  C_11
REMARK    6  A    between atoms: N_18  and  C_19
REMARK                            x       y       z     vdW  Elec       q    Type
REMARK                         _______ _______ _______ _____ _____    ______ ____
ROOT
ATOM      1  N   UNL     1       6.142   4.844  17.587  0.00  0.00    +0.000 N 
ATOM      2  C   UNL     1       5.906   4.335  16.296  0.00  0.00    +0.000 C 
ATOM      3  O   UNL     1       5.109   3.417  16.126  0.00  0.00    +0.000 OA
ATOM      4  N   UNL     1       6.665   4.853  15.275  0.00  0.00    +0.000 N 
ATOM      5  H   UNL     1       7.357   5.564  15.493  0.00  0.00    +0.000 HD
ENDROOT
BRANCH   4   6
ATOM      6  C   UNL     1       6.623   4.439  13.917  0.00  0.00    +0.000 A 
ATOM      7  C   UNL     1       5.670   3.549  13.405  0.00  0.00    +0.000 A 
ATOM      8  C   UNL     1       5.691   3.170  12.058  0.00  0.00    +0.000 A 
ATOM      9  C   UNL     1       6.674   3.667  11.205  0.00  0.00    +0.000 A 
ATOM     10  C   UNL     1       7.626   4.560  11.696  0.00  0.00    +0.000 A 
ATOM     11  C   UNL     1       7.585   4.945  13.036  0.00  0.00    +0.000 A 
ATOM     12  F   UNL     1       8.529   5.787  13.490  0.00  0.00    +0.000 F 
ENDBRANCH   4   6
BRANCH   1  13
ATOM     13  C   UNL     1       5.501   4.052  18.647  0.00  0.00    +0.000 C 
BRANCH  13  20
ATOM     14  C   UNL     1       0.093   8.855  21.834  0.00  0.00    +0.000 C 
ATOM     15  C   UNL     1       0.915   7.994  20.919  0.00  0.00    +0.000 A 
ATOM     16  C   UNL     1       1.555   8.554  19.804  0.00  0.00    +0.000 A 
ATOM     17  C   UNL     1       2.375   7.777  18.977  0.00  0.00    +0.000 A 
ATOM     18  C   UNL     1       2.596   6.432  19.276  0.00  0.00    +0.000 A 
ATOM     19  C   UNL     1       3.637   5.659  18.574  0.00  0.00    +0.000 A 
ATOM     20  C   UNL     1       4.083   4.464  19.040  0.00  0.00    +0.000 A 
ATOM     21  C   UNL     1       3.338   3.864  20.116  0.00  0.00    +0.000 A 
ATOM     22  N   UNL     1       3.467   2.740  20.792  0.00  0.00    +0.000 NA
ATOM     23  N   UNL     1       2.497   2.741  21.764  0.00  0.00    +0.000 NA
ATOM     24  N   UNL     1       1.792   3.863  21.732  0.00  0.00    +0.000 NA
ATOM     25  N   UNL     1       2.307   4.569  20.709  0.00  0.00    +0.000 N 
ATOM     26  C   UNL     1       1.939   5.878  20.380  0.00  0.00    +0.000 A 
ATOM     27  C   UNL     1       1.072   6.627  21.182  0.00  0.00    +0.000 A 
ENDBRANCH  13  20
ENDBRANCH   1  13
BRANCH   1  28
ATOM     28  C   UNL     1       7.448   5.438  17.940  0.00  0.00    +0.000 C 
BRANCH  28  29
ATOM     29  C   UNL     1       7.488   6.936  18.272  0.00  0.00    +0.000 C 
ATOM     30  C   UNL     1       7.506   7.891  17.096  0.00  0.00    +0.000 C 
ATOM     31  C   UNL     1       7.932   9.169  17.772  0.00  0.00    +0.000 C 
ATOM     32  C   UNL     1       8.895   8.688  18.843  0.00  0.00    +0.000 C 
ATOM     33  O   UNL     1       8.612   7.298  19.085  0.00  0.00    +0.000 OA
ENDBRANCH  28  29
ENDBRANCH   1  28
TORSDOF 5
ENDMDL
MODEL 8
REMARK VINA RESULT:      -7.9      1.915      2.896
REMARK  Name = 
REMARK  6 active torsions:
REMARK  status: ('A' for Active; 'I' for Inactive)
REMARK    1  A    between atoms: C_1  and  C_2
REMARK    2  A    between atoms: C_7  and  C_8
REMARK    3  A    between atoms: C_8  and  N_9
REMARK    4  A    between atoms: N_9  and  C_10
REMARK    5  A    between atoms: C_10  and  C_11
REMARK    6  A    between atoms: N_18  and  C_19
REMARK                            x       y       z     vdW  Elec       q    Type
REMARK                         _______ _______ _______ _____ _____    ______ ____
ROOT
ATOM      1  N   UNL     1       2.371   7.598  18.890  0.00  0.00    +0.000 N 
ATOM      2  C   UNL     1       3.268   7.226  17.870  0.00  0.00    +0.000 C 
ATOM      3  O   UNL     1       3.099   7.622  16.720  0.00  0.00    +0.000 OA
ATOM      4  N   UNL     1       4.266   6.348  18.210  0.00  0.00    +0.000 N 
ATOM      5  H   UNL     1       4.311   6.004  19.165  0.00  0.00    +0.000 HD
ENDROOT
BRANCH   4   6
ATOM      6  C   UNL     1       5.235   5.808  17.322  0.00  0.00    +0.000 A 
ATOM      7  C   UNL     1       6.491   6.384  17.098  0.00  0.00    +0.000 A 
ATOM      8  C   UNL     1       7.396   5.810  16.199  0.00  0.00    +0.000 A 
ATOM      9  C   UNL     1       7.052   4.655  15.500  0.00  0.00    +0.000 A 
ATOM     10  C   UNL     1       5.808   4.063  15.715  0.00  0.00    +0.000 A 
ATOM     11  C   UNL     1       4.920   4.634  16.627  0.00  0.00    +0.000 A 
ATOM     12  F   UNL     1       3.719   4.059  16.799  0.00  0.00    +0.000 F 
ENDBRANCH   4   6
BRANCH   1  13
ATOM     13  C   UNL     1       1.184   8.306  18.387  0.00  0.00    +0.000 C 
BRANCH  13  20
ATOM     14  C   UNL     1       3.527  15.417  20.920  0.00  0.00    +0.000 C 
ATOM     15  C   UNL     1       2.904  14.269  20.178  0.00  0.00    +0.000 A 
ATOM     16  C   UNL     1       3.230  14.032  18.835  0.00  0.00    +0.000 A 
ATOM     17  C   UNL     1       2.706  12.930  18.149  0.00  0.00    +0.000 A 
ATOM     18  C   UNL     1       1.873  12.026  18.810  0.00  0.00    +0.000 A 
ATOM     19  C   UNL     1       1.506  10.739  18.192  0.00  0.00    +0.000 A 
ATOM     20  C   UNL     1       0.965   9.723  18.913  0.00  0.00    +0.000 A 
ATOM     21  C   UNL     1       0.541  10.029  20.254  0.00  0.00    +0.000 A 
ATOM     22  N   UNL     1      -0.021   9.318  21.212  0.00  0.00    +0.000 NA
ATOM     23  N   UNL     1      -0.123  10.134  22.312  0.00  0.00    +0.000 NA
ATOM     24  N   UNL     1       0.401  11.327  22.069  0.00  0.00    +0.000 NA
ATOM     25  N   UNL     1       0.816  11.273  20.791  0.00  0.00    +0.000 N 
ATOM     26  C   UNL     1       1.538  12.282  20.145  0.00  0.00    +0.000 A 
ATOM     27  C   UNL     1       2.009  13.409  20.827  0.00  0.00    +0.000 A 
ENDBRANCH  13  20
ENDBRANCH   1  13
BRANCH   1  28
ATOM     28  C   UNL     1       2.138   6.715  20.052  0.00  0.00    +0.000 C 
BRANCH  28  29
ATOM     29  C   UNL     1       2.019   5.206  19.793  0.00  0.00    +0.000 C 
ATOM     30  C   UNL     1       0.896   4.482  20.508  0.00  0.00    +0.000 C 
ATOM     31  C   UNL     1       1.327   3.048  20.338  0.00  0.00    +0.000 C 
ATOM     32  C   UNL     1       2.841   3.131  20.420  0.00  0.00    +0.000 C 
ATOM     33  O   UNL     1       3.216   4.488  20.120  0.00  0.00    +0.000 OA
ENDBRANCH  28  29
ENDBRANCH   1  28
TORSDOF 5
ENDMDL
MODEL 9
REMARK VINA RESULT:      -7.9      4.699      9.697
REMARK  Name = 
REMARK  6 active torsions:
REMARK  status: ('A' for Active; 'I' for Inactive)
REMARK    1  A    between atoms: C_1  and  C_2
REMARK    2  A    between atoms: C_7  and  C_8
REMARK    3  A    between atoms: C_8  and  N_9
REMARK    4  A    between atoms: N_9  and  C_10
REMARK    5  A    between atoms: C_10  and  C_11
REMARK    6  A    between atoms: N_18  and  C_19
REMARK                            x       y       z     vdW  Elec       q    Type
REMARK                         _______ _______ _______ _____ _____    ______ ____
ROOT
ATOM      1  N   UNL     1      -2.163  12.157  19.136  0.00  0.00    +0.000 N 
ATOM      2  C   UNL     1      -2.991  12.831  20.053  0.00  0.00    +0.000 C 
ATOM      3  O   UNL     1      -2.566  13.797  20.681  0.00  0.00    +0.000 OA
ATOM      4  N   UNL     1      -4.243  12.307  20.262  0.00  0.00    +0.000 N 
ATOM      5  H   UNL     1      -4.511  11.465  19.761  0.00  0.00    +0.000 HD
ENDROOT
BRANCH   4   6
ATOM      6  C   UNL     1      -5.206  12.802  21.182  0.00  0.00    +0.000 A 
ATOM      7  C   UNL     1      -4.935  13.792  22.134  0.00  0.00    +0.000 A 
ATOM      8  C   UNL     1      -5.926  14.226  23.021  0.00  0.00    +0.000 A 
ATOM      9  C   UNL     1      -7.201  13.667  22.977  0.00  0.00    +0.000 A 
ATOM     10  C   UNL     1      -7.491  12.684  22.031  0.00  0.00    +0.000 A 
ATOM     11  C   UNL     1      -6.501  12.272  21.139  0.00  0.00    +0.000 A 
ATOM     12  F   UNL     1      -6.798  11.307  20.253  0.00  0.00    +0.000 F 
ENDBRANCH   4   6
BRANCH   1  13
ATOM     13  C   UNL     1      -0.764  12.608  19.179  0.00  0.00    +0.000 C 
BRANCH  13  20
ATOM     14  C   UNL     1       2.478   5.416  19.658  0.00  0.00    +0.000 C 
ATOM     15  C   UNL     1       2.202   6.875  19.436  0.00  0.00    +0.000 A 
ATOM     16  C   UNL     1       2.272   7.422  18.147  0.00  0.00    +0.000 A 
ATOM     17  C   UNL     1       1.956   8.766  17.916  0.00  0.00    +0.000 A 
ATOM     18  C   UNL     1       1.529   9.575  18.969  0.00  0.00    +0.000 A 
ATOM     19  C   UNL     1       0.961  10.913  18.718  0.00  0.00    +0.000 A 
ATOM     20  C   UNL     1       0.264  11.589  19.667  0.00  0.00    +0.000 A 
ATOM     21  C   UNL     1       0.300  11.057  21.005  0.00  0.00    +0.000 A 
ATOM     22  N   UNL     1      -0.231  11.442  22.148  0.00  0.00    +0.000 NA
ATOM     23  N   UNL     1       0.088  10.487  23.082  0.00  0.00    +0.000 NA
ATOM     24  N   UNL     1       0.775   9.496  22.533  0.00  0.00    +0.000 NA
ATOM     25  N   UNL     1       0.913   9.840  21.240  0.00  0.00    +0.000 N 
ATOM     26  C   UNL     1       1.479   9.025  20.255  0.00  0.00    +0.000 A 
ATOM     27  C   UNL     1       1.846   7.700  20.511  0.00  0.00    +0.000 A 
ENDBRANCH  13  20
ENDBRANCH   1  13
BRANCH   1  28
ATOM     28  C   UNL     1      -2.357  10.719  18.856  0.00  0.00    +0.000 C 
BRANCH  28  29
ATOM     29  C   UNL     1      -3.064  10.333  17.548  0.00  0.00    +0.000 C 
ATOM     30  C   UNL     1      -2.179   9.865  16.411  0.00  0.00    +0.000 C 
ATOM     31  C   UNL     1      -3.132   9.964  15.248  0.00  0.00    +0.000 C 
ATOM     32  C   UNL     1      -3.968  11.184  15.590  0.00  0.00    +0.000 C 
ATOM     33  O   UNL     1      -3.859  11.397  17.009  0.00  0.00    +0.000 OA
ENDBRANCH  28  29
ENDBRANCH   1  28
TORSDOF 5
ENDMDL
