MODEL 1
REMARK VINA RESULT:      -7.4      0.000      0.000
REMARK  Name = 
REMARK  5 active torsions:
REMARK  status: ('A' for Active; 'I' for Inactive)
REMARK    1  A    between atoms: O_1  and  C_2
REMARK    2  A    between atoms: C_2  and  C_3
REMARK    3  A    between atoms: C_3  and  O_4
REMARK    4  A    between atoms: N_8  and  C_9
REMARK    5  A    between atoms: C_9  and  C_10
REMARK                            x       y       z     vdW  Elec       q    Type
REMARK                         _______ _______ _______ _____ _____    ______ ____
ROOT
ATOM      1  C   UNL     1       2.179   3.077  20.131  0.00  0.00    +0.000 C 
ATOM      2  C   UNL     1       1.742   2.130  19.002  0.00  0.00    +0.000 C 
ATOM      3  C   UNL     1       2.656   2.116  17.778  0.00  0.00    +0.000 C 
ATOM      4  C   UNL     1       2.594   3.418  16.985  0.00  0.00    +0.000 C 
ATOM      5  N   UNL     1       3.529   4.475  17.369  0.00  0.00    +0.000 NA
ATOM      6  C   UNL     1       3.596   4.790  18.805  0.00  0.00    +0.000 C 
ATOM      7  C   UNL     1       2.357   4.536  19.673  0.00  0.00    +0.000 C 
ENDROOT
BRANCH   1   8
ATOM      8  O   UNL     1       3.424   2.590  20.658  0.00  0.00    +0.000 OA
ATOM      9  H   UNL     1       3.506   1.676  20.320  0.00  0.00    +0.000 HD
ENDBRANCH   1   8
BRANCH   1  10
ATOM     10  C   UNL     1       1.157   3.021  21.293  0.00  0.00    +0.000 C 
BRANCH  10  11
ATOM     11  O   UNL     1       1.711   2.279  22.385  0.00  0.00    +0.000 OA
ATOM     12  H   UNL     1       2.387   1.687  22.008  0.00  0.00    +0.000 HD
ENDBRANCH  10  11
ENDBRANCH   1  10
BRANCH   5  13
ATOM     13  C   UNL     1       4.900   4.264  16.858  0.00  0.00    +0.000 C 
BRANCH  13  14
ATOM     14  C   UNL     1       5.916   5.256  17.385  0.00  0.00    +0.000 A 
ATOM     15  C   UNL     1       5.977   6.562  16.867  0.00  0.00    +0.000 A 
ATOM     16  C   UNL     1       6.941   7.464  17.326  0.00  0.00    +0.000 A 
ATOM     17  C   UNL     1       7.843   7.064  18.305  0.00  0.00    +0.000 A 
ATOM     18  F   UNL     1       8.778   7.924  18.730  0.00  0.00    +0.000 F 
ATOM     19  C   UNL     1       7.780   5.782  18.836  0.00  0.00    +0.000 A 
ATOM     20  F   UNL     1       8.650   5.400  19.782  0.00  0.00    +0.000 F 
ATOM     21  C   UNL     1       6.823   4.878  18.386  0.00  0.00    +0.000 A 
ENDBRANCH  13  14
ENDBRANCH   5  13
TORSDOF 5
ENDMDL
MODEL 2
REMARK VINA RESULT:      -7.2      0.605      1.524
REMARK  Name = 
REMARK  5 active torsions:
REMARK  status: ('A' for Active; 'I' for Inactive)
REMARK    1  A    between atoms: O_1  and  C_2
REMARK    2  A    between atoms: C_2  and  C_3
REMARK    3  A    between atoms: C_3  and  O_4
REMARK    4  A    between atoms: N_8  and  C_9
REMARK    5  A    between atoms: C_9  and  C_10
REMARK                            x       y       z     vdW  Elec       q    Type
REMARK                         _______ _______ _______ _____ _____    ______ ____
ROOT
ATOM      1  C   UNL     1       2.214   3.072  20.102  0.00  0.00    +0.000 C 
ATOM      2  C   UNL     1       1.733   2.201  18.930  0.00  0.00    +0.000 C 
ATOM      3  C   UNL     1       2.651   2.192  17.710  0.00  0.00    +0.000 C 
ATOM      4  C   UNL     1       2.665   3.529  16.975  0.00  0.00    +0.000 C 
ATOM      5  N   UNL     1       3.655   4.515  17.410  0.00  0.00    +0.000 NA
ATOM      6  C   UNL     1       3.731   4.761  18.858  0.00  0.00    +0.000 C 
ATOM      7  C   UNL     1       2.475   4.538  19.710  0.00  0.00    +0.000 C 
ENDROOT
BRANCH   1   8
ATOM      8  O   UNL     1       3.428   2.494  20.611  0.00  0.00    +0.000 OA
ATOM      9  H   UNL     1       4.073   2.567  19.880  0.00  0.00    +0.000 HD
ENDBRANCH   1   8
BRANCH   1  10
ATOM     10  C   UNL     1       1.184   3.021  21.257  0.00  0.00    +0.000 C 
BRANCH  10  11
ATOM     11  O   UNL     1       1.752   2.332  22.377  0.00  0.00    +0.000 OA
ATOM     12  H   UNL     1       1.071   1.717  22.703  0.00  0.00    +0.000 HD
ENDBRANCH  10  11
ENDBRANCH   1  10
BRANCH   5  13
ATOM     13  C   UNL     1       5.015   4.252  16.894  0.00  0.00    +0.000 C 
BRANCH  13  14
ATOM     14  C   UNL     1       6.073   5.195  17.430  0.00  0.00    +0.000 A 
ATOM     15  C   UNL     1       6.996   4.759  18.397  0.00  0.00    +0.000 A 
ATOM     16  C   UNL     1       7.945   5.640  18.920  0.00  0.00    +0.000 A 
ATOM     17  C   UNL     1       7.977   6.958  18.476  0.00  0.00    +0.000 A 
ATOM     18  F   UNL     1       8.876   7.805  18.993  0.00  0.00    +0.000 F 
ATOM     19  C   UNL     1       7.080   7.394  17.509  0.00  0.00    +0.000 A 
ATOM     20  F   UNL     1       7.114   8.664  17.082  0.00  0.00    +0.000 F 
ATOM     21  C   UNL     1       6.132   6.523  16.982  0.00  0.00    +0.000 A 
ENDBRANCH  13  14
ENDBRANCH   5  13
TORSDOF 5
ENDMDL
MODEL 3
REMARK VINA RESULT:      -7.2      3.797      6.341
REMARK  Name = 
REMARK  5 active torsions:
REMARK  status: ('A' for Active; 'I' for Inactive)
REMARK    1  A    between atoms: O_1  and  C_2
REMARK    2  A    between atoms: C_2  and  C_3
REMARK    3  A    between atoms: C_3  and  O_4
REMARK    4  A    between atoms: N_8  and  C_9
REMARK    5  A    between atoms: C_9  and  C_10
REMARK                            x       y       z     vdW  Elec       q    Type
REMARK                         _______ _______ _______ _____ _____    ______ ____
ROOT
ATOM      1  C   UNL     1       6.309   4.459  15.476  0.00  0.00    +0.000 C 
ATOM      2  C   UNL     1       7.590   4.612  16.312  0.00  0.00    +0.000 C 
ATOM      3  C   UNL     1       7.368   4.752  17.816  0.00  0.00    +0.000 C 
ATOM      4  C   UNL     1       6.722   6.083  18.193  0.00  0.00    +0.000 C 
ATOM      5  N   UNL     1       5.260   6.126  18.219  0.00  0.00    +0.000 NA
ATOM      6  C   UNL     1       4.574   5.575  17.040  0.00  0.00    +0.000 C 
ATOM      7  C   UNL     1       5.298   5.601  15.688  0.00  0.00    +0.000 C 
ENDROOT
BRANCH   1   8
ATOM      8  O   UNL     1       5.694   3.210  15.834  0.00  0.00    +0.000 OA
ATOM      9  H   UNL     1       6.073   2.552  15.217  0.00  0.00    +0.000 HD
ENDBRANCH   1   8
BRANCH   1  10
ATOM     10  C   UNL     1       6.667   4.359  13.973  0.00  0.00    +0.000 C 
BRANCH  10  11
ATOM     11  O   UNL     1       7.596   5.392  13.630  0.00  0.00    +0.000 OA
ATOM     12  H   UNL     1       7.981   5.713  14.466  0.00  0.00    +0.000 HD
ENDBRANCH  10  11
ENDBRANCH   1  10
BRANCH   5  13
ATOM     13  C   UNL     1       4.674   5.531  19.439  0.00  0.00    +0.000 C 
BRANCH  13  14
ATOM     14  C   UNL     1       3.614   4.483  19.168  0.00  0.00    +0.000 A 
ATOM     15  C   UNL     1       2.250   4.824  19.185  0.00  0.00    +0.000 A 
ATOM     16  C   UNL     1       1.272   3.849  18.975  0.00  0.00    +0.000 A 
ATOM     17  C   UNL     1       1.655   2.532  18.744  0.00  0.00    +0.000 A 
ATOM     18  F   UNL     1       0.714   1.596  18.562  0.00  0.00    +0.000 F 
ATOM     19  C   UNL     1       3.000   2.188  18.708  0.00  0.00    +0.000 A 
ATOM     20  F   UNL     1       3.366   0.918  18.484  0.00  0.00    +0.000 F 
ATOM     21  C   UNL     1       3.980   3.153  18.915  0.00  0.00    +0.000 A 
ENDBRANCH  13  14
ENDBRANCH   5  13
TORSDOF 5
ENDMDL
MODEL 4
REMARK VINA RESULT:      -7.1      1.656      1.827
REMARK  Name = 
REMARK  5 active torsions:
REMARK  status: ('A' for Active; 'I' for Inactive)
REMARK    1  A    between atoms: O_1  and  C_2
REMARK    2  A    between atoms: C_2  and  C_3
REMARK    3  A    between atoms: C_3  and  O_4
REMARK    4  A    between atoms: N_8  and  C_9
REMARK    5  A    between atoms: C_9  and  C_10
REMARK                            x       y       z     vdW  Elec       q    Type
REMARK                         _______ _______ _______ _____ _____    ______ ____
ROOT
ATOM      1  C   UNL     1       2.812   4.963  19.752  0.00  0.00    +0.000 C 
ATOM      2  C   UNL     1       3.095   3.476  20.022  0.00  0.00    +0.000 C 
ATOM      3  C   UNL     1       4.174   2.851  19.141  0.00  0.00    +0.000 C 
ATOM      4  C   UNL     1       3.737   2.712  17.686  0.00  0.00    +0.000 C 
ATOM      5  N   UNL     1       4.010   3.843  16.799  0.00  0.00    +0.000 NA
ATOM      6  C   UNL     1       3.609   5.168  17.297  0.00  0.00    +0.000 C 
ATOM      7  C   UNL     1       2.441   5.260  18.288  0.00  0.00    +0.000 C 
ENDROOT
BRANCH   1   8
ATOM      8  O   UNL     1       3.991   5.707  20.103  0.00  0.00    +0.000 OA
ATOM      9  H   UNL     1       3.735   6.647  20.020  0.00  0.00    +0.000 HD
ENDBRANCH   1   8
BRANCH   1  10
ATOM     10  C   UNL     1       1.682   5.465  20.684  0.00  0.00    +0.000 C 
BRANCH  10  11
ATOM     11  O   UNL     1       1.837   6.870  20.913  0.00  0.00    +0.000 OA
ATOM     12  H   UNL     1       2.358   7.220  20.168  0.00  0.00    +0.000 HD
ENDBRANCH  10  11
ENDBRANCH   1  10
BRANCH   5  13
ATOM     13  C   UNL     1       5.413   3.906  16.339  0.00  0.00    +0.000 C 
BRANCH  13  14
ATOM     14  C   UNL     1       6.239   4.979  17.018  0.00  0.00    +0.000 A 
ATOM     15  C   UNL     1       6.271   6.289  16.507  0.00  0.00    +0.000 A 
ATOM     16  C   UNL     1       7.065   7.267  17.110  0.00  0.00    +0.000 A 
ATOM     17  C   UNL     1       7.825   6.941  18.227  0.00  0.00    +0.000 A 
ATOM     18  F   UNL     1       8.600   7.877  18.793  0.00  0.00    +0.000 F 
ATOM     19  C   UNL     1       7.788   5.655  18.751  0.00  0.00    +0.000 A 
ATOM     20  F   UNL     1       8.520   5.344  19.830  0.00  0.00    +0.000 F 
ATOM     21  C   UNL     1       7.000   4.675  18.158  0.00  0.00    +0.000 A 
ENDBRANCH  13  14
ENDBRANCH   5  13
TORSDOF 5
ENDMDL
MODEL 5
REMARK VINA RESULT:      -7.0      4.001      6.565
REMARK  Name = 
REMARK  5 active torsions:
REMARK  status: ('A' for Active; 'I' for Inactive)
REMARK    1  A    between atoms: O_1  and  C_2
REMARK    2  A    between atoms: C_2  and  C_3
REMARK    3  A    between atoms: C_3  and  O_4
REMARK    4  A    between atoms: N_8  and  C_9
REMARK    5  A    between atoms: C_9  and  C_10
REMARK                            x       y       z     vdW  Elec       q    Type
REMARK                         _______ _______ _______ _____ _____    ______ ____
ROOT
ATOM      1  C   UNL     1       6.343   4.426  15.383  0.00  0.00    +0.000 C 
ATOM      2  C   UNL     1       7.661   4.676  16.133  0.00  0.00    +0.000 C 
ATOM      3  C   UNL     1       7.549   4.686  17.655  0.00  0.00    +0.000 C 
ATOM      4  C   UNL     1       6.786   5.899  18.180  0.00  0.00    +0.000 C 
ATOM      5  N   UNL     1       5.336   5.762  18.317  0.00  0.00    +0.000 NA
ATOM      6  C   UNL     1       4.624   5.213  17.152  0.00  0.00    +0.000 C 
ATOM      7  C   UNL     1       5.228   5.419  15.756  0.00  0.00    +0.000 C 
ENDROOT
BRANCH   1   8
ATOM      8  O   UNL     1       5.909   3.089  15.688  0.00  0.00    +0.000 OA
ATOM      9  H   UNL     1       5.799   3.071  16.660  0.00  0.00    +0.000 HD
ENDBRANCH   1   8
BRANCH   1  10
ATOM     10  C   UNL     1       6.586   4.472  13.855  0.00  0.00    +0.000 C 
BRANCH  10  11
ATOM     11  O   UNL     1       7.624   5.413  13.562  0.00  0.00    +0.000 OA
ATOM     12  H   UNL     1       7.314   5.949  12.810  0.00  0.00    +0.000 HD
ENDBRANCH  10  11
ENDBRANCH   1  10
BRANCH   5  13
ATOM     13  C   UNL     1       4.925   5.019  19.527  0.00  0.00    +0.000 C 
BRANCH  13  14
ATOM     14  C   UNL     1       3.717   4.128  19.324  0.00  0.00    +0.000 A 
ATOM     15  C   UNL     1       3.819   2.942  18.575  0.00  0.00    +0.000 A 
ATOM     16  C   UNL     1       2.695   2.142  18.355  0.00  0.00    +0.000 A 
ATOM     17  C   UNL     1       1.468   2.522  18.886  0.00  0.00    +0.000 A 
ATOM     18  F   UNL     1       0.388   1.763  18.658  0.00  0.00    +0.000 F 
ATOM     19  C   UNL     1       1.359   3.683  19.643  0.00  0.00    +0.000 A 
ATOM     20  F   UNL     1       0.175   4.045  20.155  0.00  0.00    +0.000 F 
ATOM     21  C   UNL     1       2.473   4.485  19.867  0.00  0.00    +0.000 A 
ENDBRANCH  13  14
ENDBRANCH   5  13
TORSDOF 5
ENDMDL
MODEL 6
REMARK VINA RESULT:      -7.0      3.322      3.907
REMARK  Name = 
REMARK  5 active torsions:
REMARK  status: ('A' for Active; 'I' for Inactive)
REMARK    1  A    between atoms: O_1  and  C_2
REMARK    2  A    between atoms: C_2  and  C_3
REMARK    3  A    between atoms: C_3  and  O_4
REMARK    4  A    between atoms: N_8  and  C_9
REMARK    5  A    between atoms: C_9  and  C_10
REMARK                            x       y       z     vdW  Elec       q    Type
REMARK                         _______ _______ _______ _____ _____    ______ ____
ROOT
ATOM      1  C   UNL     1       2.436   4.446  19.796  0.00  0.00    +0.000 C 
ATOM      2  C   UNL     1       3.132   3.095  20.025  0.00  0.00    +0.000 C 
ATOM      3  C   UNL     1       4.451   2.912  19.279  0.00  0.00    +0.000 C 
ATOM      4  C   UNL     1       4.259   2.786  17.770  0.00  0.00    +0.000 C 
ATOM      5  N   UNL     1       4.273   4.026  16.993  0.00  0.00    +0.000 NA
ATOM      6  C   UNL     1       3.422   5.115  17.498  0.00  0.00    +0.000 C 
ATOM      7  C   UNL     1       2.171   4.756  18.312  0.00  0.00    +0.000 C 
ENDROOT
BRANCH   1   8
ATOM      8  O   UNL     1       3.273   5.474  20.353  0.00  0.00    +0.000 OA
ATOM      9  H   UNL     1       3.938   4.999  20.892  0.00  0.00    +0.000 HD
ENDBRANCH   1   8
BRANCH   1  10
ATOM     10  C   UNL     1       1.101   4.493  20.580  0.00  0.00    +0.000 C 
BRANCH  10  11
ATOM     11  O   UNL     1       0.323   3.331  20.273  0.00  0.00    +0.000 OA
ATOM     12  H   UNL     1       0.800   2.567  20.644  0.00  0.00    +0.000 HD
ENDBRANCH  10  11
ENDBRANCH   1  10
BRANCH   5  13
ATOM     13  C   UNL     1       5.631   4.552  16.746  0.00  0.00    +0.000 C 
BRANCH  13  14
ATOM     14  C   UNL     1       6.063   4.491  15.295  0.00  0.00    +0.000 A 
ATOM     15  C   UNL     1       5.339   3.726  14.364  0.00  0.00    +0.000 A 
ATOM     16  C   UNL     1       5.761   3.638  13.035  0.00  0.00    +0.000 A 
ATOM     17  C   UNL     1       6.905   4.317  12.633  0.00  0.00    +0.000 A 
ATOM     18  F   UNL     1       7.318   4.216  11.362  0.00  0.00    +0.000 F 
ATOM     19  C   UNL     1       7.618   5.091  13.540  0.00  0.00    +0.000 A 
ATOM     20  F   UNL     1       8.720   5.746  13.149  0.00  0.00    +0.000 F 
ATOM     21  C   UNL     1       7.205   5.185  14.865  0.00  0.00    +0.000 A 
ENDBRANCH  13  14
ENDBRANCH   5  13
TORSDOF 5
ENDMDL
MODEL 7
REMARK VINA RESULT:      -6.9      3.627      4.104
REMARK  Name = 
REMARK  5 active torsions:
REMARK  status: ('A' for Active; 'I' for Inactive)
REMARK    1  A    between atoms: O_1  and  C_2
REMARK    2  A    between atoms: C_2  and  C_3
REMARK    3  A    between atoms: C_3  and  O_4
REMARK    4  A    between atoms: N_8  and  C_9
REMARK    5  A    between atoms: C_9  and  C_10
REMARK                            x       y       z     vdW  Elec       q    Type
REMARK                         _______ _______ _______ _____ _____    ______ ____
ROOT
ATOM      1  C   UNL     1       2.414   4.451  19.767  0.00  0.00    +0.000 C 
ATOM      2  C   UNL     1       3.101   3.094  19.993  0.00  0.00    +0.000 C 
ATOM      3  C   UNL     1       4.429   2.911  19.261  0.00  0.00    +0.000 C 
ATOM      4  C   UNL     1       4.256   2.800  17.749  0.00  0.00    +0.000 C 
ATOM      5  N   UNL     1       4.285   4.047  16.984  0.00  0.00    +0.000 NA
ATOM      6  C   UNL     1       3.433   5.135  17.487  0.00  0.00    +0.000 C 
ATOM      7  C   UNL     1       2.171   4.775  18.282  0.00  0.00    +0.000 C 
ENDROOT
BRANCH   1   8
ATOM      8  O   UNL     1       3.249   5.469  20.344  0.00  0.00    +0.000 OA
ATOM      9  H   UNL     1       3.229   5.301  21.307  0.00  0.00    +0.000 HD
ENDBRANCH   1   8
BRANCH   1  10
ATOM     10  C   UNL     1       1.070   4.497  20.533  0.00  0.00    +0.000 C 
BRANCH  10  11
ATOM     11  O   UNL     1       0.312   3.317  20.245  0.00  0.00    +0.000 OA
ATOM     12  H   UNL     1       0.012   3.394  19.321  0.00  0.00    +0.000 HD
ENDBRANCH  10  11
ENDBRANCH   1  10
BRANCH   5  13
ATOM     13  C   UNL     1       5.650   4.569  16.759  0.00  0.00    +0.000 C 
BRANCH  13  14
ATOM     14  C   UNL     1       6.117   4.479  15.321  0.00  0.00    +0.000 A 
ATOM     15  C   UNL     1       7.300   5.119  14.911  0.00  0.00    +0.000 A 
ATOM     16  C   UNL     1       7.708   5.069  13.576  0.00  0.00    +0.000 A 
ATOM     17  C   UNL     1       6.938   4.377  12.648  0.00  0.00    +0.000 A 
ATOM     18  F   UNL     1       7.323   4.346  11.365  0.00  0.00    +0.000 F 
ATOM     19  C   UNL     1       5.777   3.726  13.046  0.00  0.00    +0.000 A 
ATOM     20  F   UNL     1       5.037   3.058  12.149  0.00  0.00    +0.000 F 
ATOM     21  C   UNL     1       5.363   3.770  14.373  0.00  0.00    +0.000 A 
ENDBRANCH  13  14
ENDBRANCH   5  13
TORSDOF 5
ENDMDL
MODEL 8
REMARK VINA RESULT:      -6.9      2.948      3.444
REMARK  Name = 
REMARK  5 active torsions:
REMARK  status: ('A' for Active; 'I' for Inactive)
REMARK    1  A    between atoms: O_1  and  C_2
REMARK    2  A    between atoms: C_2  and  C_3
REMARK    3  A    between atoms: C_3  and  O_4
REMARK    4  A    between atoms: N_8  and  C_9
REMARK    5  A    between atoms: C_9  and  C_10
REMARK                            x       y       z     vdW  Elec       q    Type
REMARK                         _______ _______ _______ _____ _____    ______ ____
ROOT
ATOM      1  C   UNL     1       1.913   2.816  19.948  0.00  0.00    +0.000 C 
ATOM      2  C   UNL     1       1.154   3.978  19.287  0.00  0.00    +0.000 C 
ATOM      3  C   UNL     1       1.554   4.276  17.844  0.00  0.00    +0.000 C 
ATOM      4  C   UNL     1       2.959   4.863  17.733  0.00  0.00    +0.000 C 
ATOM      5  N   UNL     1       4.065   3.916  17.589  0.00  0.00    +0.000 NA
ATOM      6  C   UNL     1       4.086   2.795  18.541  0.00  0.00    +0.000 C 
ATOM      7  C   UNL     1       3.442   2.988  19.920  0.00  0.00    +0.000 C 
ENDROOT
BRANCH   1   8
ATOM      8  O   UNL     1       1.559   1.607  19.254  0.00  0.00    +0.000 OA
ATOM      9  H   UNL     1       2.315   1.002  19.391  0.00  0.00    +0.000 HD
ENDBRANCH   1   8
BRANCH   1  10
ATOM     10  C   UNL     1       1.438   2.638  21.411  0.00  0.00    +0.000 C 
BRANCH  10  11
ATOM     11  O   UNL     1       2.487   3.023  22.306  0.00  0.00    +0.000 OA
ATOM     12  H   UNL     1       2.443   3.993  22.390  0.00  0.00    +0.000 HD
ENDBRANCH  10  11
ENDBRANCH   1  10
BRANCH   5  13
ATOM     13  C   UNL     1       4.211   3.386  16.217  0.00  0.00    +0.000 C 
BRANCH  13  14
ATOM     14  C   UNL     1       5.381   3.968  15.451  0.00  0.00    +0.000 A 
ATOM     15  C   UNL     1       6.312   4.806  16.092  0.00  0.00    +0.000 A 
ATOM     16  C   UNL     1       7.367   5.375  15.376  0.00  0.00    +0.000 A 
ATOM     17  C   UNL     1       7.498   5.105  14.018  0.00  0.00    +0.000 A 
ATOM     18  F   UNL     1       8.501   5.667  13.329  0.00  0.00    +0.000 F 
ATOM     19  C   UNL     1       6.595   4.266  13.378  0.00  0.00    +0.000 A 
ATOM     20  F   UNL     1       6.725   4.006  12.070  0.00  0.00    +0.000 F 
ATOM     21  C   UNL     1       5.541   3.694  14.084  0.00  0.00    +0.000 A 
ENDBRANCH  13  14
ENDBRANCH   5  13
TORSDOF 5
ENDMDL
MODEL 9
REMARK VINA RESULT:      -6.8      4.359      6.545
REMARK  Name = 
REMARK  5 active torsions:
REMARK  status: ('A' for Active; 'I' for Inactive)
REMARK    1  A    between atoms: O_1  and  C_2
REMARK    2  A    between atoms: C_2  and  C_3
REMARK    3  A    between atoms: C_3  and  O_4
REMARK    4  A    between atoms: N_8  and  C_9
REMARK    5  A    between atoms: C_9  and  C_10
REMARK                            x       y       z     vdW  Elec       q    Type
REMARK                         _______ _______ _______ _____ _____    ______ ____
ROOT
ATOM      1  C   UNL     1       6.047   4.725  14.998  0.00  0.00    +0.000 C 
ATOM      2  C   UNL     1       5.872   3.483  15.887  0.00  0.00    +0.000 C 
ATOM      3  C   UNL     1       4.704   3.548  16.869  0.00  0.00    +0.000 C 
ATOM      4  C   UNL     1       4.932   4.564  17.985  0.00  0.00    +0.000 C 
ATOM      5  N   UNL     1       4.485   5.935  17.736  0.00  0.00    +0.000 NA
ATOM      6  C   UNL     1       4.895   6.528  16.455  0.00  0.00    +0.000 C 
ATOM      7  C   UNL     1       6.190   6.034  15.795  0.00  0.00    +0.000 C 
ENDROOT
BRANCH   1   8
ATOM      8  O   UNL     1       4.900   4.816  14.136  0.00  0.00    +0.000 OA
ATOM      9  H   UNL     1       4.234   4.220  14.533  0.00  0.00    +0.000 HD
ENDBRANCH   1   8
BRANCH   1  10
ATOM     10  C   UNL     1       7.278   4.545  14.075  0.00  0.00    +0.000 C 
BRANCH  10  11
ATOM     11  O   UNL     1       8.147   5.674  14.209  0.00  0.00    +0.000 OA
ATOM     12  H   UNL     1       7.609   6.403  14.566  0.00  0.00    +0.000 HD
ENDBRANCH  10  11
ENDBRANCH   1  10
BRANCH   5  13
ATOM     13  C   UNL     1       3.028   6.119  17.908  0.00  0.00    +0.000 C 
BRANCH  13  14
ATOM     14  C   UNL     1       2.402   5.188  18.925  0.00  0.00    +0.000 A 
ATOM     15  C   UNL     1       2.674   5.340  20.297  0.00  0.00    +0.000 A 
ATOM     16  C   UNL     1       2.128   4.456  21.231  0.00  0.00    +0.000 A 
ATOM     17  C   UNL     1       1.308   3.421  20.798  0.00  0.00    +0.000 A 
ATOM     18  F   UNL     1       0.801   2.563  21.694  0.00  0.00    +0.000 F 
ATOM     19  C   UNL     1       1.019   3.272  19.447  0.00  0.00    +0.000 A 
ATOM     20  F   UNL     1       0.226   2.274  19.032  0.00  0.00    +0.000 F 
ATOM     21  C   UNL     1       1.557   4.148  18.510  0.00  0.00    +0.000 A 
ENDBRANCH  13  14
ENDBRANCH   5  13
TORSDOF 5
ENDMDL
