MODEL 1
REMARK VINA RESULT:      -8.0      0.000      0.000
REMARK  Name = 
REMARK  4 active torsions:
REMARK  status: ('A' for Active; 'I' for Inactive)
REMARK    1  A    between atoms: N_4  and  C_5
REMARK    2  A    between atoms: C_8  and  S_9
REMARK    3  A    between atoms: S_9  and  C_10
REMARK    4  A    between atoms: C_21  and  C_22
REMARK                            x       y       z     vdW  Elec       q    Type
REMARK                         _______ _______ _______ _____ _____    ______ ____
ROOT
ATOM      1  C   UNL     1       0.503   9.432  20.753  0.00  0.00    +0.000 A 
ATOM      2  S   UNL     1       1.185   8.054  21.472  0.00  0.00    +0.000 S 
ATOM      3  N   UNL     1       2.019   7.563  20.150  0.00  0.00    +0.000 NA
ATOM      4  C   UNL     1       1.798   8.403  19.147  0.00  0.00    +0.000 A 
ATOM      5  C   UNL     1       0.968   9.552  19.441  0.00  0.00    +0.000 A 
ENDROOT
BRANCH   1   9
ATOM      6  N   UNL     1      -1.548  11.165  23.159  0.00  0.00    +0.000 N 
ATOM      7  C   UNL     1      -0.490  10.385  22.791  0.00  0.00    +0.000 C 
ATOM      8  O   UNL     1       0.220   9.908  23.664  0.00  0.00    +0.000 OA
ATOM      9  N   UNL     1      -0.388  10.251  21.433  0.00  0.00    +0.000 N 
ATOM     10  H   UNL     1      -1.690  11.165  24.163  0.00  0.00    +0.000 HD
ATOM     11  H   UNL     1      -2.397  11.093  22.619  0.00  0.00    +0.000 HD
ATOM     12  H   UNL     1      -0.990  10.828  20.851  0.00  0.00    +0.000 HD
ENDBRANCH   1   9
BRANCH   5  13
ATOM     13  C   UNL     1       0.574  10.688  18.615  0.00  0.00    +0.000 C 
ATOM     14  N   UNL     1       1.551  11.510  18.146  0.00  0.00    +0.000 N 
ATOM     15  O   UNL     1      -0.602  10.936  18.347  0.00  0.00    +0.000 OA
ATOM     16  H   UNL     1       2.533  11.370  18.350  0.00  0.00    +0.000 HD
ATOM     17  H   UNL     1       1.275  12.321  17.610  0.00  0.00    +0.000 HD
ENDBRANCH   5  13
BRANCH   4  18
ATOM     18  S   UNL     1       2.551   8.024  17.576  0.00  0.00    +0.000 S 
BRANCH  18  19
ATOM     19  C   UNL     1       3.872   6.732  18.010  0.00  0.00    +0.000 C 
ATOM     20  C   UNL     1       5.109   7.164  17.184  0.00  0.00    +0.000 C 
ATOM     21  C   UNL     1       6.464   6.542  17.498  0.00  0.00    +0.000 C 
ATOM     22  C   UNL     1       6.542   5.052  17.230  0.00  0.00    +0.000 C 
ATOM     23  C   UNL     1       5.750   4.260  18.250  0.00  0.00    +0.000 C 
ATOM     24  C   UNL     1       4.275   4.164  17.947  0.00  0.00    +0.000 A 
ATOM     25  C   UNL     1       3.769   2.858  17.746  0.00  0.00    +0.000 A 
ATOM     26  C   UNL     1       2.408   2.615  17.619  0.00  0.00    +0.000 A 
ATOM     27  C   UNL     1       1.525   3.668  17.757  0.00  0.00    +0.000 A 
ATOM     28  C   UNL     1       2.012   4.965  17.940  0.00  0.00    +0.000 A 
ATOM     29  C   UNL     1       3.394   5.270  17.943  0.00  0.00    +0.000 A 
ENDBRANCH  18  19
ENDBRANCH   4  18
TORSDOF 4
ENDMDL
MODEL 2
REMARK VINA RESULT:      -7.7      2.524      4.119
REMARK  Name = 
REMARK  4 active torsions:
REMARK  status: ('A' for Active; 'I' for Inactive)
REMARK    1  A    between atoms: N_4  and  C_5
REMARK    2  A    between atoms: C_8  and  S_9
REMARK    3  A    between atoms: S_9  and  C_10
REMARK    4  A    between atoms: C_21  and  C_22
REMARK                            x       y       z     vdW  Elec       q    Type
REMARK                         _______ _______ _______ _____ _____    ______ ____
ROOT
ATOM      1  C   UNL     1       1.864   7.295  20.091  0.00  0.00    +0.000 A 
ATOM      2  S   UNL     1       2.206   8.251  18.732  0.00  0.00    +0.000 S 
ATOM      3  N   UNL     1       2.585   7.005  17.735  0.00  0.00    +0.000 NA
ATOM      4  C   UNL     1       2.477   5.859  18.394  0.00  0.00    +0.000 A 
ATOM      5  C   UNL     1       2.005   5.944  19.760  0.00  0.00    +0.000 A 
ENDROOT
BRANCH   1   9
ATOM      6  N   UNL     1       0.513   9.220  22.825  0.00  0.00    +0.000 N 
ATOM      7  C   UNL     1       0.520   8.759  21.540  0.00  0.00    +0.000 C 
ATOM      8  O   UNL     1      -0.322   9.179  20.760  0.00  0.00    +0.000 OA
ATOM      9  N   UNL     1       1.521   7.854  21.315  0.00  0.00    +0.000 N 
ATOM     10  H   UNL     1      -0.151   9.974  22.955  0.00  0.00    +0.000 HD
ATOM     11  H   UNL     1       1.403   9.366  23.277  0.00  0.00    +0.000 HD
ATOM     12  H   UNL     1       2.048   7.519  22.117  0.00  0.00    +0.000 HD
ENDBRANCH   1   9
BRANCH   5  13
ATOM     13  C   UNL     1       1.714   4.905  20.741  0.00  0.00    +0.000 C 
ATOM     14  N   UNL     1       0.649   4.089  20.516  0.00  0.00    +0.000 N 
ATOM     15  O   UNL     1       2.382   4.755  21.765  0.00  0.00    +0.000 OA
ATOM     16  H   UNL     1       0.050   4.177  19.704  0.00  0.00    +0.000 HD
ATOM     17  H   UNL     1       0.422   3.398  21.218  0.00  0.00    +0.000 HD
ENDBRANCH   5  13
BRANCH   4  18
ATOM     18  S   UNL     1       2.916   4.366  17.524  0.00  0.00    +0.000 S 
BRANCH  18  19
ATOM     19  C   UNL     1       4.802   4.275  17.708  0.00  0.00    +0.000 C 
ATOM     20  C   UNL     1       5.119   5.276  18.848  0.00  0.00    +0.000 C 
ATOM     21  C   UNL     1       6.503   5.259  19.484  0.00  0.00    +0.000 C 
ATOM     22  C   UNL     1       7.627   5.649  18.544  0.00  0.00    +0.000 C 
ATOM     23  C   UNL     1       7.896   4.566  17.520  0.00  0.00    +0.000 C 
ATOM     24  C   UNL     1       6.978   4.605  16.323  0.00  0.00    +0.000 A 
ATOM     25  C   UNL     1       7.604   4.809  15.071  0.00  0.00    +0.000 A 
ATOM     26  C   UNL     1       6.901   4.708  13.879  0.00  0.00    +0.000 A 
ATOM     27  C   UNL     1       5.571   4.334  13.918  0.00  0.00    +0.000 A 
ATOM     28  C   UNL     1       4.937   4.143  15.148  0.00  0.00    +0.000 A 
ATOM     29  C   UNL     1       5.586   4.367  16.386  0.00  0.00    +0.000 A 
ENDBRANCH  18  19
ENDBRANCH   4  18
TORSDOF 4
ENDMDL
MODEL 3
REMARK VINA RESULT:      -7.7      2.268      3.728
REMARK  Name = 
REMARK  4 active torsions:
REMARK  status: ('A' for Active; 'I' for Inactive)
REMARK    1  A    between atoms: N_4  and  C_5
REMARK    2  A    between atoms: C_8  and  S_9
REMARK    3  A    between atoms: S_9  and  C_10
REMARK    4  A    between atoms: C_21  and  C_22
REMARK                            x       y       z     vdW  Elec       q    Type
REMARK                         _______ _______ _______ _____ _____    ______ ____
ROOT
ATOM      1  C   UNL     1      -0.156  10.126  19.579  0.00  0.00    +0.000 A 
ATOM      2  S   UNL     1      -0.727   9.577  21.080  0.00  0.00    +0.000 S 
ATOM      3  N   UNL     1       0.484   8.506  21.345  0.00  0.00    +0.000 NA
ATOM      4  C   UNL     1       1.328   8.525  20.321  0.00  0.00    +0.000 A 
ATOM      5  C   UNL     1       1.050   9.488  19.277  0.00  0.00    +0.000 A 
ENDROOT
BRANCH   1   9
ATOM      6  N   UNL     1      -2.020  11.948  17.088  0.00  0.00    +0.000 N 
ATOM      7  C   UNL     1      -1.549  10.807  17.670  0.00  0.00    +0.000 C 
ATOM      8  O   UNL     1      -1.779   9.734  17.132  0.00  0.00    +0.000 OA
ATOM      9  N   UNL     1      -0.855  11.058  18.823  0.00  0.00    +0.000 N 
ATOM     10  H   UNL     1      -2.429  11.770  16.178  0.00  0.00    +0.000 HD
ATOM     11  H   UNL     1      -1.440  12.773  17.130  0.00  0.00    +0.000 HD
ATOM     12  H   UNL     1      -0.876  12.003  19.195  0.00  0.00    +0.000 HD
ENDBRANCH   1   9
BRANCH   5  13
ATOM     13  C   UNL     1       1.782   9.823  18.060  0.00  0.00    +0.000 C 
ATOM     14  N   UNL     1       2.184  11.111  17.887  0.00  0.00    +0.000 N 
ATOM     15  O   UNL     1       2.030   8.992  17.187  0.00  0.00    +0.000 OA
ATOM     16  H   UNL     1       1.992  11.843  18.559  0.00  0.00    +0.000 HD
ATOM     17  H   UNL     1       2.653  11.351  17.024  0.00  0.00    +0.000 HD
ENDBRANCH   5  13
BRANCH   4  18
ATOM     18  S   UNL     1       2.693   7.378  20.359  0.00  0.00    +0.000 S 
BRANCH  18  19
ATOM     19  C   UNL     1       2.006   5.833  19.497  0.00  0.00    +0.000 C 
ATOM     20  C   UNL     1       1.602   4.898  20.664  0.00  0.00    +0.000 C 
ATOM     21  C   UNL     1       0.735   3.680  20.371  0.00  0.00    +0.000 C 
ATOM     22  C   UNL     1       1.398   2.641  19.489  0.00  0.00    +0.000 C 
ATOM     23  C   UNL     1       1.512   3.118  18.056  0.00  0.00    +0.000 C 
ATOM     24  C   UNL     1       2.708   4.000  17.792  0.00  0.00    +0.000 A 
ATOM     25  C   UNL     1       3.638   3.511  16.845  0.00  0.00    +0.000 A 
ATOM     26  C   UNL     1       4.695   4.290  16.392  0.00  0.00    +0.000 A 
ATOM     27  C   UNL     1       4.799   5.596  16.831  0.00  0.00    +0.000 A 
ATOM     28  C   UNL     1       3.894   6.086  17.778  0.00  0.00    +0.000 A 
ATOM     29  C   UNL     1       2.886   5.282  18.360  0.00  0.00    +0.000 A 
ENDBRANCH  18  19
ENDBRANCH   4  18
TORSDOF 4
ENDMDL
MODEL 4
REMARK VINA RESULT:      -7.7      1.586      3.815
REMARK  Name = 
REMARK  4 active torsions:
REMARK  status: ('A' for Active; 'I' for Inactive)
REMARK    1  A    between atoms: N_4  and  C_5
REMARK    2  A    between atoms: C_8  and  S_9
REMARK    3  A    between atoms: S_9  and  C_10
REMARK    4  A    between atoms: C_21  and  C_22
REMARK                            x       y       z     vdW  Elec       q    Type
REMARK                         _______ _______ _______ _____ _____    ______ ____
ROOT
ATOM      1  C   UNL     1       0.719  10.225  19.287  0.00  0.00    +0.000 A 
ATOM      2  S   UNL     1       1.411   9.697  17.831  0.00  0.00    +0.000 S 
ATOM      3  N   UNL     1       1.984   8.277  18.416  0.00  0.00    +0.000 NA
ATOM      4  C   UNL     1       1.684   8.173  19.704  0.00  0.00    +0.000 A 
ATOM      5  C   UNL     1       0.896   9.247  20.270  0.00  0.00    +0.000 A 
ENDROOT
BRANCH   1   9
ATOM      6  N   UNL     1      -1.379  13.148  19.047  0.00  0.00    +0.000 N 
ATOM      7  C   UNL     1      -1.106  11.821  18.874  0.00  0.00    +0.000 C 
ATOM      8  O   UNL     1      -1.924  11.123  18.295  0.00  0.00    +0.000 OA
ATOM      9  N   UNL     1       0.105  11.465  19.403  0.00  0.00    +0.000 N 
ATOM     10  H   UNL     1      -2.218  13.430  18.553  0.00  0.00    +0.000 HD
ATOM     11  H   UNL     1      -0.613  13.800  18.974  0.00  0.00    +0.000 HD
ATOM     12  H   UNL     1       0.598  12.151  19.969  0.00  0.00    +0.000 HD
ENDBRANCH   1   9
BRANCH   5  13
ATOM     13  C   UNL     1       0.343   9.430  21.608  0.00  0.00    +0.000 C 
ATOM     14  N   UNL     1      -0.585   8.538  22.046  0.00  0.00    +0.000 N 
ATOM     15  O   UNL     1       0.672  10.365  22.338  0.00  0.00    +0.000 OA
ATOM     16  H   UNL     1      -0.911   7.761  21.484  0.00  0.00    +0.000 HD
ATOM     17  H   UNL     1      -1.000   8.690  22.956  0.00  0.00    +0.000 HD
ENDBRANCH   5  13
BRANCH   4  18
ATOM     18  S   UNL     1       2.276   6.732  20.572  0.00  0.00    +0.000 S 
BRANCH  18  19
ATOM     19  C   UNL     1       2.045   5.326  19.318  0.00  0.00    +0.000 C 
ATOM     20  C   UNL     1       1.408   4.182  20.147  0.00  0.00    +0.000 C 
ATOM     21  C   UNL     1       0.801   2.990  19.419  0.00  0.00    +0.000 C 
ATOM     22  C   UNL     1       1.803   2.156  18.645  0.00  0.00    +0.000 C 
ATOM     23  C   UNL     1       2.292   2.880  17.407  0.00  0.00    +0.000 C 
ATOM     24  C   UNL     1       3.413   3.856  17.666  0.00  0.00    +0.000 A 
ATOM     25  C   UNL     1       4.631   3.589  16.998  0.00  0.00    +0.000 A 
ATOM     26  C   UNL     1       5.687   4.489  17.020  0.00  0.00    +0.000 A 
ATOM     27  C   UNL     1       5.518   5.703  17.659  0.00  0.00    +0.000 A 
ATOM     28  C   UNL     1       4.325   5.973  18.335  0.00  0.00    +0.000 A 
ATOM     29  C   UNL     1       3.278   5.028  18.446  0.00  0.00    +0.000 A 
ENDBRANCH  18  19
ENDBRANCH   4  18
TORSDOF 4
ENDMDL
MODEL 5
REMARK VINA RESULT:      -7.6      1.788      3.680
REMARK  Name = 
REMARK  4 active torsions:
REMARK  status: ('A' for Active; 'I' for Inactive)
REMARK    1  A    between atoms: N_4  and  C_5
REMARK    2  A    between atoms: C_8  and  S_9
REMARK    3  A    between atoms: S_9  and  C_10
REMARK    4  A    between atoms: C_21  and  C_22
REMARK                            x       y       z     vdW  Elec       q    Type
REMARK                         _______ _______ _______ _____ _____    ______ ____
ROOT
ATOM      1  C   UNL     1       0.669  10.139  19.936  0.00  0.00    +0.000 A 
ATOM      2  S   UNL     1       1.163   9.727  18.366  0.00  0.00    +0.000 S 
ATOM      3  N   UNL     1       1.792   8.265  18.761  0.00  0.00    +0.000 NA
ATOM      4  C   UNL     1       1.659   8.061  20.064  0.00  0.00    +0.000 A 
ATOM      5  C   UNL     1       0.961   9.087  20.809  0.00  0.00    +0.000 A 
ENDROOT
BRANCH   1   9
ATOM      6  N   UNL     1      -0.167  13.450  21.096  0.00  0.00    +0.000 N 
ATOM      7  C   UNL     1       0.701  12.431  20.830  0.00  0.00    +0.000 C 
ATOM      8  O   UNL     1       1.876  12.562  21.142  0.00  0.00    +0.000 OA
ATOM      9  N   UNL     1       0.088  11.367  20.226  0.00  0.00    +0.000 N 
ATOM     10  H   UNL     1       0.265  14.183  21.647  0.00  0.00    +0.000 HD
ATOM     11  H   UNL     1      -1.103  13.207  21.385  0.00  0.00    +0.000 HD
ATOM     12  H   UNL     1      -0.874  11.483  19.919  0.00  0.00    +0.000 HD
ENDBRANCH   1   9
BRANCH   5  13
ATOM     13  C   UNL     1       0.586   9.165  22.217  0.00  0.00    +0.000 C 
ATOM     14  N   UNL     1      -0.664   8.763  22.572  0.00  0.00    +0.000 N 
ATOM     15  O   UNL     1       1.349   9.594  23.083  0.00  0.00    +0.000 OA
ATOM     16  H   UNL     1      -1.343   8.421  21.903  0.00  0.00    +0.000 HD
ATOM     17  H   UNL     1      -0.938   8.858  23.540  0.00  0.00    +0.000 HD
ENDBRANCH   5  13
BRANCH   4  18
ATOM     18  S   UNL     1       2.342   6.556  20.734  0.00  0.00    +0.000 S 
BRANCH  18  19
ATOM     19  C   UNL     1       2.098   5.292  19.340  0.00  0.00    +0.000 C 
ATOM     20  C   UNL     1       1.471   4.064  20.048  0.00  0.00    +0.000 C 
ATOM     21  C   UNL     1       0.857   2.956  19.204  0.00  0.00    +0.000 C 
ATOM     22  C   UNL     1       1.850   2.211  18.334  0.00  0.00    +0.000 C 
ATOM     23  C   UNL     1       2.325   3.065  17.176  0.00  0.00    +0.000 C 
ATOM     24  C   UNL     1       3.448   4.010  17.525  0.00  0.00    +0.000 A 
ATOM     25  C   UNL     1       4.659   3.819  16.818  0.00  0.00    +0.000 A 
ATOM     26  C   UNL     1       5.715   4.713  16.925  0.00  0.00    +0.000 A 
ATOM     27  C   UNL     1       5.552   5.851  17.691  0.00  0.00    +0.000 A 
ATOM     28  C   UNL     1       4.367   6.045  18.407  0.00  0.00    +0.000 A 
ATOM     29  C   UNL     1       3.321   5.091  18.427  0.00  0.00    +0.000 A 
ENDBRANCH  18  19
ENDBRANCH   4  18
TORSDOF 4
ENDMDL
MODEL 6
REMARK VINA RESULT:      -7.5      2.038      3.829
REMARK  Name = 
REMARK  4 active torsions:
REMARK  status: ('A' for Active; 'I' for Inactive)
REMARK    1  A    between atoms: N_4  and  C_5
REMARK    2  A    between atoms: C_8  and  S_9
REMARK    3  A    between atoms: S_9  and  C_10
REMARK    4  A    between atoms: C_21  and  C_22
REMARK                            x       y       z     vdW  Elec       q    Type
REMARK                         _______ _______ _______ _____ _____    ______ ____
ROOT
ATOM      1  C   UNL     1      -0.637  10.625  19.683  0.00  0.00    +0.000 A 
ATOM      2  S   UNL     1      -0.205  10.175  18.105  0.00  0.00    +0.000 S 
ATOM      3  N   UNL     1       0.862   9.011  18.543  0.00  0.00    +0.000 NA
ATOM      4  C   UNL     1       0.928   8.942  19.866  0.00  0.00    +0.000 A 
ATOM      5  C   UNL     1       0.038   9.816  20.601  0.00  0.00    +0.000 A 
ENDROOT
BRANCH   1   9
ATOM      6  N   UNL     1      -2.293  13.784  20.214  0.00  0.00    +0.000 N 
ATOM      7  C   UNL     1      -1.274  13.000  19.755  0.00  0.00    +0.000 C 
ATOM      8  O   UNL     1      -0.296  13.537  19.257  0.00  0.00    +0.000 OA
ATOM      9  N   UNL     1      -1.522  11.666  19.935  0.00  0.00    +0.000 N 
ATOM     10  H   UNL     1      -2.056  14.769  20.187  0.00  0.00    +0.000 HD
ATOM     11  H   UNL     1      -2.769  13.493  21.054  0.00  0.00    +0.000 HD
ATOM     12  H   UNL     1      -2.450  11.391  20.246  0.00  0.00    +0.000 HD
ENDBRANCH   1   9
BRANCH   5  13
ATOM     13  C   UNL     1      -0.198   9.961  22.033  0.00  0.00    +0.000 C 
ATOM     14  N   UNL     1      -0.642   8.876  22.724  0.00  0.00    +0.000 N 
ATOM     15  O   UNL     1      -0.029  11.026  22.628  0.00  0.00    +0.000 OA
ATOM     16  H   UNL     1      -0.819   7.980  22.287  0.00  0.00    +0.000 HD
ATOM     17  H   UNL     1      -0.846   8.989  23.707  0.00  0.00    +0.000 HD
ENDBRANCH   5  13
BRANCH   4  18
ATOM     18  S   UNL     1       2.088   7.787  20.572  0.00  0.00    +0.000 S 
BRANCH  18  19
ATOM     19  C   UNL     1       1.773   6.185  19.605  0.00  0.00    +0.000 C 
ATOM     20  C   UNL     1       1.551   5.117  20.705  0.00  0.00    +0.000 C 
ATOM     21  C   UNL     1       0.974   3.762  20.315  0.00  0.00    +0.000 C 
ATOM     22  C   UNL     1       1.868   2.943  19.405  0.00  0.00    +0.000 C 
ATOM     23  C   UNL     1       1.913   3.518  18.005  0.00  0.00    +0.000 C 
ATOM     24  C   UNL     1       2.897   4.649  17.833  0.00  0.00    +0.000 A 
ATOM     25  C   UNL     1       3.935   4.428  16.898  0.00  0.00    +0.000 A 
ATOM     26  C   UNL     1       4.810   5.440  16.527  0.00  0.00    +0.000 A 
ATOM     27  C   UNL     1       4.618   6.709  17.038  0.00  0.00    +0.000 A 
ATOM     28  C   UNL     1       3.606   6.938  17.974  0.00  0.00    +0.000 A 
ATOM     29  C   UNL     1       2.780   5.903  18.475  0.00  0.00    +0.000 A 
ENDBRANCH  18  19
ENDBRANCH   4  18
TORSDOF 4
ENDMDL
MODEL 7
REMARK VINA RESULT:      -7.3      3.938      7.588
REMARK  Name = 
REMARK  4 active torsions:
REMARK  status: ('A' for Active; 'I' for Inactive)
REMARK    1  A    between atoms: N_4  and  C_5
REMARK    2  A    between atoms: C_8  and  S_9
REMARK    3  A    between atoms: S_9  and  C_10
REMARK    4  A    between atoms: C_21  and  C_22
REMARK                            x       y       z     vdW  Elec       q    Type
REMARK                         _______ _______ _______ _____ _____    ______ ____
ROOT
ATOM      1  C   UNL     1       3.897   4.019  17.571  0.00  0.00    +0.000 A 
ATOM      2  S   UNL     1       2.294   3.472  17.474  0.00  0.00    +0.000 S 
ATOM      3  N   UNL     1       1.709   4.441  18.660  0.00  0.00    +0.000 NA
ATOM      4  C   UNL     1       2.693   5.178  19.158  0.00  0.00    +0.000 A 
ATOM      5  C   UNL     1       3.990   5.028  18.533  0.00  0.00    +0.000 A 
ENDROOT
BRANCH   1   9
ATOM      6  N   UNL     1       6.362   3.227  15.061  0.00  0.00    +0.000 N 
ATOM      7  C   UNL     1       5.492   4.063  15.698  0.00  0.00    +0.000 C 
ATOM      8  O   UNL     1       5.328   5.191  15.256  0.00  0.00    +0.000 OA
ATOM      9  N   UNL     1       4.908   3.476  16.788  0.00  0.00    +0.000 N 
ATOM     10  H   UNL     1       6.701   3.623  14.191  0.00  0.00    +0.000 HD
ATOM     11  H   UNL     1       6.122   2.248  15.008  0.00  0.00    +0.000 HD
ATOM     12  H   UNL     1       5.262   2.572  17.089  0.00  0.00    +0.000 HD
ENDBRANCH   1   9
BRANCH   5  13
ATOM     13  C   UNL     1       5.257   5.709  18.775  0.00  0.00    +0.000 C 
ATOM     14  N   UNL     1       5.628   6.698  17.918  0.00  0.00    +0.000 N 
ATOM     15  O   UNL     1       6.001   5.410  19.709  0.00  0.00    +0.000 OA
ATOM     16  H   UNL     1       5.069   6.974  17.120  0.00  0.00    +0.000 HD
ATOM     17  H   UNL     1       6.526   7.140  18.061  0.00  0.00    +0.000 HD
ENDBRANCH   5  13
BRANCH   4  18
ATOM     18  S   UNL     1       2.300   6.261  20.519  0.00  0.00    +0.000 S 
BRANCH  18  19
ATOM     19  C   UNL     1       1.422   7.726  19.690  0.00  0.00    +0.000 C 
ATOM     20  C   UNL     1       2.452   8.248  18.657  0.00  0.00    +0.000 C 
ATOM     21  C   UNL     1       1.996   9.233  17.589  0.00  0.00    +0.000 C 
ATOM     22  C   UNL     1       1.544  10.575  18.131  0.00  0.00    +0.000 C 
ATOM     23  C   UNL     1       0.212  10.467  18.845  0.00  0.00    +0.000 C 
ATOM     24  C   UNL     1       0.314  10.003  20.277  0.00  0.00    +0.000 A 
ATOM     25  C   UNL     1      -0.159  10.910  21.255  0.00  0.00    +0.000 A 
ATOM     26  C   UNL     1      -0.271  10.549  22.590  0.00  0.00    +0.000 A 
ATOM     27  C   UNL     1       0.027   9.251  22.959  0.00  0.00    +0.000 A 
ATOM     28  C   UNL     1       0.510   8.350  22.006  0.00  0.00    +0.000 A 
ATOM     29  C   UNL     1       0.762   8.719  20.663  0.00  0.00    +0.000 A 
ENDBRANCH  18  19
ENDBRANCH   4  18
TORSDOF 4
ENDMDL
MODEL 8
REMARK VINA RESULT:      -7.2      4.277      7.555
REMARK  Name = 
REMARK  4 active torsions:
REMARK  status: ('A' for Active; 'I' for Inactive)
REMARK    1  A    between atoms: N_4  and  C_5
REMARK    2  A    between atoms: C_8  and  S_9
REMARK    3  A    between atoms: S_9  and  C_10
REMARK    4  A    between atoms: C_21  and  C_22
REMARK                            x       y       z     vdW  Elec       q    Type
REMARK                         _______ _______ _______ _____ _____    ______ ____
ROOT
ATOM      1  C   UNL     1       5.054   4.309  17.678  0.00  0.00    +0.000 A 
ATOM      2  S   UNL     1       6.165   5.162  18.635  0.00  0.00    +0.000 S 
ATOM      3  N   UNL     1       5.076   5.676  19.747  0.00  0.00    +0.000 NA
ATOM      4  C   UNL     1       3.867   5.236  19.423  0.00  0.00    +0.000 A 
ATOM      5  C   UNL     1       3.784   4.383  18.257  0.00  0.00    +0.000 A 
ENDROOT
BRANCH   1   9
ATOM      6  N   UNL     1       6.113   3.413  14.349  0.00  0.00    +0.000 N 
ATOM      7  C   UNL     1       5.969   4.279  15.395  0.00  0.00    +0.000 C 
ATOM      8  O   UNL     1       6.315   5.442  15.248  0.00  0.00    +0.000 OA
ATOM      9  N   UNL     1       5.431   3.677  16.500  0.00  0.00    +0.000 N 
ATOM     10  H   UNL     1       6.399   3.888  13.500  0.00  0.00    +0.000 HD
ATOM     11  H   UNL     1       5.398   2.714  14.215  0.00  0.00    +0.000 HD
ATOM     12  H   UNL     1       5.326   2.666  16.488  0.00  0.00    +0.000 HD
ENDBRANCH   1   9
BRANCH   5  13
ATOM     13  C   UNL     1       2.653   3.684  17.658  0.00  0.00    +0.000 C 
ATOM     14  N   UNL     1       1.504   4.383  17.450  0.00  0.00    +0.000 N 
ATOM     15  O   UNL     1       2.696   2.492  17.354  0.00  0.00    +0.000 OA
ATOM     16  H   UNL     1       1.401   5.359  17.698  0.00  0.00    +0.000 HD
ATOM     17  H   UNL     1       0.707   3.887  17.075  0.00  0.00    +0.000 HD
ENDBRANCH   5  13
BRANCH   4  18
ATOM     18  S   UNL     1       2.506   5.739  20.459  0.00  0.00    +0.000 S 
BRANCH  18  19
ATOM     19  C   UNL     1       1.748   7.207  19.525  0.00  0.00    +0.000 C 
ATOM     20  C   UNL     1       2.843   7.612  18.506  0.00  0.00    +0.000 C 
ATOM     21  C   UNL     1       2.485   8.566  17.374  0.00  0.00    +0.000 C 
ATOM     22  C   UNL     1       2.097   9.958  17.831  0.00  0.00    +0.000 C 
ATOM     23  C   UNL     1       0.737   9.966  18.498  0.00  0.00    +0.000 C 
ATOM     24  C   UNL     1       0.762   9.574  19.954  0.00  0.00    +0.000 A 
ATOM     25  C   UNL     1       0.311  10.557  20.867  0.00  0.00    +0.000 A 
ATOM     26  C   UNL     1       0.131  10.273  22.214  0.00  0.00    +0.000 A 
ATOM     27  C   UNL     1       0.336   8.981  22.658  0.00  0.00    +0.000 A 
ATOM     28  C   UNL     1       0.796   8.004  21.770  0.00  0.00    +0.000 A 
ATOM     29  C   UNL     1       1.116   8.287  20.421  0.00  0.00    +0.000 A 
ENDBRANCH  18  19
ENDBRANCH   4  18
TORSDOF 4
ENDMDL
MODEL 9
REMARK VINA RESULT:      -7.2      1.235      1.284
REMARK  Name = 
REMARK  4 active torsions:
REMARK  status: ('A' for Active; 'I' for Inactive)
REMARK    1  A    between atoms: N_4  and  C_5
REMARK    2  A    between atoms: C_8  and  S_9
REMARK    3  A    between atoms: S_9  and  C_10
REMARK    4  A    between atoms: C_21  and  C_22
REMARK                            x       y       z     vdW  Elec       q    Type
REMARK                         _______ _______ _______ _____ _____    ______ ____
ROOT
ATOM      1  C   UNL     1       0.972  10.046  20.833  0.00  0.00    +0.000 A 
ATOM      2  S   UNL     1       1.210   8.546  21.589  0.00  0.00    +0.000 S 
ATOM      3  N   UNL     1       1.736   7.758  20.251  0.00  0.00    +0.000 NA
ATOM      4  C   UNL     1       1.732   8.589  19.216  0.00  0.00    +0.000 A 
ATOM      5  C   UNL     1       1.352   9.958  19.490  0.00  0.00    +0.000 A 
ENDROOT
BRANCH   1   9
ATOM      6  N   UNL     1      -0.931  12.862  22.036  0.00  0.00    +0.000 N 
ATOM      7  C   UNL     1      -0.762  11.728  21.296  0.00  0.00    +0.000 C 
ATOM      8  O   UNL     1      -1.663  11.371  20.552  0.00  0.00    +0.000 OA
ATOM      9  N   UNL     1       0.454  11.139  21.515  0.00  0.00    +0.000 N 
ATOM     10  H   UNL     1      -1.779  13.357  21.785  0.00  0.00    +0.000 HD
ATOM     11  H   UNL     1      -0.128  13.457  22.177  0.00  0.00    +0.000 HD
ATOM     12  H   UNL     1       1.029  11.501  22.271  0.00  0.00    +0.000 HD
ENDBRANCH   1   9
BRANCH   5  13
ATOM     13  C   UNL     1       1.297  11.131  18.625  0.00  0.00    +0.000 C 
ATOM     14  N   UNL     1       0.108  11.444  18.044  0.00  0.00    +0.000 N 
ATOM     15  O   UNL     1       2.284  11.829  18.391  0.00  0.00    +0.000 OA
ATOM     16  H   UNL     1      -0.733  10.897  18.181  0.00  0.00    +0.000 HD
ATOM     17  H   UNL     1       0.080  12.232  17.410  0.00  0.00    +0.000 HD
ENDBRANCH   5  13
BRANCH   4  18
ATOM     18  S   UNL     1       2.199   7.925  17.628  0.00  0.00    +0.000 S 
BRANCH  18  19
ATOM     19  C   UNL     1       3.604   6.717  18.041  0.00  0.00    +0.000 C 
ATOM     20  C   UNL     1       4.784   7.193  17.157  0.00  0.00    +0.000 C 
ATOM     21  C   UNL     1       6.181   6.652  17.433  0.00  0.00    +0.000 C 
ATOM     22  C   UNL     1       6.330   5.162  17.197  0.00  0.00    +0.000 C 
ATOM     23  C   UNL     1       5.620   4.356  18.265  0.00  0.00    +0.000 C 
ATOM     24  C   UNL     1       4.143   4.173  18.022  0.00  0.00    +0.000 A 
ATOM     25  C   UNL     1       3.702   2.838  17.872  0.00  0.00    +0.000 A 
ATOM     26  C   UNL     1       2.352   2.519  17.803  0.00  0.00    +0.000 A 
ATOM     27  C   UNL     1       1.419   3.526  17.950  0.00  0.00    +0.000 A 
ATOM     28  C   UNL     1       1.841   4.852  18.085  0.00  0.00    +0.000 A 
ATOM     29  C   UNL     1       3.204   5.231  18.026  0.00  0.00    +0.000 A 
ENDBRANCH  18  19
ENDBRANCH   4  18
TORSDOF 4
ENDMDL
