MODEL 1
REMARK VINA RESULT:      -8.0      0.000      0.000
REMARK  Name = 
REMARK  6 active torsions:
REMARK  status: ('A' for Active; 'I' for Inactive)
REMARK    1  A    between atoms: C_1  and  C_2
REMARK    2  A    between atoms: C_2  and  C_3
REMARK    3  A    between atoms: C_2  and  N_4
REMARK    4  A    between atoms: C_5  and  O_7
REMARK    5  A    between atoms: O_7  and  C_8
REMARK    6  A    between atoms: C_12  and  C_13
REMARK                            x       y       z     vdW  Elec       q    Type
REMARK                         _______ _______ _______ _____ _____    ______ ____
ROOT
ATOM      1  C   UNL     1       5.645   4.945  16.561  0.00  0.00    +0.000 A 
ATOM      2  C   UNL     1       5.512   6.292  16.244  0.00  0.00    +0.000 A 
ATOM      3  C   UNL     1       4.459   7.014  16.803  0.00  0.00    +0.000 A 
ATOM      4  C   UNL     1       3.550   6.387  17.667  0.00  0.00    +0.000 A 
ATOM      5  C   UNL     1       3.682   5.031  18.018  0.00  0.00    +0.000 A 
ATOM      6  C   UNL     1       4.770   4.335  17.465  0.00  0.00    +0.000 A 
ENDROOT
BRANCH   5   7
ATOM      7  C   UNL     1       2.726   4.352  18.926  0.00  0.00    +0.000 A 
ATOM      8  C   UNL     1       2.770   4.552  20.321  0.00  0.00    +0.000 A 
ATOM      9  C   UNL     1       1.865   3.921  21.180  0.00  0.00    +0.000 A 
ATOM     10  C   UNL     1       0.900   3.061  20.667  0.00  0.00    +0.000 A 
ATOM     11  C   UNL     1       0.835   2.842  19.294  0.00  0.00    +0.000 A 
ATOM     12  C   UNL     1       1.734   3.485  18.437  0.00  0.00    +0.000 A 
ENDBRANCH   5   7
BRANCH   1  13
ATOM     13  O   UNL     1       6.753   4.256  16.034  0.00  0.00    +0.000 OA
BRANCH  13  15
ATOM     14  N   UNL     1       6.414   3.524  13.928  0.00  0.00    +0.000 N 
ATOM     15  C   UNL     1       7.041   4.473  14.693  0.00  0.00    +0.000 C 
ATOM     16  O   UNL     1       7.684   5.410  14.238  0.00  0.00    +0.000 OA
ATOM     17  H   UNL     1       5.814   2.896  14.446  0.00  0.00    +0.000 HD
BRANCH  14  19
ATOM     18  C   UNL     1       7.082   3.048  11.621  0.00  0.00    +0.000 C 
ATOM     19  C   UNL     1       6.113   3.791  12.531  0.00  0.00    +0.000 C 
ATOM     20  C   UNL     1       4.668   3.394  12.223  0.00  0.00    +0.000 C 
ENDBRANCH  14  19
ENDBRANCH  13  15
ENDBRANCH   1  13
TORSDOF 4
ENDMDL
MODEL 2
REMARK VINA RESULT:      -8.0      0.630      1.218
REMARK  Name = 
REMARK  6 active torsions:
REMARK  status: ('A' for Active; 'I' for Inactive)
REMARK    1  A    between atoms: C_1  and  C_2
REMARK    2  A    between atoms: C_2  and  C_3
REMARK    3  A    between atoms: C_2  and  N_4
REMARK    4  A    between atoms: C_5  and  O_7
REMARK    5  A    between atoms: O_7  and  C_8
REMARK    6  A    between atoms: C_12  and  C_13
REMARK                            x       y       z     vdW  Elec       q    Type
REMARK                         _______ _______ _______ _____ _____    ______ ____
ROOT
ATOM      1  C   UNL     1       5.521   4.814  16.181  0.00  0.00    +0.000 A 
ATOM      2  C   UNL     1       5.569   6.194  16.015  0.00  0.00    +0.000 A 
ATOM      3  C   UNL     1       4.622   6.984  16.663  0.00  0.00    +0.000 A 
ATOM      4  C   UNL     1       3.636   6.392  17.465  0.00  0.00    +0.000 A 
ATOM      5  C   UNL     1       3.585   5.001  17.665  0.00  0.00    +0.000 A 
ATOM      6  C   UNL     1       4.570   4.231  17.025  0.00  0.00    +0.000 A 
ENDROOT
BRANCH   5   7
ATOM      7  C   UNL     1       2.544   4.360  18.506  0.00  0.00    +0.000 A 
ATOM      8  C   UNL     1       1.921   3.157  18.113  0.00  0.00    +0.000 A 
ATOM      9  C   UNL     1       0.946   2.545  18.907  0.00  0.00    +0.000 A 
ATOM     10  C   UNL     1       0.559   3.128  20.109  0.00  0.00    +0.000 A 
ATOM     11  C   UNL     1       1.155   4.316  20.520  0.00  0.00    +0.000 A 
ATOM     12  C   UNL     1       2.138   4.919  19.730  0.00  0.00    +0.000 A 
ENDBRANCH   5   7
BRANCH   1  13
ATOM     13  O   UNL     1       6.527   4.045  15.568  0.00  0.00    +0.000 OA
BRANCH  13  15
ATOM     14  N   UNL     1       6.383   3.165  13.497  0.00  0.00    +0.000 N 
ATOM     15  C   UNL     1       6.748   4.274  14.216  0.00  0.00    +0.000 C 
ATOM     16  O   UNL     1       7.128   5.324  13.716  0.00  0.00    +0.000 OA
ATOM     17  H   UNL     1       5.965   2.426  14.046  0.00  0.00    +0.000 HD
BRANCH  14  19
ATOM     18  C   UNL     1       6.410   2.031  11.327  0.00  0.00    +0.000 C 
ATOM     19  C   UNL     1       6.022   3.288  12.095  0.00  0.00    +0.000 C 
ATOM     20  C   UNL     1       4.523   3.562  11.963  0.00  0.00    +0.000 C 
ENDBRANCH  14  19
ENDBRANCH  13  15
ENDBRANCH   1  13
TORSDOF 4
ENDMDL
MODEL 3
REMARK VINA RESULT:      -7.8      2.530      6.932
REMARK  Name = 
REMARK  6 active torsions:
REMARK  status: ('A' for Active; 'I' for Inactive)
REMARK    1  A    between atoms: C_1  and  C_2
REMARK    2  A    between atoms: C_2  and  C_3
REMARK    3  A    between atoms: C_2  and  N_4
REMARK    4  A    between atoms: C_5  and  O_7
REMARK    5  A    between atoms: O_7  and  C_8
REMARK    6  A    between atoms: C_12  and  C_13
REMARK                            x       y       z     vdW  Elec       q    Type
REMARK                         _______ _______ _______ _____ _____    ______ ____
ROOT
ATOM      1  C   UNL     1       5.240   4.482  18.110  0.00  0.00    +0.000 A 
ATOM      2  C   UNL     1       4.702   5.740  18.358  0.00  0.00    +0.000 A 
ATOM      3  C   UNL     1       4.631   6.661  17.315  0.00  0.00    +0.000 A 
ATOM      4  C   UNL     1       5.101   6.321  16.038  0.00  0.00    +0.000 A 
ATOM      5  C   UNL     1       5.628   5.046  15.761  0.00  0.00    +0.000 A 
ATOM      6  C   UNL     1       5.658   4.127  16.823  0.00  0.00    +0.000 A 
ENDROOT
BRANCH   5   7
ATOM      7  C   UNL     1       6.133   4.674  14.417  0.00  0.00    +0.000 A 
ATOM      8  C   UNL     1       5.468   3.719  13.621  0.00  0.00    +0.000 A 
ATOM      9  C   UNL     1       5.936   3.371  12.350  0.00  0.00    +0.000 A 
ATOM     10  C   UNL     1       7.092   3.960  11.848  0.00  0.00    +0.000 A 
ATOM     11  C   UNL     1       7.771   4.904  12.613  0.00  0.00    +0.000 A 
ATOM     12  C   UNL     1       7.293   5.258  13.878  0.00  0.00    +0.000 A 
ENDBRANCH   5   7
BRANCH   1  13
ATOM     13  O   UNL     1       5.240   3.550  19.164  0.00  0.00    +0.000 OA
BRANCH  13  15
ATOM     14  N   UNL     1       3.346   3.445  20.381  0.00  0.00    +0.000 N 
ATOM     15  C   UNL     1       4.060   2.849  19.375  0.00  0.00    +0.000 C 
ATOM     16  O   UNL     1       3.662   1.896  18.718  0.00  0.00    +0.000 OA
ATOM     17  H   UNL     1       3.750   4.301  20.735  0.00  0.00    +0.000 HD
BRANCH  14  19
ATOM     18  C   UNL     1       1.532   2.501  21.729  0.00  0.00    +0.000 C 
ATOM     19  C   UNL     1       1.906   3.262  20.465  0.00  0.00    +0.000 C 
ATOM     20  C   UNL     1       1.203   4.621  20.423  0.00  0.00    +0.000 C 
ENDBRANCH  14  19
ENDBRANCH  13  15
ENDBRANCH   1  13
TORSDOF 4
ENDMDL
MODEL 4
REMARK VINA RESULT:      -7.8      2.428      4.097
REMARK  Name = 
REMARK  6 active torsions:
REMARK  status: ('A' for Active; 'I' for Inactive)
REMARK    1  A    between atoms: C_1  and  C_2
REMARK    2  A    between atoms: C_2  and  C_3
REMARK    3  A    between atoms: C_2  and  N_4
REMARK    4  A    between atoms: C_5  and  O_7
REMARK    5  A    between atoms: O_7  and  C_8
REMARK    6  A    between atoms: C_12  and  C_13
REMARK                            x       y       z     vdW  Elec       q    Type
REMARK                         _______ _______ _______ _____ _____    ______ ____
ROOT
ATOM      1  C   UNL     1       4.913   4.360  19.208  0.00  0.00    +0.000 A 
ATOM      2  C   UNL     1       4.121   3.227  19.357  0.00  0.00    +0.000 A 
ATOM      3  C   UNL     1       2.739   3.377  19.444  0.00  0.00    +0.000 A 
ATOM      4  C   UNL     1       2.161   4.653  19.386  0.00  0.00    +0.000 A 
ATOM      5  C   UNL     1       2.942   5.810  19.212  0.00  0.00    +0.000 A 
ATOM      6  C   UNL     1       4.330   5.627  19.096  0.00  0.00    +0.000 A 
ENDROOT
BRANCH   5   7
ATOM      7  C   UNL     1       2.346   7.167  19.154  0.00  0.00    +0.000 A 
ATOM      8  C   UNL     1       2.373   7.931  17.970  0.00  0.00    +0.000 A 
ATOM      9  C   UNL     1       1.804   9.207  17.908  0.00  0.00    +0.000 A 
ATOM     10  C   UNL     1       1.206   9.758  19.036  0.00  0.00    +0.000 A 
ATOM     11  C   UNL     1       1.167   9.028  20.220  0.00  0.00    +0.000 A 
ATOM     12  C   UNL     1       1.725   7.747  20.275  0.00  0.00    +0.000 A 
ENDBRANCH   5   7
BRANCH   1  13
ATOM     13  O   UNL     1       6.299   4.175  19.058  0.00  0.00    +0.000 OA
BRANCH  13  15
ATOM     14  N   UNL     1       6.398   4.169  16.806  0.00  0.00    +0.000 N 
ATOM     15  C   UNL     1       6.888   4.757  17.943  0.00  0.00    +0.000 C 
ATOM     16  O   UNL     1       7.661   5.706  17.950  0.00  0.00    +0.000 OA
ATOM     17  H   UNL     1       5.668   3.488  16.965  0.00  0.00    +0.000 HD
BRANCH  14  19
ATOM     18  C   UNL     1       6.290   3.917  14.373  0.00  0.00    +0.000 C 
ATOM     19  C   UNL     1       6.427   4.884  15.540  0.00  0.00    +0.000 C 
ATOM     20  C   UNL     1       5.315   5.935  15.508  0.00  0.00    +0.000 C 
ENDBRANCH  14  19
ENDBRANCH  13  15
ENDBRANCH   1  13
TORSDOF 4
ENDMDL
MODEL 5
REMARK VINA RESULT:      -7.8      2.430      4.022
REMARK  Name = 
REMARK  6 active torsions:
REMARK  status: ('A' for Active; 'I' for Inactive)
REMARK    1  A    between atoms: C_1  and  C_2
REMARK    2  A    between atoms: C_2  and  C_3
REMARK    3  A    between atoms: C_2  and  N_4
REMARK    4  A    between atoms: C_5  and  O_7
REMARK    5  A    between atoms: O_7  and  C_8
REMARK    6  A    between atoms: C_12  and  C_13
REMARK                            x       y       z     vdW  Elec       q    Type
REMARK                         _______ _______ _______ _____ _____    ______ ____
ROOT
ATOM      1  C   UNL     1       4.886   4.351  19.212  0.00  0.00    +0.000 A 
ATOM      2  C   UNL     1       4.084   3.225  19.360  0.00  0.00    +0.000 A 
ATOM      3  C   UNL     1       2.703   3.387  19.440  0.00  0.00    +0.000 A 
ATOM      4  C   UNL     1       2.136   4.668  19.377  0.00  0.00    +0.000 A 
ATOM      5  C   UNL     1       2.928   5.818  19.204  0.00  0.00    +0.000 A 
ATOM      6  C   UNL     1       4.315   5.622  19.095  0.00  0.00    +0.000 A 
ENDROOT
BRANCH   5   7
ATOM      7  C   UNL     1       2.344   7.179  19.141  0.00  0.00    +0.000 A 
ATOM      8  C   UNL     1       1.697   7.753  20.254  0.00  0.00    +0.000 A 
ATOM      9  C   UNL     1       1.152   9.040  20.202  0.00  0.00    +0.000 A 
ATOM     10  C   UNL     1       1.227   9.782  19.028  0.00  0.00    +0.000 A 
ATOM     11  C   UNL     1       1.857   9.240  17.912  0.00  0.00    +0.000 A 
ATOM     12  C   UNL     1       2.412   7.957  17.972  0.00  0.00    +0.000 A 
ENDBRANCH   5   7
BRANCH   1  13
ATOM     13  O   UNL     1       6.272   4.154  19.070  0.00  0.00    +0.000 OA
BRANCH  13  15
ATOM     14  N   UNL     1       6.373   4.154  16.817  0.00  0.00    +0.000 N 
ATOM     15  C   UNL     1       6.871   4.731  17.957  0.00  0.00    +0.000 C 
ATOM     16  O   UNL     1       7.658   5.667  17.968  0.00  0.00    +0.000 OA
ATOM     17  H   UNL     1       5.633   3.484  16.973  0.00  0.00    +0.000 HD
BRANCH  14  19
ATOM     18  C   UNL     1       6.254   3.914  14.383  0.00  0.00    +0.000 C 
ATOM     19  C   UNL     1       6.416   4.873  15.554  0.00  0.00    +0.000 C 
ATOM     20  C   UNL     1       5.328   5.948  15.528  0.00  0.00    +0.000 C 
ENDBRANCH  14  19
ENDBRANCH  13  15
ENDBRANCH   1  13
TORSDOF 4
ENDMDL
MODEL 6
REMARK VINA RESULT:      -7.8      0.632      1.022
REMARK  Name = 
REMARK  6 active torsions:
REMARK  status: ('A' for Active; 'I' for Inactive)
REMARK    1  A    between atoms: C_1  and  C_2
REMARK    2  A    between atoms: C_2  and  C_3
REMARK    3  A    between atoms: C_2  and  N_4
REMARK    4  A    between atoms: C_5  and  O_7
REMARK    5  A    between atoms: O_7  and  C_8
REMARK    6  A    between atoms: C_12  and  C_13
REMARK                            x       y       z     vdW  Elec       q    Type
REMARK                         _______ _______ _______ _____ _____    ______ ____
ROOT
ATOM      1  C   UNL     1       5.657   4.832  16.693  0.00  0.00    +0.000 A 
ATOM      2  C   UNL     1       5.390   6.142  16.311  0.00  0.00    +0.000 A 
ATOM      3  C   UNL     1       4.312   6.807  16.893  0.00  0.00    +0.000 A 
ATOM      4  C   UNL     1       3.511   6.160  17.844  0.00  0.00    +0.000 A 
ATOM      5  C   UNL     1       3.779   4.843  18.261  0.00  0.00    +0.000 A 
ATOM      6  C   UNL     1       4.889   4.207  17.683  0.00  0.00    +0.000 A 
ENDROOT
BRANCH   5   7
ATOM      7  C   UNL     1       2.937   4.144  19.263  0.00  0.00    +0.000 A 
ATOM      8  C   UNL     1       1.534   4.284  19.269  0.00  0.00    +0.000 A 
ATOM      9  C   UNL     1       0.736   3.620  20.206  0.00  0.00    +0.000 A 
ATOM     10  C   UNL     1       1.323   2.808  21.171  0.00  0.00    +0.000 A 
ATOM     11  C   UNL     1       2.706   2.654  21.191  0.00  0.00    +0.000 A 
ATOM     12  C   UNL     1       3.500   3.310  20.245  0.00  0.00    +0.000 A 
ENDBRANCH   5   7
BRANCH   1  13
ATOM     13  O   UNL     1       6.788   4.206  16.139  0.00  0.00    +0.000 OA
BRANCH  13  15
ATOM     14  N   UNL     1       6.387   3.551  14.019  0.00  0.00    +0.000 N 
ATOM     15  C   UNL     1       7.048   4.464  14.799  0.00  0.00    +0.000 C 
ATOM     16  O   UNL     1       7.695   5.406  14.360  0.00  0.00    +0.000 OA
ATOM     17  H   UNL     1       5.790   2.915  14.529  0.00  0.00    +0.000 HD
BRANCH  14  19
ATOM     18  C   UNL     1       7.106   3.302  11.691  0.00  0.00    +0.000 C 
ATOM     19  C   UNL     1       6.058   3.870  12.639  0.00  0.00    +0.000 C 
ATOM     20  C   UNL     1       4.668   3.331  12.295  0.00  0.00    +0.000 C 
ENDBRANCH  14  19
ENDBRANCH  13  15
ENDBRANCH   1  13
TORSDOF 4
ENDMDL
MODEL 7
REMARK VINA RESULT:      -7.7      2.404      6.630
REMARK  Name = 
REMARK  6 active torsions:
REMARK  status: ('A' for Active; 'I' for Inactive)
REMARK    1  A    between atoms: C_1  and  C_2
REMARK    2  A    between atoms: C_2  and  C_3
REMARK    3  A    between atoms: C_2  and  N_4
REMARK    4  A    between atoms: C_5  and  O_7
REMARK    5  A    between atoms: O_7  and  C_8
REMARK    6  A    between atoms: C_12  and  C_13
REMARK                            x       y       z     vdW  Elec       q    Type
REMARK                         _______ _______ _______ _____ _____    ______ ____
ROOT
ATOM      1  C   UNL     1       5.345   4.494  18.128  0.00  0.00    +0.000 A 
ATOM      2  C   UNL     1       4.827   5.759  18.384  0.00  0.00    +0.000 A 
ATOM      3  C   UNL     1       4.742   6.677  17.339  0.00  0.00    +0.000 A 
ATOM      4  C   UNL     1       5.177   6.327  16.053  0.00  0.00    +0.000 A 
ATOM      5  C   UNL     1       5.682   5.045  15.768  0.00  0.00    +0.000 A 
ATOM      6  C   UNL     1       5.727   4.130  16.832  0.00  0.00    +0.000 A 
ENDROOT
BRANCH   5   7
ATOM      7  C   UNL     1       6.151   4.662  14.414  0.00  0.00    +0.000 A 
ATOM      8  C   UNL     1       7.306   5.238  13.847  0.00  0.00    +0.000 A 
ATOM      9  C   UNL     1       7.757   4.874  12.574  0.00  0.00    +0.000 A 
ATOM     10  C   UNL     1       7.054   3.933  11.829  0.00  0.00    +0.000 A 
ATOM     11  C   UNL     1       5.908   3.350  12.361  0.00  0.00    +0.000 A 
ATOM     12  C   UNL     1       5.468   3.708  13.640  0.00  0.00    +0.000 A 
ENDBRANCH   5   7
BRANCH   1  13
ATOM     13  O   UNL     1       5.360   3.566  19.185  0.00  0.00    +0.000 OA
BRANCH  13  15
ATOM     14  N   UNL     1       3.218   3.405  19.871  0.00  0.00    +0.000 N 
ATOM     15  C   UNL     1       4.259   2.726  19.292  0.00  0.00    +0.000 C 
ATOM     16  O   UNL     1       4.182   1.582  18.864  0.00  0.00    +0.000 OA
ATOM     17  H   UNL     1       3.400   4.384  20.048  0.00  0.00    +0.000 HD
BRANCH  14  19
ATOM     18  C   UNL     1       0.958   3.377  20.812  0.00  0.00    +0.000 C 
ATOM     19  C   UNL     1       1.847   2.977  19.644  0.00  0.00    +0.000 C 
ATOM     20  C   UNL     1       1.324   3.571  18.335  0.00  0.00    +0.000 C 
ENDBRANCH  14  19
ENDBRANCH  13  15
ENDBRANCH   1  13
TORSDOF 4
ENDMDL
MODEL 8
REMARK VINA RESULT:      -7.6      3.061      5.689
REMARK  Name = 
REMARK  6 active torsions:
REMARK  status: ('A' for Active; 'I' for Inactive)
REMARK    1  A    between atoms: C_1  and  C_2
REMARK    2  A    between atoms: C_2  and  C_3
REMARK    3  A    between atoms: C_2  and  N_4
REMARK    4  A    between atoms: C_5  and  O_7
REMARK    5  A    between atoms: O_7  and  C_8
REMARK    6  A    between atoms: C_12  and  C_13
REMARK                            x       y       z     vdW  Elec       q    Type
REMARK                         _______ _______ _______ _____ _____    ______ ____
ROOT
ATOM      1  C   UNL     1       4.084   4.261  17.381  0.00  0.00    +0.000 A 
ATOM      2  C   UNL     1       5.028   4.641  16.434  0.00  0.00    +0.000 A 
ATOM      3  C   UNL     1       5.169   5.994  16.129  0.00  0.00    +0.000 A 
ATOM      4  C   UNL     1       4.367   6.951  16.767  0.00  0.00    +0.000 A 
ATOM      5  C   UNL     1       3.422   6.588  17.745  0.00  0.00    +0.000 A 
ATOM      6  C   UNL     1       3.323   5.222  18.056  0.00  0.00    +0.000 A 
ENDROOT
BRANCH   5   7
ATOM      7  C   UNL     1       2.563   7.588  18.424  0.00  0.00    +0.000 A 
ATOM      8  C   UNL     1       2.204   7.448  19.780  0.00  0.00    +0.000 A 
ATOM      9  C   UNL     1       1.401   8.392  20.427  0.00  0.00    +0.000 A 
ATOM     10  C   UNL     1       0.923   9.497  19.728  0.00  0.00    +0.000 A 
ATOM     11  C   UNL     1       1.259   9.659  18.388  0.00  0.00    +0.000 A 
ATOM     12  C   UNL     1       2.072   8.719  17.748  0.00  0.00    +0.000 A 
ENDBRANCH   5   7
BRANCH   1  13
ATOM     13  O   UNL     1       4.006   2.897  17.717  0.00  0.00    +0.000 OA
BRANCH  13  15
ATOM     14  N   UNL     1       2.821   2.513  19.597  0.00  0.00    +0.000 N 
ATOM     15  C   UNL     1       2.794   2.450  18.227  0.00  0.00    +0.000 C 
ATOM     16  O   UNL     1       1.812   2.126  17.572  0.00  0.00    +0.000 OA
ATOM     17  H   UNL     1       3.659   2.925  19.982  0.00  0.00    +0.000 HD
BRANCH  14  19
ATOM     18  C   UNL     1       1.843   2.447  21.840  0.00  0.00    +0.000 C 
ATOM     19  C   UNL     1       1.581   2.607  20.350  0.00  0.00    +0.000 C 
ATOM     20  C   UNL     1       0.893   3.943  20.060  0.00  0.00    +0.000 C 
ENDBRANCH  14  19
ENDBRANCH  13  15
ENDBRANCH   1  13
TORSDOF 4
ENDMDL
MODEL 9
REMARK VINA RESULT:      -7.6      2.589      4.601
REMARK  Name = 
REMARK  6 active torsions:
REMARK  status: ('A' for Active; 'I' for Inactive)
REMARK    1  A    between atoms: C_1  and  C_2
REMARK    2  A    between atoms: C_2  and  C_3
REMARK    3  A    between atoms: C_2  and  N_4
REMARK    4  A    between atoms: C_5  and  O_7
REMARK    5  A    between atoms: O_7  and  C_8
REMARK    6  A    between atoms: C_12  and  C_13
REMARK                            x       y       z     vdW  Elec       q    Type
REMARK                         _______ _______ _______ _____ _____    ______ ____
ROOT
ATOM      1  C   UNL     1       3.992   4.084  19.750  0.00  0.00    +0.000 A 
ATOM      2  C   UNL     1       3.129   3.277  20.483  0.00  0.00    +0.000 A 
ATOM      3  C   UNL     1       1.899   3.796  20.884  0.00  0.00    +0.000 A 
ATOM      4  C   UNL     1       1.545   5.112  20.554  0.00  0.00    +0.000 A 
ATOM      5  C   UNL     1       2.394   5.936  19.793  0.00  0.00    +0.000 A 
ATOM      6  C   UNL     1       3.613   5.378  19.376  0.00  0.00    +0.000 A 
ENDROOT
BRANCH   5   7
ATOM      7  C   UNL     1       2.035   7.331  19.441  0.00  0.00    +0.000 A 
ATOM      8  C   UNL     1       1.399   8.182  20.369  0.00  0.00    +0.000 A 
ATOM      9  C   UNL     1       1.067   9.501  20.044  0.00  0.00    +0.000 A 
ATOM     10  C   UNL     1       1.350  10.000  18.777  0.00  0.00    +0.000 A 
ATOM     11  C   UNL     1       1.974   9.182  17.840  0.00  0.00    +0.000 A 
ATOM     12  C   UNL     1       2.316   7.867  18.172  0.00  0.00    +0.000 A 
ENDBRANCH   5   7
BRANCH   1  13
ATOM     13  O   UNL     1       5.199   3.515  19.303  0.00  0.00    +0.000 OA
BRANCH  13  15
ATOM     14  N   UNL     1       6.011   4.192  17.312  0.00  0.00    +0.000 N 
ATOM     15  C   UNL     1       6.092   4.369  18.669  0.00  0.00    +0.000 C 
ATOM     16  O   UNL     1       6.789   5.215  19.213  0.00  0.00    +0.000 OA
ATOM     17  H   UNL     1       5.292   3.547  17.013  0.00  0.00    +0.000 HD
BRANCH  14  19
ATOM     18  C   UNL     1       6.947   4.681  15.103  0.00  0.00    +0.000 C 
ATOM     19  C   UNL     1       6.417   5.257  16.409  0.00  0.00    +0.000 C 
ATOM     20  C   UNL     1       5.241   6.199  16.148  0.00  0.00    +0.000 C 
ENDBRANCH  14  19
ENDBRANCH  13  15
ENDBRANCH   1  13
TORSDOF 4
ENDMDL
