MODEL 1
REMARK VINA RESULT:      -7.5      0.000      0.000
REMARK  Name = 
REMARK  6 active torsions:
REMARK  status: ('A' for Active; 'I' for Inactive)
REMARK    1  A    between atoms: C_1  and  C_2
REMARK    2  A    between atoms: C_6  and  C_7
REMARK    3  A    between atoms: C_8  and  N_9
REMARK    4  A    between atoms: C_10  and  C_12
REMARK    5  A    between atoms: C_12  and  S_13
REMARK    6  A    between atoms: S_13  and  C_14
REMARK                            x       y       z     vdW  Elec       q    Type
REMARK                         _______ _______ _______ _____ _____    ______ ____
ROOT
ATOM      1  C   UNL     1       1.185  11.333  19.018  0.00  0.00    +0.000 A 
ATOM      2  N   UNL     1       2.137  12.228  18.784  0.00  0.00    +0.000 NA
ATOM      3  C   UNL     1       1.991  13.382  19.435  0.00  0.00    +0.000 A 
ATOM      4  N   UNL     1       2.951  14.356  19.316  0.00  0.00    +0.000 N 
ATOM      5  C   UNL     1       2.927  15.561  20.150  0.00  0.00    +0.000 C 
ATOM      6  C   UNL     1       2.796  16.816  19.273  0.00  0.00    +0.000 C 
ATOM      7  O   UNL     1       3.816  16.852  18.261  0.00  0.00    +0.000 OA
ATOM      8  C   UNL     1       3.708  15.700  17.406  0.00  0.00    +0.000 C 
ATOM      9  C   UNL     1       3.881  14.387  18.192  0.00  0.00    +0.000 C 
ATOM     10  N   UNL     1       0.960  13.632  20.238  0.00  0.00    +0.000 NA
ATOM     11  C   UNL     1       0.043  12.690  20.400  0.00  0.00    +0.000 A 
ATOM     12  N   UNL     1      -1.039  12.953  21.198  0.00  0.00    +0.000 N 
ATOM     13  C   UNL     1      -1.216  14.236  21.874  0.00  0.00    +0.000 C 
ATOM     14  C   UNL     1      -1.304  14.017  23.393  0.00  0.00    +0.000 C 
ATOM     15  O   UNL     1      -2.314  13.051  23.732  0.00  0.00    +0.000 OA
ATOM     16  C   UNL     1      -2.025  11.786  23.110  0.00  0.00    +0.000 C 
ATOM     17  C   UNL     1      -1.987  11.907  21.579  0.00  0.00    +0.000 C 
ATOM     18  N   UNL     1       0.137  11.511  19.811  0.00  0.00    +0.000 NA
ENDROOT
BRANCH   1  19
ATOM     19  S   UNL     1       1.242   9.725  18.248  0.00  0.00    +0.000 S 
BRANCH  19  20
ATOM     20  C   UNL     1       1.899   8.663  19.575  0.00  0.00    +0.000 C 
BRANCH  20  22
ATOM     21  N   UNL     1       2.681   6.372  20.019  0.00  0.00    +0.000 N 
ATOM     22  C   UNL     1       2.256   7.265  19.046  0.00  0.00    +0.000 C 
ATOM     23  O   UNL     1       2.281   7.047  17.835  0.00  0.00    +0.000 OA
ATOM     24  H   UNL     1       2.957   6.807  20.890  0.00  0.00    +0.000 HD
BRANCH  21  32
ATOM     25  C   UNL     1       5.495   5.857  19.049  0.00  0.00    +0.000 C 
ATOM     26  C   UNL     1       4.477   4.790  19.342  0.00  0.00    +0.000 A 
ATOM     27  C   UNL     1       4.846   3.457  19.068  0.00  0.00    +0.000 A 
ATOM     28  C   UNL     1       3.941   2.411  19.221  0.00  0.00    +0.000 A 
ATOM     29  C   UNL     1       2.651   2.677  19.659  0.00  0.00    +0.000 A 
ATOM     30  C   UNL     1       2.249   3.992  19.946  0.00  0.00    +0.000 A 
ATOM     31  C   UNL     1       0.855   4.208  20.473  0.00  0.00    +0.000 C 
ATOM     32  C   UNL     1       3.168   5.060  19.800  0.00  0.00    +0.000 A 
ENDBRANCH  21  32
ENDBRANCH  20  22
ENDBRANCH  19  20
ENDBRANCH   1  19
TORSDOF 4
ENDMDL
MODEL 2
REMARK VINA RESULT:      -7.4      1.329      2.083
REMARK  Name = 
REMARK  6 active torsions:
REMARK  status: ('A' for Active; 'I' for Inactive)
REMARK    1  A    between atoms: C_1  and  C_2
REMARK    2  A    between atoms: C_6  and  C_7
REMARK    3  A    between atoms: C_8  and  N_9
REMARK    4  A    between atoms: C_10  and  C_12
REMARK    5  A    between atoms: C_12  and  S_13
REMARK    6  A    between atoms: S_13  and  C_14
REMARK                            x       y       z     vdW  Elec       q    Type
REMARK                         _______ _______ _______ _____ _____    ______ ____
ROOT
ATOM      1  C   UNL     1       1.502  11.333  18.851  0.00  0.00    +0.000 A 
ATOM      2  N   UNL     1       2.364  12.308  18.591  0.00  0.00    +0.000 NA
ATOM      3  C   UNL     1       2.118  13.455  19.225  0.00  0.00    +0.000 A 
ATOM      4  N   UNL     1       2.982  14.511  19.078  0.00  0.00    +0.000 N 
ATOM      5  C   UNL     1       2.856  15.723  19.893  0.00  0.00    +0.000 C 
ATOM      6  C   UNL     1       2.598  16.946  18.998  0.00  0.00    +0.000 C 
ATOM      7  O   UNL     1       3.598  17.059  17.972  0.00  0.00    +0.000 OA
ATOM      8  C   UNL     1       3.587  15.888  17.137  0.00  0.00    +0.000 C 
ATOM      9  C   UNL     1       3.891  14.610  17.941  0.00  0.00    +0.000 C 
ATOM     10  N   UNL     1       1.079  13.621  20.038  0.00  0.00    +0.000 NA
ATOM     11  C   UNL     1       0.255  12.601  20.227  0.00  0.00    +0.000 A 
ATOM     12  N   UNL     1      -0.837  12.776  21.035  0.00  0.00    +0.000 N 
ATOM     13  C   UNL     1      -1.125  14.048  21.694  0.00  0.00    +0.000 C 
ATOM     14  C   UNL     1      -1.174  13.848  23.217  0.00  0.00    +0.000 C 
ATOM     15  O   UNL     1      -2.085  12.798  23.585  0.00  0.00    +0.000 OA
ATOM     16  C   UNL     1      -1.686  11.555  22.979  0.00  0.00    +0.000 C 
ATOM     17  C   UNL     1      -1.678  11.653  21.445  0.00  0.00    +0.000 C 
ATOM     18  N   UNL     1       0.451  11.426  19.656  0.00  0.00    +0.000 NA
ENDROOT
BRANCH   1  19
ATOM     19  S   UNL     1       1.700   9.724  18.105  0.00  0.00    +0.000 S 
BRANCH  19  20
ATOM     20  C   UNL     1       1.453   8.593  19.512  0.00  0.00    +0.000 C 
BRANCH  20  22
ATOM     21  N   UNL     1       2.624   6.986  18.062  0.00  0.00    +0.000 N 
ATOM     22  C   UNL     1       2.317   7.329  19.370  0.00  0.00    +0.000 C 
ATOM     23  O   UNL     1       2.570   6.637  20.355  0.00  0.00    +0.000 OA
ATOM     24  H   UNL     1       2.040   7.433  17.367  0.00  0.00    +0.000 HD
BRANCH  21  32
ATOM     25  C   UNL     1       1.299   4.272  18.041  0.00  0.00    +0.000 C 
ATOM     26  C   UNL     1       2.717   4.540  17.622  0.00  0.00    +0.000 A 
ATOM     27  C   UNL     1       3.505   3.425  17.269  0.00  0.00    +0.000 A 
ATOM     28  C   UNL     1       4.853   3.563  16.957  0.00  0.00    +0.000 A 
ATOM     29  C   UNL     1       5.440   4.821  16.983  0.00  0.00    +0.000 A 
ATOM     30  C   UNL     1       4.686   5.955  17.327  0.00  0.00    +0.000 A 
ATOM     31  C   UNL     1       5.365   7.298  17.281  0.00  0.00    +0.000 C 
ATOM     32  C   UNL     1       3.311   5.822  17.638  0.00  0.00    +0.000 A 
ENDBRANCH  21  32
ENDBRANCH  20  22
ENDBRANCH  19  20
ENDBRANCH   1  19
TORSDOF 4
ENDMDL
MODEL 3
REMARK VINA RESULT:      -7.3      1.390      1.472
REMARK  Name = 
REMARK  6 active torsions:
REMARK  status: ('A' for Active; 'I' for Inactive)
REMARK    1  A    between atoms: C_1  and  C_2
REMARK    2  A    between atoms: C_6  and  C_7
REMARK    3  A    between atoms: C_8  and  N_9
REMARK    4  A    between atoms: C_10  and  C_12
REMARK    5  A    between atoms: C_12  and  S_13
REMARK    6  A    between atoms: S_13  and  C_14
REMARK                            x       y       z     vdW  Elec       q    Type
REMARK                         _______ _______ _______ _____ _____    ______ ____
ROOT
ATOM      1  C   UNL     1       1.632  11.396  18.742  0.00  0.00    +0.000 A 
ATOM      2  N   UNL     1       2.447  12.413  18.489  0.00  0.00    +0.000 NA
ATOM      3  C   UNL     1       2.162  13.535  19.151  0.00  0.00    +0.000 A 
ATOM      4  N   UNL     1       2.977  14.631  19.013  0.00  0.00    +0.000 N 
ATOM      5  C   UNL     1       2.811  15.819  19.856  0.00  0.00    +0.000 C 
ATOM      6  C   UNL     1       2.487  17.047  18.991  0.00  0.00    +0.000 C 
ATOM      7  O   UNL     1       3.465  17.225  17.953  0.00  0.00    +0.000 OA
ATOM      8  C   UNL     1       3.492  16.071  17.094  0.00  0.00    +0.000 C 
ATOM      9  C   UNL     1       3.863  14.792  17.866  0.00  0.00    +0.000 C 
ATOM     10  N   UNL     1       1.129  13.639  19.982  0.00  0.00    +0.000 NA
ATOM     11  C   UNL     1       0.353  12.581  20.162  0.00  0.00    +0.000 A 
ATOM     12  N   UNL     1      -0.733  12.691  20.990  0.00  0.00    +0.000 N 
ATOM     13  C   UNL     1      -1.065  13.936  21.679  0.00  0.00    +0.000 C 
ATOM     14  C   UNL     1      -1.082  13.703  23.198  0.00  0.00    +0.000 C 
ATOM     15  O   UNL     1      -1.941  12.607  23.558  0.00  0.00    +0.000 OA
ATOM     16  C   UNL     1      -1.499  11.395  22.920  0.00  0.00    +0.000 C 
ATOM     17  C   UNL     1      -1.519  11.524  21.389  0.00  0.00    +0.000 C 
ATOM     18  N   UNL     1       0.591  11.427  19.564  0.00  0.00    +0.000 NA
ENDROOT
BRANCH   1  19
ATOM     19  S   UNL     1       1.887   9.813  17.960  0.00  0.00    +0.000 S 
BRANCH  19  20
ATOM     20  C   UNL     1       1.462   8.635  19.283  0.00  0.00    +0.000 C 
BRANCH  20  22
ATOM     21  N   UNL     1       2.778   7.011  17.983  0.00  0.00    +0.000 N 
ATOM     22  C   UNL     1       2.385   7.406  19.253  0.00  0.00    +0.000 C 
ATOM     23  O   UNL     1       2.614   6.776  20.285  0.00  0.00    +0.000 OA
ATOM     24  H   UNL     1       2.214   7.396  17.235  0.00  0.00    +0.000 HD
BRANCH  21  32
ATOM     25  C   UNL     1       5.718   7.174  17.314  0.00  0.00    +0.000 C 
ATOM     26  C   UNL     1       4.910   5.907  17.336  0.00  0.00    +0.000 A 
ATOM     27  C   UNL     1       5.562   4.722  16.938  0.00  0.00    +0.000 A 
ATOM     28  C   UNL     1       4.874   3.517  16.838  0.00  0.00    +0.000 A 
ATOM     29  C   UNL     1       3.520   3.472  17.142  0.00  0.00    +0.000 A 
ATOM     30  C   UNL     1       2.837   4.632  17.546  0.00  0.00    +0.000 A 
ATOM     31  C   UNL     1       1.384   4.505  17.918  0.00  0.00    +0.000 C 
ATOM     32  C   UNL     1       3.536   5.859  17.657  0.00  0.00    +0.000 A 
ENDBRANCH  21  32
ENDBRANCH  20  22
ENDBRANCH  19  20
ENDBRANCH   1  19
TORSDOF 4
ENDMDL
MODEL 4
REMARK VINA RESULT:      -7.3      2.239      3.074
REMARK  Name = 
REMARK  6 active torsions:
REMARK  status: ('A' for Active; 'I' for Inactive)
REMARK    1  A    between atoms: C_1  and  C_2
REMARK    2  A    between atoms: C_6  and  C_7
REMARK    3  A    between atoms: C_8  and  N_9
REMARK    4  A    between atoms: C_10  and  C_12
REMARK    5  A    between atoms: C_12  and  S_13
REMARK    6  A    between atoms: S_13  and  C_14
REMARK                            x       y       z     vdW  Elec       q    Type
REMARK                         _______ _______ _______ _____ _____    ______ ____
ROOT
ATOM      1  C   UNL     1      -0.482  11.317  22.315  0.00  0.00    +0.000 A 
ATOM      2  N   UNL     1       0.530  11.942  21.726  0.00  0.00    +0.000 NA
ATOM      3  C   UNL     1       0.239  13.153  21.251  0.00  0.00    +0.000 A 
ATOM      4  N   UNL     1       1.228  13.913  20.678  0.00  0.00    +0.000 N 
ATOM      5  C   UNL     1       1.000  15.314  20.310  0.00  0.00    +0.000 C 
ATOM      6  C   UNL     1       1.188  15.508  18.797  0.00  0.00    +0.000 C 
ATOM      7  O   UNL     1       2.466  15.013  18.365  0.00  0.00    +0.000 OA
ATOM      8  C   UNL     1       2.577  13.607  18.650  0.00  0.00    +0.000 C 
ATOM      9  C   UNL     1       2.453  13.318  20.158  0.00  0.00    +0.000 C 
ATOM     10  N   UNL     1      -0.975  13.689  21.337  0.00  0.00    +0.000 NA
ATOM     11  C   UNL     1      -1.935  12.989  21.924  0.00  0.00    +0.000 A 
ATOM     12  N   UNL     1      -3.196  13.520  21.985  0.00  0.00    +0.000 N 
ATOM     13  C   UNL     1      -3.519  14.830  21.425  0.00  0.00    +0.000 C 
ATOM     14  C   UNL     1      -4.069  15.748  22.528  0.00  0.00    +0.000 C 
ATOM     15  O   UNL     1      -5.171  15.139  23.224  0.00  0.00    +0.000 OA
ATOM     16  C   UNL     1      -4.757  13.902  23.831  0.00  0.00    +0.000 C 
ATOM     17  C   UNL     1      -4.254  12.899  22.781  0.00  0.00    +0.000 C 
ATOM     18  N   UNL     1      -1.714  11.795  22.444  0.00  0.00    +0.000 NA
ENDROOT
BRANCH   1  19
ATOM     19  S   UNL     1      -0.258   9.697  23.028  0.00  0.00    +0.000 S 
BRANCH  19  20
ATOM     20  C   UNL     1       1.303   9.135  22.275  0.00  0.00    +0.000 C 
BRANCH  20  22
ATOM     21  N   UNL     1       2.221   7.439  20.746  0.00  0.00    +0.000 N 
ATOM     22  C   UNL     1       1.067   7.956  21.317  0.00  0.00    +0.000 C 
ATOM     23  O   UNL     1      -0.077   7.628  21.006  0.00  0.00    +0.000 OA
ATOM     24  H   UNL     1       3.026   8.048  20.812  0.00  0.00    +0.000 HD
BRANCH  21  32
ATOM     25  C   UNL     1       2.099   4.505  21.453  0.00  0.00    +0.000 C 
ATOM     26  C   UNL     1       2.239   5.049  20.059  0.00  0.00    +0.000 A 
ATOM     27  C   UNL     1       2.402   4.112  19.017  0.00  0.00    +0.000 A 
ATOM     28  C   UNL     1       2.630   4.522  17.707  0.00  0.00    +0.000 A 
ATOM     29  C   UNL     1       2.691   5.877  17.411  0.00  0.00    +0.000 A 
ATOM     30  C   UNL     1       2.528   6.839  18.422  0.00  0.00    +0.000 A 
ATOM     31  C   UNL     1       2.547   8.291  18.027  0.00  0.00    +0.000 C 
ATOM     32  C   UNL     1       2.288   6.427  19.756  0.00  0.00    +0.000 A 
ENDBRANCH  21  32
ENDBRANCH  20  22
ENDBRANCH  19  20
ENDBRANCH   1  19
TORSDOF 4
ENDMDL
MODEL 5
REMARK VINA RESULT:      -7.3      0.205      4.478
REMARK  Name = 
REMARK  6 active torsions:
REMARK  status: ('A' for Active; 'I' for Inactive)
REMARK    1  A    between atoms: C_1  and  C_2
REMARK    2  A    between atoms: C_6  and  C_7
REMARK    3  A    between atoms: C_8  and  N_9
REMARK    4  A    between atoms: C_10  and  C_12
REMARK    5  A    between atoms: C_12  and  S_13
REMARK    6  A    between atoms: S_13  and  C_14
REMARK                            x       y       z     vdW  Elec       q    Type
REMARK                         _______ _______ _______ _____ _____    ______ ____
ROOT
ATOM      1  C   UNL     1       1.134  11.346  19.042  0.00  0.00    +0.000 A 
ATOM      2  N   UNL     1       0.055  11.468  19.805  0.00  0.00    +0.000 NA
ATOM      3  C   UNL     1      -0.097  12.665  20.371  0.00  0.00    +0.000 A 
ATOM      4  N   UNL     1      -1.211  12.921  21.131  0.00  0.00    +0.000 N 
ATOM      5  C   UNL     1      -1.512  14.270  21.618  0.00  0.00    +0.000 C 
ATOM      6  C   UNL     1      -1.537  14.291  23.155  0.00  0.00    +0.000 C 
ATOM      7  O   UNL     1      -2.431  13.293  23.673  0.00  0.00    +0.000 OA
ATOM      8  C   UNL     1      -2.010  11.983  23.254  0.00  0.00    +0.000 C 
ATOM      9  C   UNL     1      -2.005  11.848  21.720  0.00  0.00    +0.000 C 
ATOM     10  N   UNL     1       0.774  13.657  20.206  0.00  0.00    +0.000 NA
ATOM     11  C   UNL     1       1.836  13.445  19.443  0.00  0.00    +0.000 A 
ATOM     12  N   UNL     1       2.754  14.450  19.296  0.00  0.00    +0.000 N 
ATOM     13  C   UNL     1       2.604  15.747  19.954  0.00  0.00    +0.000 C 
ATOM     14  C   UNL     1       2.572  16.865  18.900  0.00  0.00    +0.000 C 
ATOM     15  O   UNL     1       3.710  16.801  18.023  0.00  0.00    +0.000 OA
ATOM     16  C   UNL     1       3.742  15.536  17.337  0.00  0.00    +0.000 C 
ATOM     17  C   UNL     1       3.843  14.362  18.324  0.00  0.00    +0.000 C 
ATOM     18  N   UNL     1       2.037  12.294  18.826  0.00  0.00    +0.000 NA
ENDROOT
BRANCH   1  19
ATOM     19  S   UNL     1       1.475   9.817  18.189  0.00  0.00    +0.000 S 
BRANCH  19  20
ATOM     20  C   UNL     1       1.939   8.691  19.545  0.00  0.00    +0.000 C 
BRANCH  20  22
ATOM     21  N   UNL     1       2.712   6.396  19.984  0.00  0.00    +0.000 N 
ATOM     22  C   UNL     1       2.282   7.290  19.014  0.00  0.00    +0.000 C 
ATOM     23  O   UNL     1       2.293   7.070  17.804  0.00  0.00    +0.000 OA
ATOM     24  H   UNL     1       3.000   6.831  20.851  0.00  0.00    +0.000 HD
BRANCH  21  32
ATOM     25  C   UNL     1       5.491   5.865  18.927  0.00  0.00    +0.000 C 
ATOM     26  C   UNL     1       4.481   4.804  19.265  0.00  0.00    +0.000 A 
ATOM     27  C   UNL     1       4.838   3.467  18.991  0.00  0.00    +0.000 A 
ATOM     28  C   UNL     1       3.937   2.425  19.184  0.00  0.00    +0.000 A 
ATOM     29  C   UNL     1       2.663   2.698  19.662  0.00  0.00    +0.000 A 
ATOM     30  C   UNL     1       2.273   4.017  19.949  0.00  0.00    +0.000 A 
ATOM     31  C   UNL     1       0.898   4.241  20.519  0.00  0.00    +0.000 C 
ATOM     32  C   UNL     1       3.189   5.081  19.762  0.00  0.00    +0.000 A 
ENDBRANCH  21  32
ENDBRANCH  20  22
ENDBRANCH  19  20
ENDBRANCH   1  19
TORSDOF 4
ENDMDL
MODEL 6
REMARK VINA RESULT:      -7.2      2.329      5.298
REMARK  Name = 
REMARK  6 active torsions:
REMARK  status: ('A' for Active; 'I' for Inactive)
REMARK    1  A    between atoms: C_1  and  C_2
REMARK    2  A    between atoms: C_6  and  C_7
REMARK    3  A    between atoms: C_8  and  N_9
REMARK    4  A    between atoms: C_10  and  C_12
REMARK    5  A    between atoms: C_12  and  S_13
REMARK    6  A    between atoms: S_13  and  C_14
REMARK                            x       y       z     vdW  Elec       q    Type
REMARK                         _______ _______ _______ _____ _____    ______ ____
ROOT
ATOM      1  C   UNL     1      -0.698  11.195  22.524  0.00  0.00    +0.000 A 
ATOM      2  N   UNL     1      -1.955  11.610  22.622  0.00  0.00    +0.000 NA
ATOM      3  C   UNL     1      -2.201  12.788  22.049  0.00  0.00    +0.000 A 
ATOM      4  N   UNL     1      -3.481  13.284  22.036  0.00  0.00    +0.000 N 
ATOM      5  C   UNL     1      -3.832  14.478  21.262  0.00  0.00    +0.000 C 
ATOM      6  C   UNL     1      -4.351  15.585  22.193  0.00  0.00    +0.000 C 
ATOM      7  O   UNL     1      -5.429  15.110  23.015  0.00  0.00    +0.000 OA
ATOM      8  C   UNL     1      -4.984  14.014  23.834  0.00  0.00    +0.000 C 
ATOM      9  C   UNL     1      -4.492  12.828  22.983  0.00  0.00    +0.000 C 
ATOM     10  N   UNL     1      -1.259  13.507  21.444  0.00  0.00    +0.000 NA
ATOM     11  C   UNL     1      -0.024  13.028  21.408  0.00  0.00    +0.000 A 
ATOM     12  N   UNL     1       0.958  13.779  20.818  0.00  0.00    +0.000 N 
ATOM     13  C   UNL     1       0.690  15.089  20.229  0.00  0.00    +0.000 C 
ATOM     14  C   UNL     1       1.076  15.080  18.741  0.00  0.00    +0.000 C 
ATOM     15  O   UNL     1       2.429  14.633  18.545  0.00  0.00    +0.000 OA
ATOM     16  C   UNL     1       2.595  13.301  19.063  0.00  0.00    +0.000 C 
ATOM     17  C   UNL     1       2.294  13.239  20.568  0.00  0.00    +0.000 C 
ATOM     18  N   UNL     1       0.288  11.855  21.929  0.00  0.00    +0.000 NA
ENDROOT
BRANCH   1  19
ATOM     19  S   UNL     1      -0.203   9.627  23.215  0.00  0.00    +0.000 S 
BRANCH  19  20
ATOM     20  C   UNL     1      -0.310   8.503  21.785  0.00  0.00    +0.000 C 
BRANCH  20  22
ATOM     21  N   UNL     1       1.091   7.368  20.109  0.00  0.00    +0.000 N 
ATOM     22  C   UNL     1       1.057   8.336  21.102  0.00  0.00    +0.000 C 
ATOM     23  O   UNL     1       2.042   8.935  21.531  0.00  0.00    +0.000 OA
ATOM     24  H   UNL     1       0.314   6.719  20.135  0.00  0.00    +0.000 HD
BRANCH  21  32
ATOM     25  C   UNL     1       2.213   8.946  17.792  0.00  0.00    +0.000 C 
ATOM     26  C   UNL     1       2.778   7.651  18.305  0.00  0.00    +0.000 A 
ATOM     27  C   UNL     1       3.866   7.099  17.597  0.00  0.00    +0.000 A 
ATOM     28  C   UNL     1       4.398   5.861  17.940  0.00  0.00    +0.000 A 
ATOM     29  C   UNL     1       3.857   5.152  19.004  0.00  0.00    +0.000 A 
ATOM     30  C   UNL     1       2.775   5.671  19.735  0.00  0.00    +0.000 A 
ATOM     31  C   UNL     1       2.272   4.881  20.913  0.00  0.00    +0.000 C 
ATOM     32  C   UNL     1       2.235   6.936  19.395  0.00  0.00    +0.000 A 
ENDBRANCH  21  32
ENDBRANCH  20  22
ENDBRANCH  19  20
ENDBRANCH   1  19
TORSDOF 4
ENDMDL
MODEL 7
REMARK VINA RESULT:      -7.2      2.171      3.112
REMARK  Name = 
REMARK  6 active torsions:
REMARK  status: ('A' for Active; 'I' for Inactive)
REMARK    1  A    between atoms: C_1  and  C_2
REMARK    2  A    between atoms: C_6  and  C_7
REMARK    3  A    between atoms: C_8  and  N_9
REMARK    4  A    between atoms: C_10  and  C_12
REMARK    5  A    between atoms: C_12  and  S_13
REMARK    6  A    between atoms: S_13  and  C_14
REMARK                            x       y       z     vdW  Elec       q    Type
REMARK                         _______ _______ _______ _____ _____    ______ ____
ROOT
ATOM      1  C   UNL     1      -0.352  11.555  22.412  0.00  0.00    +0.000 A 
ATOM      2  N   UNL     1       0.603  11.972  21.590  0.00  0.00    +0.000 NA
ATOM      3  C   UNL     1       0.604  13.284  21.354  0.00  0.00    +0.000 A 
ATOM      4  N   UNL     1       1.587  13.832  20.568  0.00  0.00    +0.000 N 
ATOM      5  C   UNL     1       1.737  15.284  20.430  0.00  0.00    +0.000 C 
ATOM      6  C   UNL     1       1.551  15.705  18.964  0.00  0.00    +0.000 C 
ATOM      7  O   UNL     1       2.424  14.964  18.096  0.00  0.00    +0.000 OA
ATOM      8  C   UNL     1       2.143  13.557  18.193  0.00  0.00    +0.000 C 
ATOM      9  C   UNL     1       2.356  13.029  19.624  0.00  0.00    +0.000 C 
ATOM     10  N   UNL     1      -0.294  14.112  21.880  0.00  0.00    +0.000 NA
ATOM     11  C   UNL     1      -1.226  13.611  22.676  0.00  0.00    +0.000 A 
ATOM     12  N   UNL     1      -2.175  14.452  23.193  0.00  0.00    +0.000 N 
ATOM     13  C   UNL     1      -2.194  15.883  22.896  0.00  0.00    +0.000 C 
ATOM     14  C   UNL     1      -2.086  16.687  24.201  0.00  0.00    +0.000 C 
ATOM     15  O   UNL     1      -3.087  16.291  25.155  0.00  0.00    +0.000 OA
ATOM     16  C   UNL     1      -2.949  14.894  25.473  0.00  0.00    +0.000 C 
ATOM     17  C   UNL     1      -3.113  14.013  24.225  0.00  0.00    +0.000 C 
ATOM     18  N   UNL     1      -1.273  12.325  22.978  0.00  0.00    +0.000 NA
ENDROOT
BRANCH   1  19
ATOM     19  S   UNL     1      -0.481   9.832  22.855  0.00  0.00    +0.000 S 
BRANCH  19  20
ATOM     20  C   UNL     1       1.135   9.161  22.346  0.00  0.00    +0.000 C 
BRANCH  20  22
ATOM     21  N   UNL     1       2.155   7.539  20.801  0.00  0.00    +0.000 N 
ATOM     22  C   UNL     1       0.969   7.993  21.361  0.00  0.00    +0.000 C 
ATOM     23  O   UNL     1      -0.153   7.620  21.024  0.00  0.00    +0.000 OA
ATOM     24  H   UNL     1       2.931   8.182  20.893  0.00  0.00    +0.000 HD
BRANCH  21  32
ATOM     25  C   UNL     1       2.120   4.588  21.444  0.00  0.00    +0.000 C 
ATOM     26  C   UNL     1       2.276   5.167  20.066  0.00  0.00    +0.000 A 
ATOM     27  C   UNL     1       2.501   4.259  19.010  0.00  0.00    +0.000 A 
ATOM     28  C   UNL     1       2.748   4.704  17.715  0.00  0.00    +0.000 A 
ATOM     29  C   UNL     1       2.767   6.067  17.448  0.00  0.00    +0.000 A 
ATOM     30  C   UNL     1       2.544   7.000  18.474  0.00  0.00    +0.000 A 
ATOM     31  C   UNL     1       2.521   8.461  18.110  0.00  0.00    +0.000 C 
ATOM     32  C   UNL     1       2.284   6.552  19.793  0.00  0.00    +0.000 A 
ENDBRANCH  21  32
ENDBRANCH  20  22
ENDBRANCH  19  20
ENDBRANCH   1  19
TORSDOF 4
ENDMDL
MODEL 8
REMARK VINA RESULT:      -7.2      0.267      4.746
REMARK  Name = 
REMARK  6 active torsions:
REMARK  status: ('A' for Active; 'I' for Inactive)
REMARK    1  A    between atoms: C_1  and  C_2
REMARK    2  A    between atoms: C_6  and  C_7
REMARK    3  A    between atoms: C_8  and  N_9
REMARK    4  A    between atoms: C_10  and  C_12
REMARK    5  A    between atoms: C_12  and  S_13
REMARK    6  A    between atoms: S_13  and  C_14
REMARK                            x       y       z     vdW  Elec       q    Type
REMARK                         _______ _______ _______ _____ _____    ______ ____
ROOT
ATOM      1  C   UNL     1       1.355  11.357  18.975  0.00  0.00    +0.000 A 
ATOM      2  N   UNL     1       0.275  11.422  19.744  0.00  0.00    +0.000 NA
ATOM      3  C   UNL     1       0.058  12.613  20.303  0.00  0.00    +0.000 A 
ATOM      4  N   UNL     1      -1.065  12.810  21.067  0.00  0.00    +0.000 N 
ATOM      5  C   UNL     1      -1.440  14.143  21.547  0.00  0.00    +0.000 C 
ATOM      6  C   UNL     1      -1.458  14.174  23.083  0.00  0.00    +0.000 C 
ATOM      7  O   UNL     1      -2.290  13.130  23.614  0.00  0.00    +0.000 OA
ATOM      8  C   UNL     1      -1.797  11.843  23.202  0.00  0.00    +0.000 C 
ATOM      9  C   UNL     1      -1.792  11.698  21.668  0.00  0.00    +0.000 C 
ATOM     10  N   UNL     1       0.869  13.651  20.125  0.00  0.00    +0.000 NA
ATOM     11  C   UNL     1       1.937  13.495  19.357  0.00  0.00    +0.000 A 
ATOM     12  N   UNL     1       2.795  14.550  19.197  0.00  0.00    +0.000 N 
ATOM     13  C   UNL     1       2.575  15.841  19.847  0.00  0.00    +0.000 C 
ATOM     14  C   UNL     1       2.473  16.947  18.785  0.00  0.00    +0.000 C 
ATOM     15  O   UNL     1       3.608  16.942  17.901  0.00  0.00    +0.000 OA
ATOM     16  C   UNL     1       3.708  15.676  17.225  0.00  0.00    +0.000 C 
ATOM     17  C   UNL     1       3.882  14.517  18.219  0.00  0.00    +0.000 C 
ATOM     18  N   UNL     1       2.201  12.353  18.747  0.00  0.00    +0.000 NA
ENDROOT
BRANCH   1  19
ATOM     19  S   UNL     1       1.778   9.843  18.131  0.00  0.00    +0.000 S 
BRANCH  19  20
ATOM     20  C   UNL     1       1.954   8.652  19.499  0.00  0.00    +0.000 C 
BRANCH  20  22
ATOM     21  N   UNL     1       2.666   6.334  19.923  0.00  0.00    +0.000 N 
ATOM     22  C   UNL     1       2.199   7.229  18.971  0.00  0.00    +0.000 C 
ATOM     23  O   UNL     1       2.107   6.989  17.768  0.00  0.00    +0.000 OA
ATOM     24  H   UNL     1       3.037   6.772  20.757  0.00  0.00    +0.000 HD
BRANCH  21  32
ATOM     25  C   UNL     1       0.812   4.000  20.410  0.00  0.00    +0.000 C 
ATOM     26  C   UNL     1       2.227   3.887  19.916  0.00  0.00    +0.000 A 
ATOM     27  C   UNL     1       2.745   2.586  19.743  0.00  0.00    +0.000 A 
ATOM     28  C   UNL     1       4.071   2.380  19.378  0.00  0.00    +0.000 A 
ATOM     29  C   UNL     1       4.905   3.470  19.169  0.00  0.00    +0.000 A 
ATOM     30  C   UNL     1       4.423   4.781  19.328  0.00  0.00    +0.000 A 
ATOM     31  C   UNL     1       5.360   5.921  19.031  0.00  0.00    +0.000 C 
ATOM     32  C   UNL     1       3.071   4.997  19.692  0.00  0.00    +0.000 A 
ENDBRANCH  21  32
ENDBRANCH  20  22
ENDBRANCH  19  20
ENDBRANCH   1  19
TORSDOF 4
ENDMDL
MODEL 9
REMARK VINA RESULT:      -7.1      1.356      4.943
REMARK  Name = 
REMARK  6 active torsions:
REMARK  status: ('A' for Active; 'I' for Inactive)
REMARK    1  A    between atoms: C_1  and  C_2
REMARK    2  A    between atoms: C_6  and  C_7
REMARK    3  A    between atoms: C_8  and  N_9
REMARK    4  A    between atoms: C_10  and  C_12
REMARK    5  A    between atoms: C_12  and  S_13
REMARK    6  A    between atoms: S_13  and  C_14
REMARK                            x       y       z     vdW  Elec       q    Type
REMARK                         _______ _______ _______ _____ _____    ______ ____
ROOT
ATOM      1  C   UNL     1       1.467  11.398  18.953  0.00  0.00    +0.000 A 
ATOM      2  N   UNL     1       0.386  11.436  19.722  0.00  0.00    +0.000 NA
ATOM      3  C   UNL     1       0.127  12.626  20.263  0.00  0.00    +0.000 A 
ATOM      4  N   UNL     1      -1.002  12.795  21.026  0.00  0.00    +0.000 N 
ATOM      5  C   UNL     1      -1.423  14.121  21.487  0.00  0.00    +0.000 C 
ATOM      6  C   UNL     1      -1.441  14.173  23.023  0.00  0.00    +0.000 C 
ATOM      7  O   UNL     1      -2.236  13.108  23.569  0.00  0.00    +0.000 OA
ATOM      8  C   UNL     1      -1.699  11.834  23.174  0.00  0.00    +0.000 C 
ATOM      9  C   UNL     1      -1.689  11.667  21.644  0.00  0.00    +0.000 C 
ATOM     10  N   UNL     1       0.902  13.690  20.070  0.00  0.00    +0.000 NA
ATOM     11  C   UNL     1       1.974  13.560  19.304  0.00  0.00    +0.000 A 
ATOM     12  N   UNL     1       2.795  14.643  19.129  0.00  0.00    +0.000 N 
ATOM     13  C   UNL     1       2.530  15.934  19.760  0.00  0.00    +0.000 C 
ATOM     14  C   UNL     1       2.389  17.021  18.683  0.00  0.00    +0.000 C 
ATOM     15  O   UNL     1       3.523  17.043  17.798  0.00  0.00    +0.000 OA
ATOM     16  C   UNL     1       3.667  15.771  17.139  0.00  0.00    +0.000 C 
ATOM     17  C   UNL     1       3.882  14.634  18.150  0.00  0.00    +0.000 C 
ATOM     18  N   UNL     1       2.278  12.420  18.710  0.00  0.00    +0.000 NA
ENDROOT
BRANCH   1  19
ATOM     19  S   UNL     1       1.943   9.888  18.130  0.00  0.00    +0.000 S 
BRANCH  19  20
ATOM     20  C   UNL     1       1.429   8.602  19.314  0.00  0.00    +0.000 C 
BRANCH  20  22
ATOM     21  N   UNL     1       2.644   6.975  17.924  0.00  0.00    +0.000 N 
ATOM     22  C   UNL     1       2.334   7.362  19.219  0.00  0.00    +0.000 C 
ATOM     23  O   UNL     1       2.616   6.721  20.229  0.00  0.00    +0.000 OA
ATOM     24  H   UNL     1       2.041   7.373  17.215  0.00  0.00    +0.000 HD
BRANCH  21  32
ATOM     25  C   UNL     1       1.385   4.230  17.950  0.00  0.00    +0.000 C 
ATOM     26  C   UNL     1       2.804   4.521  17.551  0.00  0.00    +0.000 A 
ATOM     27  C   UNL     1       3.625   3.416  17.242  0.00  0.00    +0.000 A 
ATOM     28  C   UNL     1       4.975   3.579  16.951  0.00  0.00    +0.000 A 
ATOM     29  C   UNL     1       5.531   4.851  16.955  0.00  0.00    +0.000 A 
ATOM     30  C   UNL     1       4.744   5.976  17.254  0.00  0.00    +0.000 A 
ATOM     31  C   UNL     1       5.392   7.332  17.185  0.00  0.00    +0.000 C 
ATOM     32  C   UNL     1       3.366   5.817  17.543  0.00  0.00    +0.000 A 
ENDBRANCH  21  32
ENDBRANCH  20  22
ENDBRANCH  19  20
ENDBRANCH   1  19
TORSDOF 4
ENDMDL
