MODEL 1
REMARK VINA RESULT:      -7.6      0.000      0.000
REMARK  Name = 
REMARK  8 active torsions:
REMARK  status: ('A' for Active; 'I' for Inactive)
REMARK    1  A    between atoms: C_1  and  O_2
REMARK    2  A    between atoms: O_2  and  C_3
REMARK    3  A    between atoms: C_3  and  C_5
REMARK    4  A    between atoms: C_5  and  C_7
REMARK    5  A    between atoms: C_7  and  C_8
REMARK    6  A    between atoms: C_8  and  C_9
REMARK    7  A    between atoms: C_9  and  C_10
REMARK    8  A    between atoms: C_10  and  C_11
REMARK                            x       y       z     vdW  Elec       q    Type
REMARK                         _______ _______ _______ _____ _____    ______ ____
ROOT
ATOM      1  C   UNL     1       4.187   4.346  18.043  0.00  0.00    +0.000 C 
ATOM      2  C   UNL     1       4.877   4.642  16.708  0.00  0.00    +0.000 A 
ATOM      3  C   UNL     1       5.675   3.799  15.946  0.00  0.00    +0.000 A 
ATOM      4  C   UNL     1       6.223   4.304  14.767  0.00  0.00    +0.000 A 
ATOM      5  C   UNL     1       5.972   5.626  14.371  0.00  0.00    +0.000 A 
ATOM      6  C   UNL     1       5.169   6.471  15.146  0.00  0.00    +0.000 A 
ATOM      7  C   UNL     1       4.623   5.975  16.316  0.00  0.00    +0.000 A 
ATOM      8  C   UNL     1       3.783   6.610  17.312  0.00  0.00    +0.000 A 
ATOM      9  C   UNL     1       3.282   7.899  17.379  0.00  0.00    +0.000 A 
ATOM     10  C   UNL     1       2.488   8.253  18.476  0.00  0.00    +0.000 A 
ATOM     11  C   UNL     1       2.208   7.327  19.494  0.00  0.00    +0.000 A 
ATOM     12  C   UNL     1       2.715   6.027  19.435  0.00  0.00    +0.000 A 
ATOM     13  C   UNL     1       3.492   5.678  18.337  0.00  0.00    +0.000 A 
ENDROOT
BRANCH   1  14
ATOM     14  C   UNL     1       3.200   3.180  17.916  0.00  0.00    +0.000 C 
ATOM     15  O   UNL     1       2.313   3.127  17.070  0.00  0.00    +0.000 OA
BRANCH  14  16
ATOM     16  C   UNL     1       3.311   2.038  18.934  0.00  0.00    +0.000 C 
ATOM     17  O   UNL     1       3.744   0.929  18.658  0.00  0.00    +0.000 OA
BRANCH  16  19
ATOM     18  C   UNL     1       1.382   2.605  20.109  0.00  0.00    +0.000 C 
ATOM     19  O   UNL     1       2.802   2.432  20.123  0.00  0.00    +0.000 OA
ENDBRANCH  16  19
ENDBRANCH  14  16
ENDBRANCH   1  14
BRANCH   1  20
ATOM     20  C   UNL     1       5.234   4.017  19.148  0.00  0.00    +0.000 C 
BRANCH  20  21
ATOM     21  C   UNL     1       6.153   5.173  19.590  0.00  0.00    +0.000 C 
BRANCH  21  22
ATOM     22  C   UNL     1       7.368   5.364  18.690  0.00  0.00    +0.000 C 
ATOM     23  C   UNL     1       7.701   6.751  18.180  0.00  0.00    +0.000 C 
ATOM     24  O   UNL     1       8.076   4.421  18.372  0.00  0.00    +0.000 OA
ENDBRANCH  21  22
ENDBRANCH  20  21
ENDBRANCH   1  20
TORSDOF 6
ENDMDL
MODEL 2
REMARK VINA RESULT:      -7.5      1.737      4.471
REMARK  Name = 
REMARK  8 active torsions:
REMARK  status: ('A' for Active; 'I' for Inactive)
REMARK    1  A    between atoms: C_1  and  O_2
REMARK    2  A    between atoms: O_2  and  C_3
REMARK    3  A    between atoms: C_3  and  C_5
REMARK    4  A    between atoms: C_5  and  C_7
REMARK    5  A    between atoms: C_7  and  C_8
REMARK    6  A    between atoms: C_8  and  C_9
REMARK    7  A    between atoms: C_9  and  C_10
REMARK    8  A    between atoms: C_10  and  C_11
REMARK                            x       y       z     vdW  Elec       q    Type
REMARK                         _______ _______ _______ _____ _____    ______ ____
ROOT
ATOM      1  C   UNL     1       4.683   4.532  17.495  0.00  0.00    +0.000 C 
ATOM      2  C   UNL     1       3.615   3.586  18.054  0.00  0.00    +0.000 A 
ATOM      3  C   UNL     1       3.687   2.210  18.222  0.00  0.00    +0.000 A 
ATOM      4  C   UNL     1       2.566   1.552  18.728  0.00  0.00    +0.000 A 
ATOM      5  C   UNL     1       1.403   2.267  19.054  0.00  0.00    +0.000 A 
ATOM      6  C   UNL     1       1.337   3.654  18.878  0.00  0.00    +0.000 A 
ATOM      7  C   UNL     1       2.446   4.311  18.376  0.00  0.00    +0.000 A 
ATOM      8  C   UNL     1       2.661   5.713  18.077  0.00  0.00    +0.000 A 
ATOM      9  C   UNL     1       1.815   6.802  18.208  0.00  0.00    +0.000 A 
ATOM     10  C   UNL     1       2.286   8.064  17.830  0.00  0.00    +0.000 A 
ATOM     11  C   UNL     1       3.585   8.229  17.322  0.00  0.00    +0.000 A 
ATOM     12  C   UNL     1       4.440   7.134  17.182  0.00  0.00    +0.000 A 
ATOM     13  C   UNL     1       3.971   5.885  17.571  0.00  0.00    +0.000 A 
ENDROOT
BRANCH   1  14
ATOM     14  C   UNL     1       5.963   4.489  18.338  0.00  0.00    +0.000 C 
ATOM     15  O   UNL     1       5.987   4.177  19.524  0.00  0.00    +0.000 OA
BRANCH  14  16
ATOM     16  C   UNL     1       7.276   4.900  17.661  0.00  0.00    +0.000 C 
ATOM     17  O   UNL     1       8.116   4.099  17.279  0.00  0.00    +0.000 OA
BRANCH  16  19
ATOM     18  C   UNL     1       8.108   6.799  18.719  0.00  0.00    +0.000 C 
ATOM     19  O   UNL     1       7.372   6.248  17.625  0.00  0.00    +0.000 OA
ENDBRANCH  16  19
ENDBRANCH  14  16
ENDBRANCH   1  14
BRANCH   1  20
ATOM     20  C   UNL     1       5.025   4.172  16.019  0.00  0.00    +0.000 C 
BRANCH  20  21
ATOM     21  C   UNL     1       5.508   5.331  15.124  0.00  0.00    +0.000 C 
BRANCH  21  22
ATOM     22  C   UNL     1       6.613   4.931  14.154  0.00  0.00    +0.000 C 
ATOM     23  C   UNL     1       6.346   3.843  13.135  0.00  0.00    +0.000 C 
ATOM     24  O   UNL     1       7.709   5.470  14.185  0.00  0.00    +0.000 OA
ENDBRANCH  21  22
ENDBRANCH  20  21
ENDBRANCH   1  20
TORSDOF 6
ENDMDL
MODEL 3
REMARK VINA RESULT:      -7.4      0.656      1.168
REMARK  Name = 
REMARK  8 active torsions:
REMARK  status: ('A' for Active; 'I' for Inactive)
REMARK    1  A    between atoms: C_1  and  O_2
REMARK    2  A    between atoms: O_2  and  C_3
REMARK    3  A    between atoms: C_3  and  C_5
REMARK    4  A    between atoms: C_5  and  C_7
REMARK    5  A    between atoms: C_7  and  C_8
REMARK    6  A    between atoms: C_8  and  C_9
REMARK    7  A    between atoms: C_9  and  C_10
REMARK    8  A    between atoms: C_10  and  C_11
REMARK                            x       y       z     vdW  Elec       q    Type
REMARK                         _______ _______ _______ _____ _____    ______ ____
ROOT
ATOM      1  C   UNL     1       4.344   4.214  18.328  0.00  0.00    +0.000 C 
ATOM      2  C   UNL     1       4.923   4.484  16.937  0.00  0.00    +0.000 A 
ATOM      3  C   UNL     1       5.733   3.660  16.166  0.00  0.00    +0.000 A 
ATOM      4  C   UNL     1       6.165   4.137  14.929  0.00  0.00    +0.000 A 
ATOM      5  C   UNL     1       5.791   5.415  14.484  0.00  0.00    +0.000 A 
ATOM      6  C   UNL     1       4.978   6.241  15.269  0.00  0.00    +0.000 A 
ATOM      7  C   UNL     1       4.546   5.772  16.497  0.00  0.00    +0.000 A 
ATOM      8  C   UNL     1       3.725   6.399  17.513  0.00  0.00    +0.000 A 
ATOM      9  C   UNL     1       3.134   7.651  17.548  0.00  0.00    +0.000 A 
ATOM     10  C   UNL     1       2.387   8.007  18.677  0.00  0.00    +0.000 A 
ATOM     11  C   UNL     1       2.242   7.121  19.757  0.00  0.00    +0.000 A 
ATOM     12  C   UNL     1       2.840   5.859  19.729  0.00  0.00    +0.000 A 
ATOM     13  C   UNL     1       3.570   5.507  18.600  0.00  0.00    +0.000 A 
ENDROOT
BRANCH   1  14
ATOM     14  C   UNL     1       3.441   2.975  18.327  0.00  0.00    +0.000 C 
ATOM     15  O   UNL     1       3.853   1.831  18.495  0.00  0.00    +0.000 OA
BRANCH  14  16
ATOM     16  C   UNL     1       1.945   3.182  18.060  0.00  0.00    +0.000 C 
ATOM     17  O   UNL     1       1.513   3.935  17.200  0.00  0.00    +0.000 OA
BRANCH  16  19
ATOM     18  C   UNL     1       0.712   3.257  20.033  0.00  0.00    +0.000 C 
ATOM     19  O   UNL     1       1.217   2.471  18.950  0.00  0.00    +0.000 OA
ENDBRANCH  16  19
ENDBRANCH  14  16
ENDBRANCH   1  14
BRANCH   1  20
ATOM     20  C   UNL     1       5.480   4.022  19.375  0.00  0.00    +0.000 C 
BRANCH  20  21
ATOM     21  C   UNL     1       6.353   5.257  19.676  0.00  0.00    +0.000 C 
BRANCH  21  22
ATOM     22  C   UNL     1       7.510   5.437  18.702  0.00  0.00    +0.000 C 
ATOM     23  C   UNL     1       7.711   6.779  18.030  0.00  0.00    +0.000 C 
ATOM     24  O   UNL     1       8.277   4.519  18.452  0.00  0.00    +0.000 OA
ENDBRANCH  21  22
ENDBRANCH  20  21
ENDBRANCH   1  20
TORSDOF 6
ENDMDL
MODEL 4
REMARK VINA RESULT:      -7.2      1.956      5.159
REMARK  Name = 
REMARK  8 active torsions:
REMARK  status: ('A' for Active; 'I' for Inactive)
REMARK    1  A    between atoms: C_1  and  O_2
REMARK    2  A    between atoms: O_2  and  C_3
REMARK    3  A    between atoms: C_3  and  C_5
REMARK    4  A    between atoms: C_5  and  C_7
REMARK    5  A    between atoms: C_7  and  C_8
REMARK    6  A    between atoms: C_8  and  C_9
REMARK    7  A    between atoms: C_9  and  C_10
REMARK    8  A    between atoms: C_10  and  C_11
REMARK                            x       y       z     vdW  Elec       q    Type
REMARK                         _______ _______ _______ _____ _____    ______ ____
ROOT
ATOM      1  C   UNL     1       4.307   4.915  18.444  0.00  0.00    +0.000 C 
ATOM      2  C   UNL     1       3.754   4.134  19.640  0.00  0.00    +0.000 A 
ATOM      3  C   UNL     1       4.087   2.853  20.059  0.00  0.00    +0.000 A 
ATOM      4  C   UNL     1       3.423   2.334  21.171  0.00  0.00    +0.000 A 
ATOM      5  C   UNL     1       2.448   3.090  21.839  0.00  0.00    +0.000 A 
ATOM      6  C   UNL     1       2.115   4.380  21.408  0.00  0.00    +0.000 A 
ATOM      7  C   UNL     1       2.770   4.899  20.306  0.00  0.00    +0.000 A 
ATOM      8  C   UNL     1       2.627   6.175  19.633  0.00  0.00    +0.000 A 
ATOM      9  C   UNL     1       1.789   7.244  19.901  0.00  0.00    +0.000 A 
ATOM     10  C   UNL     1       1.855   8.369  19.071  0.00  0.00    +0.000 A 
ATOM     11  C   UNL     1       2.744   8.415  17.984  0.00  0.00    +0.000 A 
ATOM     12  C   UNL     1       3.586   7.337  17.706  0.00  0.00    +0.000 A 
ATOM     13  C   UNL     1       3.525   6.228  18.541  0.00  0.00    +0.000 A 
ENDROOT
BRANCH   1  14
ATOM     14  C   UNL     1       5.822   5.119  18.562  0.00  0.00    +0.000 C 
ATOM     15  O   UNL     1       6.414   5.222  19.632  0.00  0.00    +0.000 OA
BRANCH  14  16
ATOM     16  C   UNL     1       6.628   5.241  17.264  0.00  0.00    +0.000 C 
ATOM     17  O   UNL     1       7.282   4.325  16.789  0.00  0.00    +0.000 OA
BRANCH  16  19
ATOM     18  C   UNL     1       7.481   7.403  17.403  0.00  0.00    +0.000 C 
ATOM     19  O   UNL     1       6.550   6.505  16.792  0.00  0.00    +0.000 OA
ENDBRANCH  16  19
ENDBRANCH  14  16
ENDBRANCH   1  14
BRANCH   1  20
ATOM     20  C   UNL     1       3.988   4.183  17.108  0.00  0.00    +0.000 C 
BRANCH  20  21
ATOM     21  C   UNL     1       3.074   2.946  17.202  0.00  0.00    +0.000 C 
BRANCH  21  22
ATOM     22  C   UNL     1       1.629   3.281  17.553  0.00  0.00    +0.000 C 
ATOM     23  C   UNL     1       0.863   2.366  18.486  0.00  0.00    +0.000 C 
ATOM     24  O   UNL     1       1.079   4.271  17.096  0.00  0.00    +0.000 OA
ENDBRANCH  21  22
ENDBRANCH  20  21
ENDBRANCH   1  20
TORSDOF 6
ENDMDL
MODEL 5
REMARK VINA RESULT:      -7.0      1.867      5.172
REMARK  Name = 
REMARK  8 active torsions:
REMARK  status: ('A' for Active; 'I' for Inactive)
REMARK    1  A    between atoms: C_1  and  O_2
REMARK    2  A    between atoms: O_2  and  C_3
REMARK    3  A    between atoms: C_3  and  C_5
REMARK    4  A    between atoms: C_5  and  C_7
REMARK    5  A    between atoms: C_7  and  C_8
REMARK    6  A    between atoms: C_8  and  C_9
REMARK    7  A    between atoms: C_9  and  C_10
REMARK    8  A    between atoms: C_10  and  C_11
REMARK                            x       y       z     vdW  Elec       q    Type
REMARK                         _______ _______ _______ _____ _____    ______ ____
ROOT
ATOM      1  C   UNL     1       4.217   4.961  18.344  0.00  0.00    +0.000 C 
ATOM      2  C   UNL     1       3.732   4.161  19.557  0.00  0.00    +0.000 A 
ATOM      3  C   UNL     1       4.086   2.872  19.935  0.00  0.00    +0.000 A 
ATOM      4  C   UNL     1       3.486   2.337  21.075  0.00  0.00    +0.000 A 
ATOM      5  C   UNL     1       2.553   3.083  21.811  0.00  0.00    +0.000 A 
ATOM      6  C   UNL     1       2.200   4.381  21.422  0.00  0.00    +0.000 A 
ATOM      7  C   UNL     1       2.792   4.917  20.291  0.00  0.00    +0.000 A 
ATOM      8  C   UNL     1       2.613   6.204  19.649  0.00  0.00    +0.000 A 
ATOM      9  C   UNL     1       1.795   7.270  19.983  0.00  0.00    +0.000 A 
ATOM     10  C   UNL     1       1.816   8.409  19.170  0.00  0.00    +0.000 A 
ATOM     11  C   UNL     1       2.640   8.471  18.034  0.00  0.00    +0.000 A 
ATOM     12  C   UNL     1       3.462   7.396  17.690  0.00  0.00    +0.000 A 
ATOM     13  C   UNL     1       3.446   6.274  18.509  0.00  0.00    +0.000 A 
ENDROOT
BRANCH   1  14
ATOM     14  C   UNL     1       5.737   5.160  18.377  0.00  0.00    +0.000 C 
ATOM     15  O   UNL     1       6.410   5.096  19.401  0.00  0.00    +0.000 OA
BRANCH  14  16
ATOM     16  C   UNL     1       6.441   5.497  17.057  0.00  0.00    +0.000 C 
ATOM     17  O   UNL     1       6.554   6.634  16.625  0.00  0.00    +0.000 OA
BRANCH  16  19
ATOM     18  C   UNL     1       6.970   4.489  15.026  0.00  0.00    +0.000 C 
ATOM     19  O   UNL     1       6.835   4.358  16.444  0.00  0.00    +0.000 OA
ENDBRANCH  16  19
ENDBRANCH  14  16
ENDBRANCH   1  14
BRANCH   1  20
ATOM     20  C   UNL     1       3.819   4.252  17.017  0.00  0.00    +0.000 C 
BRANCH  20  21
ATOM     21  C   UNL     1       2.910   3.013  17.144  0.00  0.00    +0.000 C 
BRANCH  21  22
ATOM     22  C   UNL     1       1.483   3.345  17.561  0.00  0.00    +0.000 C 
ATOM     23  C   UNL     1       0.761   2.428  18.527  0.00  0.00    +0.000 C 
ATOM     24  O   UNL     1       0.910   4.334  17.130  0.00  0.00    +0.000 OA
ENDBRANCH  21  22
ENDBRANCH  20  21
ENDBRANCH   1  20
TORSDOF 6
ENDMDL
MODEL 6
REMARK VINA RESULT:      -7.0      1.979      4.729
REMARK  Name = 
REMARK  8 active torsions:
REMARK  status: ('A' for Active; 'I' for Inactive)
REMARK    1  A    between atoms: C_1  and  O_2
REMARK    2  A    between atoms: O_2  and  C_3
REMARK    3  A    between atoms: C_3  and  C_5
REMARK    4  A    between atoms: C_5  and  C_7
REMARK    5  A    between atoms: C_7  and  C_8
REMARK    6  A    between atoms: C_8  and  C_9
REMARK    7  A    between atoms: C_9  and  C_10
REMARK    8  A    between atoms: C_10  and  C_11
REMARK                            x       y       z     vdW  Elec       q    Type
REMARK                         _______ _______ _______ _____ _____    ______ ____
ROOT
ATOM      1  C   UNL     1       4.859   4.923  17.109  0.00  0.00    +0.000 C 
ATOM      2  C   UNL     1       4.050   3.785  17.739  0.00  0.00    +0.000 A 
ATOM      3  C   UNL     1       4.324   2.424  17.725  0.00  0.00    +0.000 A 
ATOM      4  C   UNL     1       3.417   1.567  18.348  0.00  0.00    +0.000 A 
ATOM      5  C   UNL     1       2.264   2.073  18.968  0.00  0.00    +0.000 A 
ATOM      6  C   UNL     1       1.994   3.447  18.975  0.00  0.00    +0.000 A 
ATOM      7  C   UNL     1       2.890   4.301  18.358  0.00  0.00    +0.000 A 
ATOM      8  C   UNL     1       2.865   5.741  18.194  0.00  0.00    +0.000 A 
ATOM      9  C   UNL     1       1.935   6.679  18.610  0.00  0.00    +0.000 A 
ATOM     10  C   UNL     1       2.162   8.026  18.305  0.00  0.00    +0.000 A 
ATOM     11  C   UNL     1       3.301   8.423  17.587  0.00  0.00    +0.000 A 
ATOM     12  C   UNL     1       4.240   7.481  17.161  0.00  0.00    +0.000 A 
ATOM     13  C   UNL     1       4.015   6.147  17.478  0.00  0.00    +0.000 A 
ENDROOT
BRANCH   1  14
ATOM     14  C   UNL     1       6.278   4.987  17.687  0.00  0.00    +0.000 C 
ATOM     15  O   UNL     1       6.738   4.149  18.456  0.00  0.00    +0.000 OA
BRANCH  14  16
ATOM     16  C   UNL     1       7.148   6.192  17.309  0.00  0.00    +0.000 C 
ATOM     17  O   UNL     1       7.506   6.432  16.166  0.00  0.00    +0.000 OA
BRANCH  16  19
ATOM     18  C   UNL     1       8.147   8.119  18.152  0.00  0.00    +0.000 C 
ATOM     19  O   UNL     1       7.494   6.876  18.423  0.00  0.00    +0.000 OA
ENDBRANCH  16  19
ENDBRANCH  14  16
ENDBRANCH   1  14
BRANCH   1  20
ATOM     20  C   UNL     1       4.940   4.756  15.563  0.00  0.00    +0.000 C 
BRANCH  20  21
ATOM     21  C   UNL     1       6.023   3.797  15.030  0.00  0.00    +0.000 C 
BRANCH  21  22
ATOM     22  C   UNL     1       6.508   4.145  13.628  0.00  0.00    +0.000 C 
ATOM     23  C   UNL     1       5.971   3.366  12.445  0.00  0.00    +0.000 C 
ATOM     24  O   UNL     1       7.320   5.037  13.441  0.00  0.00    +0.000 OA
ENDBRANCH  21  22
ENDBRANCH  20  21
ENDBRANCH   1  20
TORSDOF 6
ENDMDL
MODEL 7
REMARK VINA RESULT:      -6.8      1.424      4.770
REMARK  Name = 
REMARK  8 active torsions:
REMARK  status: ('A' for Active; 'I' for Inactive)
REMARK    1  A    between atoms: C_1  and  O_2
REMARK    2  A    between atoms: O_2  and  C_3
REMARK    3  A    between atoms: C_3  and  C_5
REMARK    4  A    between atoms: C_5  and  C_7
REMARK    5  A    between atoms: C_7  and  C_8
REMARK    6  A    between atoms: C_8  and  C_9
REMARK    7  A    between atoms: C_9  and  C_10
REMARK    8  A    between atoms: C_10  and  C_11
REMARK                            x       y       z     vdW  Elec       q    Type
REMARK                         _______ _______ _______ _____ _____    ______ ____
ROOT
ATOM      1  C   UNL     1       4.117   4.214  18.122  0.00  0.00    +0.000 C 
ATOM      2  C   UNL     1       3.484   5.582  18.394  0.00  0.00    +0.000 A 
ATOM      3  C   UNL     1       2.619   5.942  19.419  0.00  0.00    +0.000 A 
ATOM      4  C   UNL     1       2.146   7.254  19.446  0.00  0.00    +0.000 A 
ATOM      5  C   UNL     1       2.535   8.176  18.462  0.00  0.00    +0.000 A 
ATOM      6  C   UNL     1       3.404   7.804  17.430  0.00  0.00    +0.000 A 
ATOM      7  C   UNL     1       3.877   6.504  17.398  0.00  0.00    +0.000 A 
ATOM      8  C   UNL     1       4.759   5.840  16.459  0.00  0.00    +0.000 A 
ATOM      9  C   UNL     1       5.384   6.318  15.320  0.00  0.00    +0.000 A 
ATOM     10  C   UNL     1       6.190   5.442  14.582  0.00  0.00    +0.000 A 
ATOM     11  C   UNL     1       6.358   4.106  14.980  0.00  0.00    +0.000 A 
ATOM     12  C   UNL     1       5.725   3.618  16.125  0.00  0.00    +0.000 A 
ATOM     13  C   UNL     1       4.937   4.495  16.860  0.00  0.00    +0.000 A 
ENDROOT
BRANCH   1  14
ATOM     14  C   UNL     1       4.984   3.756  19.300  0.00  0.00    +0.000 C 
ATOM     15  O   UNL     1       6.103   4.201  19.536  0.00  0.00    +0.000 OA
BRANCH  14  16
ATOM     16  C   UNL     1       4.430   2.649  20.206  0.00  0.00    +0.000 C 
ATOM     17  O   UNL     1       3.486   2.810  20.964  0.00  0.00    +0.000 OA
BRANCH  16  19
ATOM     18  C   UNL     1       5.464   0.886  21.321  0.00  0.00    +0.000 C 
ATOM     19  O   UNL     1       5.180   1.532  20.077  0.00  0.00    +0.000 OA
ENDBRANCH  16  19
ENDBRANCH  14  16
ENDBRANCH   1  14
BRANCH   1  20
ATOM     20  C   UNL     1       3.023   3.143  17.840  0.00  0.00    +0.000 C 
BRANCH  20  21
ATOM     21  C   UNL     1       1.560   3.629  17.872  0.00  0.00    +0.000 C 
BRANCH  21  22
ATOM     22  C   UNL     1       0.673   2.827  18.816  0.00  0.00    +0.000 C 
ATOM     23  C   UNL     1       0.509   3.289  20.249  0.00  0.00    +0.000 C 
ATOM     24  O   UNL     1       0.093   1.821  18.439  0.00  0.00    +0.000 OA
ENDBRANCH  21  22
ENDBRANCH  20  21
ENDBRANCH   1  20
TORSDOF 6
ENDMDL
MODEL 8
REMARK VINA RESULT:      -6.8      2.369      5.257
REMARK  Name = 
REMARK  8 active torsions:
REMARK  status: ('A' for Active; 'I' for Inactive)
REMARK    1  A    between atoms: C_1  and  O_2
REMARK    2  A    between atoms: O_2  and  C_3
REMARK    3  A    between atoms: C_3  and  C_5
REMARK    4  A    between atoms: C_5  and  C_7
REMARK    5  A    between atoms: C_7  and  C_8
REMARK    6  A    between atoms: C_8  and  C_9
REMARK    7  A    between atoms: C_9  and  C_10
REMARK    8  A    between atoms: C_10  and  C_11
REMARK                            x       y       z     vdW  Elec       q    Type
REMARK                         _______ _______ _______ _____ _____    ______ ____
ROOT
ATOM      1  C   UNL     1       5.032   6.084  16.793  0.00  0.00    +0.000 C 
ATOM      2  C   UNL     1       4.422   4.804  17.373  0.00  0.00    +0.000 A 
ATOM      3  C   UNL     1       3.275   4.136  16.965  0.00  0.00    +0.000 A 
ATOM      4  C   UNL     1       2.896   2.995  17.671  0.00  0.00    +0.000 A 
ATOM      5  C   UNL     1       3.654   2.543  18.762  0.00  0.00    +0.000 A 
ATOM      6  C   UNL     1       4.807   3.225  19.170  0.00  0.00    +0.000 A 
ATOM      7  C   UNL     1       5.187   4.357  18.473  0.00  0.00    +0.000 A 
ATOM      8  C   UNL     1       6.303   5.261  18.671  0.00  0.00    +0.000 A 
ATOM      9  C   UNL     1       7.312   5.251  19.620  0.00  0.00    +0.000 A 
ATOM     10  C   UNL     1       8.274   6.267  19.584  0.00  0.00    +0.000 A 
ATOM     11  C   UNL     1       8.218   7.282  18.615  0.00  0.00    +0.000 A 
ATOM     12  C   UNL     1       7.199   7.300  17.660  0.00  0.00    +0.000 A 
ATOM     13  C   UNL     1       6.255   6.282  17.693  0.00  0.00    +0.000 A 
ENDROOT
BRANCH   1  14
ATOM     14  C   UNL     1       5.407   5.905  15.317  0.00  0.00    +0.000 C 
ATOM     15  O   UNL     1       5.013   6.643  14.420  0.00  0.00    +0.000 OA
BRANCH  14  16
ATOM     16  C   UNL     1       6.293   4.710  14.947  0.00  0.00    +0.000 C 
ATOM     17  O   UNL     1       7.461   4.604  15.290  0.00  0.00    +0.000 OA
BRANCH  16  19
ATOM     18  C   UNL     1       6.227   3.645  12.877  0.00  0.00    +0.000 C 
ATOM     19  O   UNL     1       5.608   3.860  14.148  0.00  0.00    +0.000 OA
ENDBRANCH  16  19
ENDBRANCH  14  16
ENDBRANCH   1  14
BRANCH   1  20
ATOM     20  C   UNL     1       4.047   7.281  16.933  0.00  0.00    +0.000 C 
BRANCH  20  21
ATOM     21  C   UNL     1       3.079   7.240  18.132  0.00  0.00    +0.000 C 
BRANCH  21  22
ATOM     22  C   UNL     1       2.196   8.476  18.245  0.00  0.00    +0.000 C 
ATOM     23  C   UNL     1       1.483   8.759  19.551  0.00  0.00    +0.000 C 
ATOM     24  O   UNL     1       2.053   9.242  17.304  0.00  0.00    +0.000 OA
ENDBRANCH  21  22
ENDBRANCH  20  21
ENDBRANCH   1  20
TORSDOF 6
ENDMDL
MODEL 9
REMARK VINA RESULT:      -6.7      1.916      4.437
REMARK  Name = 
REMARK  8 active torsions:
REMARK  status: ('A' for Active; 'I' for Inactive)
REMARK    1  A    between atoms: C_1  and  O_2
REMARK    2  A    between atoms: O_2  and  C_3
REMARK    3  A    between atoms: C_3  and  C_5
REMARK    4  A    between atoms: C_5  and  C_7
REMARK    5  A    between atoms: C_7  and  C_8
REMARK    6  A    between atoms: C_8  and  C_9
REMARK    7  A    between atoms: C_9  and  C_10
REMARK    8  A    between atoms: C_10  and  C_11
REMARK                            x       y       z     vdW  Elec       q    Type
REMARK                         _______ _______ _______ _____ _____    ______ ____
ROOT
ATOM      1  C   UNL     1       4.860   4.626  17.114  0.00  0.00    +0.000 C 
ATOM      2  C   UNL     1       4.004   3.565  17.812  0.00  0.00    +0.000 A 
ATOM      3  C   UNL     1       4.209   2.193  17.867  0.00  0.00    +0.000 A 
ATOM      4  C   UNL     1       3.270   1.417  18.545  0.00  0.00    +0.000 A 
ATOM      5  C   UNL     1       2.151   2.012  19.149  0.00  0.00    +0.000 A 
ATOM      6  C   UNL     1       1.949   3.396  19.086  0.00  0.00    +0.000 A 
ATOM      7  C   UNL     1       2.879   4.170  18.414  0.00  0.00    +0.000 A 
ATOM      8  C   UNL     1       2.924   5.599  18.174  0.00  0.00    +0.000 A 
ATOM      9  C   UNL     1       2.047   6.603  18.549  0.00  0.00    +0.000 A 
ATOM     10  C   UNL     1       2.336   7.919  18.171  0.00  0.00    +0.000 A 
ATOM     11  C   UNL     1       3.485   8.220  17.421  0.00  0.00    +0.000 A 
ATOM     12  C   UNL     1       4.370   7.211  17.036  0.00  0.00    +0.000 A 
ATOM     13  C   UNL     1       4.083   5.908  17.425  0.00  0.00    +0.000 A 
ENDROOT
BRANCH   1  14
ATOM     14  C   UNL     1       6.288   4.649  17.673  0.00  0.00    +0.000 C 
ATOM     15  O   UNL     1       7.239   4.089  17.136  0.00  0.00    +0.000 OA
BRANCH  14  16
ATOM     16  C   UNL     1       6.522   5.382  18.999  0.00  0.00    +0.000 C 
ATOM     17  O   UNL     1       5.702   5.417  19.904  0.00  0.00    +0.000 OA
BRANCH  16  19
ATOM     18  C   UNL     1       7.736   7.153  18.100  0.00  0.00    +0.000 C 
ATOM     19  O   UNL     1       7.715   6.017  18.968  0.00  0.00    +0.000 OA
ENDBRANCH  16  19
ENDBRANCH  14  16
ENDBRANCH   1  14
BRANCH   1  20
ATOM     20  C   UNL     1       4.913   4.374  15.578  0.00  0.00    +0.000 C 
BRANCH  20  21
ATOM     21  C   UNL     1       5.624   5.447  14.729  0.00  0.00    +0.000 C 
BRANCH  21  22
ATOM     22  C   UNL     1       6.763   4.895  13.881  0.00  0.00    +0.000 C 
ATOM     23  C   UNL     1       6.484   3.765  12.912  0.00  0.00    +0.000 C 
ATOM     24  O   UNL     1       7.895   5.346  13.968  0.00  0.00    +0.000 OA
ENDBRANCH  21  22
ENDBRANCH  20  21
ENDBRANCH   1  20
TORSDOF 6
ENDMDL
