MODEL 1
REMARK VINA RESULT:      -7.9      0.000      0.000
REMARK  Name = 
REMARK  9 active torsions:
REMARK  status: ('A' for Active; 'I' for Inactive)
REMARK    1  A    between atoms: C_1  and  O_2
REMARK    2  A    between atoms: O_2  and  C_3
REMARK    3  A    between atoms: C_6  and  C_7
REMARK    4  A    between atoms: C_7  and  C_8
REMARK    5  A    between atoms: N_10  and  N_11
REMARK    6  A    between atoms: N_11  and  S_12
REMARK    7  A    between atoms: S_12  and  C_15
REMARK    8  A    between atoms: C_23  and  O_24
REMARK    9  A    between atoms: O_24  and  C_25
REMARK                            x       y       z     vdW  Elec       q    Type
REMARK                         _______ _______ _______ _____ _____    ______ ____
ROOT
ATOM      1  C   UNL     1       8.450   9.115  18.368  0.00  0.00    +0.000 C 
ATOM      2  O   UNL     1       7.835   9.581  17.407  0.00  0.00    +0.000 OA
ATOM      3  N   UNL     1       8.408   7.768  18.679  0.00  0.00    +0.000 N 
ATOM      4  H   UNL     1       9.034   7.331  19.355  0.00  0.00    +0.000 HD
ENDROOT
BRANCH   3   5
ATOM      5  N   UNL     1       7.616   6.892  17.824  0.00  0.00    +0.000 NA
ATOM      6  H   UNL     1       7.578   7.132  16.827  0.00  0.00    +0.000 HD
BRANCH   5   7
ATOM      7  S   UNL     1       7.455   5.277  18.294  0.00  0.00    +0.000 S 
ATOM      8  O   UNL     1       8.096   4.471  17.278  0.00  0.00    +0.000 OA
ATOM      9  O   UNL     1       7.857   5.181  19.680  0.00  0.00    +0.000 OA
BRANCH   7  10
ATOM     10  C   UNL     1       5.704   5.006  18.186  0.00  0.00    +0.000 A 
ATOM     11  C   UNL     1       4.843   5.696  19.049  0.00  0.00    +0.000 A 
ATOM     12  C   UNL     1       3.462   5.552  18.902  0.00  0.00    +0.000 A 
ATOM     13  C   UNL     1       2.958   4.734  17.894  0.00  0.00    +0.000 A 
ATOM     14  F   UNL     1       1.633   4.618  17.742  0.00  0.00    +0.000 F 
ATOM     15  C   UNL     1       3.809   4.047  17.033  0.00  0.00    +0.000 A 
ATOM     16  C   UNL     1       5.193   4.183  17.174  0.00  0.00    +0.000 A 
ENDBRANCH   7  10
ENDBRANCH   5   7
ENDBRANCH   3   5
BRANCH   1  17
ATOM     17  C   UNL     1       9.270   9.954  19.331  0.00  0.00    +0.000 C 
BRANCH  17  21
ATOM     18  C   UNL     1      10.610  13.653  17.496  0.00  0.00    +0.000 A 
ATOM     19  C   UNL     1      11.373  12.480  17.381  0.00  0.00    +0.000 A 
ATOM     20  C   UNL     1      10.969  11.289  17.993  0.00  0.00    +0.000 A 
ATOM     21  C   UNL     1       9.811  11.250  18.770  0.00  0.00    +0.000 A 
ATOM     22  C   UNL     1       9.094  12.442  18.946  0.00  0.00    +0.000 A 
ATOM     23  C   UNL     1       9.480  13.645  18.327  0.00  0.00    +0.000 A 
BRANCH  18  25
ATOM     24  C   UNL     1      12.073  15.518  17.365  0.00  0.00    +0.000 C 
ATOM     25  O   UNL     1      10.956  14.803  16.839  0.00  0.00    +0.000 OA
ENDBRANCH  18  25
BRANCH  23  26
ATOM     26  O   UNL     1       8.624  14.671  18.634  0.00  0.00    +0.000 OA
ATOM     27  C   UNL     1       7.432  14.831  17.884  0.00  0.00    +0.000 C 
ENDBRANCH  23  26
ENDBRANCH  17  21
ENDBRANCH   1  17
TORSDOF 7
ENDMDL
MODEL 2
REMARK VINA RESULT:      -7.8      0.667      1.139
REMARK  Name = 
REMARK  9 active torsions:
REMARK  status: ('A' for Active; 'I' for Inactive)
REMARK    1  A    between atoms: C_1  and  O_2
REMARK    2  A    between atoms: O_2  and  C_3
REMARK    3  A    between atoms: C_6  and  C_7
REMARK    4  A    between atoms: C_7  and  C_8
REMARK    5  A    between atoms: N_10  and  N_11
REMARK    6  A    between atoms: N_11  and  S_12
REMARK    7  A    between atoms: S_12  and  C_15
REMARK    8  A    between atoms: C_23  and  O_24
REMARK    9  A    between atoms: O_24  and  C_25
REMARK                            x       y       z     vdW  Elec       q    Type
REMARK                         _______ _______ _______ _____ _____    ______ ____
ROOT
ATOM      1  C   UNL     1       8.432   9.125  18.358  0.00  0.00    +0.000 C 
ATOM      2  O   UNL     1       7.756   9.653  17.473  0.00  0.00    +0.000 OA
ATOM      3  N   UNL     1       8.415   7.760  18.576  0.00  0.00    +0.000 N 
ATOM      4  H   UNL     1       9.084   7.282  19.178  0.00  0.00    +0.000 HD
ENDROOT
BRANCH   3   5
ATOM      5  N   UNL     1       7.576   6.939  17.712  0.00  0.00    +0.000 NA
ATOM      6  H   UNL     1       7.564   7.180  16.714  0.00  0.00    +0.000 HD
BRANCH   5   7
ATOM      7  S   UNL     1       7.300   5.339  18.179  0.00  0.00    +0.000 S 
ATOM      8  O   UNL     1       8.010   4.493  17.244  0.00  0.00    +0.000 OA
ATOM      9  O   UNL     1       7.550   5.247  19.600  0.00  0.00    +0.000 OA
BRANCH   7  10
ATOM     10  C   UNL     1       5.560   5.136  17.890  0.00  0.00    +0.000 A 
ATOM     11  C   UNL     1       5.089   3.952  17.310  0.00  0.00    +0.000 A 
ATOM     12  C   UNL     1       3.714   3.755  17.169  0.00  0.00    +0.000 A 
ATOM     13  C   UNL     1       2.829   4.733  17.617  0.00  0.00    +0.000 A 
ATOM     14  F   UNL     1       1.511   4.529  17.501  0.00  0.00    +0.000 F 
ATOM     15  C   UNL     1       3.291   5.910  18.196  0.00  0.00    +0.000 A 
ATOM     16  C   UNL     1       4.667   6.118  18.338  0.00  0.00    +0.000 A 
ENDBRANCH   7  10
ENDBRANCH   5   7
ENDBRANCH   3   5
BRANCH   1  17
ATOM     17  C   UNL     1       9.308   9.902  19.326  0.00  0.00    +0.000 C 
BRANCH  17  21
ATOM     18  C   UNL     1      10.385  13.805  17.760  0.00  0.00    +0.000 A 
ATOM     19  C   UNL     1      11.066  12.652  17.338  0.00  0.00    +0.000 A 
ATOM     20  C   UNL     1      10.751  11.392  17.857  0.00  0.00    +0.000 A 
ATOM     21  C   UNL     1       9.771  11.257  18.842  0.00  0.00    +0.000 A 
ATOM     22  C   UNL     1       9.148  12.421  19.315  0.00  0.00    +0.000 A 
ATOM     23  C   UNL     1       9.445  13.693  18.795  0.00  0.00    +0.000 A 
BRANCH  18  25
ATOM     24  C   UNL     1      11.987  15.480  17.248  0.00  0.00    +0.000 C 
ATOM     25  O   UNL     1      10.634  15.030  17.203  0.00  0.00    +0.000 OA
ENDBRANCH  18  25
BRANCH  23  26
ATOM     26  O   UNL     1       8.707  14.675  19.403  0.00  0.00    +0.000 OA
ATOM     27  C   UNL     1       7.905  14.348  20.526  0.00  0.00    +0.000 C 
ENDBRANCH  23  26
ENDBRANCH  17  21
ENDBRANCH   1  17
TORSDOF 7
ENDMDL
MODEL 3
REMARK VINA RESULT:      -7.6      6.236      9.121
REMARK  Name = 
REMARK  9 active torsions:
REMARK  status: ('A' for Active; 'I' for Inactive)
REMARK    1  A    between atoms: C_1  and  O_2
REMARK    2  A    between atoms: O_2  and  C_3
REMARK    3  A    between atoms: C_6  and  C_7
REMARK    4  A    between atoms: C_7  and  C_8
REMARK    5  A    between atoms: N_10  and  N_11
REMARK    6  A    between atoms: N_11  and  S_12
REMARK    7  A    between atoms: S_12  and  C_15
REMARK    8  A    between atoms: C_23  and  O_24
REMARK    9  A    between atoms: O_24  and  C_25
REMARK                            x       y       z     vdW  Elec       q    Type
REMARK                         _______ _______ _______ _____ _____    ______ ____
ROOT
ATOM      1  C   UNL     1       4.380   7.229  16.841  0.00  0.00    +0.000 C 
ATOM      2  O   UNL     1       4.440   7.418  15.625  0.00  0.00    +0.000 OA
ATOM      3  N   UNL     1       5.423   6.656  17.545  0.00  0.00    +0.000 N 
ATOM      4  H   UNL     1       5.469   6.645  18.563  0.00  0.00    +0.000 HD
ENDROOT
BRANCH   3   5
ATOM      5  N   UNL     1       6.624   6.284  16.808  0.00  0.00    +0.000 NA
ATOM      6  H   UNL     1       7.430   6.914  16.890  0.00  0.00    +0.000 HD
BRANCH   5   7
ATOM      7  S   UNL     1       6.885   4.641  16.515  0.00  0.00    +0.000 S 
ATOM      8  O   UNL     1       8.167   4.302  17.095  0.00  0.00    +0.000 OA
ATOM      9  O   UNL     1       5.686   3.930  16.900  0.00  0.00    +0.000 OA
BRANCH   7  10
ATOM     10  C   UNL     1       7.046   4.573  14.748  0.00  0.00    +0.000 A 
ATOM     11  C   UNL     1       6.160   3.787  14.003  0.00  0.00    +0.000 A 
ATOM     12  C   UNL     1       6.229   3.809  12.608  0.00  0.00    +0.000 A 
ATOM     13  C   UNL     1       7.170   4.617  11.977  0.00  0.00    +0.000 A 
ATOM     14  F   UNL     1       7.217   4.651  10.640  0.00  0.00    +0.000 F 
ATOM     15  C   UNL     1       8.053   5.402  12.713  0.00  0.00    +0.000 A 
ATOM     16  C   UNL     1       7.993   5.385  14.110  0.00  0.00    +0.000 A 
ENDBRANCH   7  10
ENDBRANCH   5   7
ENDBRANCH   3   5
BRANCH   1  17
ATOM     17  C   UNL     1       3.159   7.553  17.684  0.00  0.00    +0.000 C 
BRANCH  17  21
ATOM     18  C   UNL     1       1.373   4.352  20.011  0.00  0.00    +0.000 A 
ATOM     19  C   UNL     1       1.755   5.555  20.625  0.00  0.00    +0.000 A 
ATOM     20  C   UNL     1       2.360   6.583  19.894  0.00  0.00    +0.000 A 
ATOM     21  C   UNL     1       2.635   6.419  18.535  0.00  0.00    +0.000 A 
ATOM     22  C   UNL     1       2.322   5.186  17.944  0.00  0.00    +0.000 A 
ATOM     23  C   UNL     1       1.702   4.147  18.663  0.00  0.00    +0.000 A 
BRANCH  18  25
ATOM     24  C   UNL     1       1.459   2.702  21.715  0.00  0.00    +0.000 C 
ATOM     25  O   UNL     1       0.712   3.372  20.701  0.00  0.00    +0.000 OA
ENDBRANCH  18  25
BRANCH  23  26
ATOM     26  O   UNL     1       1.485   3.046  17.877  0.00  0.00    +0.000 OA
ATOM     27  C   UNL     1       2.515   2.083  17.727  0.00  0.00    +0.000 C 
ENDBRANCH  23  26
ENDBRANCH  17  21
ENDBRANCH   1  17
TORSDOF 7
ENDMDL
MODEL 4
REMARK VINA RESULT:      -7.5      1.282      1.450
REMARK  Name = 
REMARK  9 active torsions:
REMARK  status: ('A' for Active; 'I' for Inactive)
REMARK    1  A    between atoms: C_1  and  O_2
REMARK    2  A    between atoms: O_2  and  C_3
REMARK    3  A    between atoms: C_6  and  C_7
REMARK    4  A    between atoms: C_7  and  C_8
REMARK    5  A    between atoms: N_10  and  N_11
REMARK    6  A    between atoms: N_11  and  S_12
REMARK    7  A    between atoms: S_12  and  C_15
REMARK    8  A    between atoms: C_23  and  O_24
REMARK    9  A    between atoms: O_24  and  C_25
REMARK                            x       y       z     vdW  Elec       q    Type
REMARK                         _______ _______ _______ _____ _____    ______ ____
ROOT
ATOM      1  C   UNL     1       8.285   9.348  18.132  0.00  0.00    +0.000 C 
ATOM      2  O   UNL     1       7.605  10.145  17.482  0.00  0.00    +0.000 OA
ATOM      3  N   UNL     1       8.126   7.980  18.009  0.00  0.00    +0.000 N 
ATOM      4  H   UNL     1       8.781   7.305  18.400  0.00  0.00    +0.000 HD
ENDROOT
BRANCH   3   5
ATOM      5  N   UNL     1       7.129   7.489  17.066  0.00  0.00    +0.000 NA
ATOM      6  H   UNL     1       6.855   8.126  16.309  0.00  0.00    +0.000 HD
BRANCH   5   7
ATOM      7  S   UNL     1       7.046   5.820  16.813  0.00  0.00    +0.000 S 
ATOM      8  O   UNL     1       7.208   5.595  15.393  0.00  0.00    +0.000 OA
ATOM      9  O   UNL     1       7.927   5.187  17.770  0.00  0.00    +0.000 OA
BRANCH   7  10
ATOM     10  C   UNL     1       5.366   5.437  17.242  0.00  0.00    +0.000 A 
ATOM     11  C   UNL     1       4.518   6.456  17.691  0.00  0.00    +0.000 A 
ATOM     12  C   UNL     1       3.173   6.171  17.938  0.00  0.00    +0.000 A 
ATOM     13  C   UNL     1       2.691   4.882  17.725  0.00  0.00    +0.000 A 
ATOM     14  F   UNL     1       1.397   4.620  17.942  0.00  0.00    +0.000 F 
ATOM     15  C   UNL     1       3.530   3.866  17.277  0.00  0.00    +0.000 A 
ATOM     16  C   UNL     1       4.879   4.141  17.029  0.00  0.00    +0.000 A 
ENDBRANCH   7  10
ENDBRANCH   5   7
ENDBRANCH   3   5
BRANCH   1  17
ATOM     17  C   UNL     1       9.320   9.768  19.160  0.00  0.00    +0.000 C 
BRANCH  17  21
ATOM     18  C   UNL     1      10.715  13.825  18.497  0.00  0.00    +0.000 A 
ATOM     19  C   UNL     1      11.197  12.765  17.711  0.00  0.00    +0.000 A 
ATOM     20  C   UNL     1      10.780  11.449  17.934  0.00  0.00    +0.000 A 
ATOM     21  C   UNL     1       9.899  11.152  18.975  0.00  0.00    +0.000 A 
ATOM     22  C   UNL     1       9.481  12.203  19.805  0.00  0.00    +0.000 A 
ATOM     23  C   UNL     1       9.882  13.533  19.586  0.00  0.00    +0.000 A 
BRANCH  18  25
ATOM     24  C   UNL     1      11.070  15.512  16.865  0.00  0.00    +0.000 C 
ATOM     25  O   UNL     1      11.058  15.125  18.238  0.00  0.00    +0.000 OA
ENDBRANCH  18  25
BRANCH  23  26
ATOM     26  O   UNL     1       9.342  14.385  20.515  0.00  0.00    +0.000 OA
ATOM     27  C   UNL     1      10.142  14.833  21.597  0.00  0.00    +0.000 C 
ENDBRANCH  23  26
ENDBRANCH  17  21
ENDBRANCH   1  17
TORSDOF 7
ENDMDL
MODEL 5
REMARK VINA RESULT:      -7.5      6.278      7.631
REMARK  Name = 
REMARK  9 active torsions:
REMARK  status: ('A' for Active; 'I' for Inactive)
REMARK    1  A    between atoms: C_1  and  O_2
REMARK    2  A    between atoms: O_2  and  C_3
REMARK    3  A    between atoms: C_6  and  C_7
REMARK    4  A    between atoms: C_7  and  C_8
REMARK    5  A    between atoms: N_10  and  N_11
REMARK    6  A    between atoms: N_11  and  S_12
REMARK    7  A    between atoms: S_12  and  C_15
REMARK    8  A    between atoms: C_23  and  O_24
REMARK    9  A    between atoms: O_24  and  C_25
REMARK                            x       y       z     vdW  Elec       q    Type
REMARK                         _______ _______ _______ _____ _____    ______ ____
ROOT
ATOM      1  C   UNL     1       3.445   4.387  19.155  0.00  0.00    +0.000 C 
ATOM      2  O   UNL     1       3.110   3.603  18.265  0.00  0.00    +0.000 OA
ATOM      3  N   UNL     1       4.773   4.636  19.449  0.00  0.00    +0.000 N 
ATOM      4  H   UNL     1       5.078   5.397  20.055  0.00  0.00    +0.000 HD
ENDROOT
BRANCH   3   5
ATOM      5  N   UNL     1       5.789   3.949  18.661  0.00  0.00    +0.000 NA
ATOM      6  H   UNL     1       5.523   3.048  18.247  0.00  0.00    +0.000 HD
BRANCH   5   7
ATOM      7  S   UNL     1       6.959   4.897  17.895  0.00  0.00    +0.000 S 
ATOM      8  O   UNL     1       6.587   6.281  18.096  0.00  0.00    +0.000 OA
ATOM      9  O   UNL     1       8.258   4.411  18.308  0.00  0.00    +0.000 OA
BRANCH   7  10
ATOM     10  C   UNL     1       6.723   4.509  16.179  0.00  0.00    +0.000 A 
ATOM     11  C   UNL     1       5.680   3.655  15.801  0.00  0.00    +0.000 A 
ATOM     12  C   UNL     1       5.438   3.425  14.445  0.00  0.00    +0.000 A 
ATOM     13  C   UNL     1       6.229   4.054  13.487  0.00  0.00    +0.000 A 
ATOM     14  F   UNL     1       5.979   3.848  12.188  0.00  0.00    +0.000 F 
ATOM     15  C   UNL     1       7.266   4.905  13.858  0.00  0.00    +0.000 A 
ATOM     16  C   UNL     1       7.518   5.140  15.213  0.00  0.00    +0.000 A 
ENDBRANCH   7  10
ENDBRANCH   5   7
ENDBRANCH   3   5
BRANCH   1  17
ATOM     17  C   UNL     1       2.459   5.120  20.047  0.00  0.00    +0.000 C 
BRANCH  17  21
ATOM     18  C   UNL     1       1.442   9.213  19.020  0.00  0.00    +0.000 A 
ATOM     19  C   UNL     1       2.026   8.361  18.069  0.00  0.00    +0.000 A 
ATOM     20  C   UNL     1       2.387   7.050  18.395  0.00  0.00    +0.000 A 
ATOM     21  C   UNL     1       2.210   6.568  19.693  0.00  0.00    +0.000 A 
ATOM     22  C   UNL     1       1.697   7.447  20.658  0.00  0.00    +0.000 A 
ATOM     23  C   UNL     1       1.318   8.765  20.343  0.00  0.00    +0.000 A 
BRANCH  18  25
ATOM     24  C   UNL     1      -0.388  10.629  18.490  0.00  0.00    +0.000 C 
ATOM     25  O   UNL     1       1.015  10.472  18.691  0.00  0.00    +0.000 OA
ENDBRANCH  18  25
BRANCH  23  26
ATOM     26  O   UNL     1       0.837   9.430  21.441  0.00  0.00    +0.000 OA
ATOM     27  C   UNL     1      -0.355   8.977  22.061  0.00  0.00    +0.000 C 
ENDBRANCH  23  26
ENDBRANCH  17  21
ENDBRANCH   1  17
TORSDOF 7
ENDMDL
MODEL 6
REMARK VINA RESULT:      -7.5      5.623      8.773
REMARK  Name = 
REMARK  9 active torsions:
REMARK  status: ('A' for Active; 'I' for Inactive)
REMARK    1  A    between atoms: C_1  and  O_2
REMARK    2  A    between atoms: O_2  and  C_3
REMARK    3  A    between atoms: C_6  and  C_7
REMARK    4  A    between atoms: C_7  and  C_8
REMARK    5  A    between atoms: N_10  and  N_11
REMARK    6  A    between atoms: N_11  and  S_12
REMARK    7  A    between atoms: S_12  and  C_15
REMARK    8  A    between atoms: C_23  and  O_24
REMARK    9  A    between atoms: O_24  and  C_25
REMARK                            x       y       z     vdW  Elec       q    Type
REMARK                         _______ _______ _______ _____ _____    ______ ____
ROOT
ATOM      1  C   UNL     1       2.158   6.865  19.698  0.00  0.00    +0.000 C 
ATOM      2  O   UNL     1       2.265   5.902  20.461  0.00  0.00    +0.000 OA
ATOM      3  N   UNL     1       1.862   8.134  20.160  0.00  0.00    +0.000 N 
ATOM      4  H   UNL     1       1.936   8.970  19.581  0.00  0.00    +0.000 HD
ENDROOT
BRANCH   3   5
ATOM      5  N   UNL     1       1.688   8.318  21.595  0.00  0.00    +0.000 NA
ATOM      6  H   UNL     1       2.543   8.367  22.162  0.00  0.00    +0.000 HD
BRANCH   5   7
ATOM      7  S   UNL     1       0.302   9.130  22.119  0.00  0.00    +0.000 S 
ATOM      8  O   UNL     1      -0.806   8.208  21.991  0.00  0.00    +0.000 OA
ATOM      9  O   UNL     1       0.610   9.749  23.390  0.00  0.00    +0.000 OA
BRANCH   7  10
ATOM     10  C   UNL     1       0.102  10.402  20.897  0.00  0.00    +0.000 A 
ATOM     11  C   UNL     1       0.913  11.542  20.947  0.00  0.00    +0.000 A 
ATOM     12  C   UNL     1       0.819  12.497  19.933  0.00  0.00    +0.000 A 
ATOM     13  C   UNL     1      -0.072  12.300  18.881  0.00  0.00    +0.000 A 
ATOM     14  F   UNL     1      -0.143  13.208  17.900  0.00  0.00    +0.000 F 
ATOM     15  C   UNL     1      -0.880  11.168  18.826  0.00  0.00    +0.000 A 
ATOM     16  C   UNL     1      -0.794  10.207  19.838  0.00  0.00    +0.000 A 
ENDBRANCH   7  10
ENDBRANCH   5   7
ENDBRANCH   3   5
BRANCH   1  17
ATOM     17  C   UNL     1       2.288   6.762  18.189  0.00  0.00    +0.000 C 
BRANCH  17  21
ATOM     18  C   UNL     1       5.807   4.893  16.466  0.00  0.00    +0.000 A 
ATOM     19  C   UNL     1       4.697   4.120  16.840  0.00  0.00    +0.000 A 
ATOM     20  C   UNL     1       3.569   4.704  17.425  0.00  0.00    +0.000 A 
ATOM     21  C   UNL     1       3.537   6.074  17.688  0.00  0.00    +0.000 A 
ATOM     22  C   UNL     1       4.679   6.831  17.383  0.00  0.00    +0.000 A 
ATOM     23  C   UNL     1       5.816   6.259  16.783  0.00  0.00    +0.000 A 
BRANCH  18  25
ATOM     24  C   UNL     1       6.879   4.426  14.400  0.00  0.00    +0.000 C 
ATOM     25  O   UNL     1       6.884   4.342  15.824  0.00  0.00    +0.000 OA
ENDBRANCH  18  25
BRANCH  23  26
ATOM     26  O   UNL     1       6.799   7.191  16.571  0.00  0.00    +0.000 OA
ATOM     27  C   UNL     1       7.631   7.583  17.650  0.00  0.00    +0.000 C 
ENDBRANCH  23  26
ENDBRANCH  17  21
ENDBRANCH   1  17
TORSDOF 7
ENDMDL
MODEL 7
REMARK VINA RESULT:      -7.3      1.618      1.942
REMARK  Name = 
REMARK  9 active torsions:
REMARK  status: ('A' for Active; 'I' for Inactive)
REMARK    1  A    between atoms: C_1  and  O_2
REMARK    2  A    between atoms: O_2  and  C_3
REMARK    3  A    between atoms: C_6  and  C_7
REMARK    4  A    between atoms: C_7  and  C_8
REMARK    5  A    between atoms: N_10  and  N_11
REMARK    6  A    between atoms: N_11  and  S_12
REMARK    7  A    between atoms: S_12  and  C_15
REMARK    8  A    between atoms: C_23  and  O_24
REMARK    9  A    between atoms: O_24  and  C_25
REMARK                            x       y       z     vdW  Elec       q    Type
REMARK                         _______ _______ _______ _____ _____    ______ ____
ROOT
ATOM      1  C   UNL     1       8.048   8.910  17.979  0.00  0.00    +0.000 C 
ATOM      2  O   UNL     1       7.387   9.786  17.417  0.00  0.00    +0.000 OA
ATOM      3  N   UNL     1       7.876   7.568  17.693  0.00  0.00    +0.000 N 
ATOM      4  H   UNL     1       8.518   6.843  18.011  0.00  0.00    +0.000 HD
ENDROOT
BRANCH   3   5
ATOM      5  N   UNL     1       6.888   7.203  16.686  0.00  0.00    +0.000 NA
ATOM      6  H   UNL     1       6.684   7.903  15.963  0.00  0.00    +0.000 HD
BRANCH   5   7
ATOM      7  S   UNL     1       6.711   5.563  16.322  0.00  0.00    +0.000 S 
ATOM      8  O   UNL     1       6.650   5.450  14.880  0.00  0.00    +0.000 OA
ATOM      9  O   UNL     1       7.703   4.834  17.081  0.00  0.00    +0.000 OA
BRANCH   7  10
ATOM     10  C   UNL     1       5.103   5.183  16.971  0.00  0.00    +0.000 A 
ATOM     11  C   UNL     1       4.345   6.194  17.574  0.00  0.00    +0.000 A 
ATOM     12  C   UNL     1       3.044   5.916  18.000  0.00  0.00    +0.000 A 
ATOM     13  C   UNL     1       2.515   4.643  17.811  0.00  0.00    +0.000 A 
ATOM     14  F   UNL     1       1.259   4.387  18.200  0.00  0.00    +0.000 F 
ATOM     15  C   UNL     1       3.263   3.635  17.210  0.00  0.00    +0.000 A 
ATOM     16  C   UNL     1       4.567   3.903  16.783  0.00  0.00    +0.000 A 
ENDBRANCH   7  10
ENDBRANCH   5   7
ENDBRANCH   3   5
BRANCH   1  17
ATOM     17  C   UNL     1       9.073   9.193  19.063  0.00  0.00    +0.000 C 
BRANCH  17  21
ATOM     18  C   UNL     1      10.307  13.353  19.192  0.00  0.00    +0.000 A 
ATOM     19  C   UNL     1      10.396  12.618  17.999  0.00  0.00    +0.000 A 
ATOM     20  C   UNL     1      10.031  11.268  17.950  0.00  0.00    +0.000 A 
ATOM     21  C   UNL     1       9.605  10.608  19.104  0.00  0.00    +0.000 A 
ATOM     22  C   UNL     1       9.591  11.327  20.308  0.00  0.00    +0.000 A 
ATOM     23  C   UNL     1       9.944  12.687  20.371  0.00  0.00    +0.000 A 
BRANCH  18  25
ATOM     24  C   UNL     1      11.921  15.067  18.885  0.00  0.00    +0.000 C 
ATOM     25  O   UNL     1      10.589  14.693  19.232  0.00  0.00    +0.000 OA
ENDBRANCH  18  25
BRANCH  23  26
ATOM     26  O   UNL     1       9.845  13.178  21.647  0.00  0.00    +0.000 OA
ATOM     27  C   UNL     1       8.724  12.828  22.442  0.00  0.00    +0.000 C 
ENDBRANCH  23  26
ENDBRANCH  17  21
ENDBRANCH   1  17
TORSDOF 7
ENDMDL
MODEL 8
REMARK VINA RESULT:      -7.3      1.006      1.353
REMARK  Name = 
REMARK  9 active torsions:
REMARK  status: ('A' for Active; 'I' for Inactive)
REMARK    1  A    between atoms: C_1  and  O_2
REMARK    2  A    between atoms: O_2  and  C_3
REMARK    3  A    between atoms: C_6  and  C_7
REMARK    4  A    between atoms: C_7  and  C_8
REMARK    5  A    between atoms: N_10  and  N_11
REMARK    6  A    between atoms: N_11  and  S_12
REMARK    7  A    between atoms: S_12  and  C_15
REMARK    8  A    between atoms: C_23  and  O_24
REMARK    9  A    between atoms: O_24  and  C_25
REMARK                            x       y       z     vdW  Elec       q    Type
REMARK                         _______ _______ _______ _____ _____    ______ ____
ROOT
ATOM      1  C   UNL     1       8.435   9.039  18.435  0.00  0.00    +0.000 C 
ATOM      2  O   UNL     1       7.736   9.606  17.592  0.00  0.00    +0.000 OA
ATOM      3  N   UNL     1       8.398   7.668  18.613  0.00  0.00    +0.000 N 
ATOM      4  H   UNL     1       9.079   7.160  19.175  0.00  0.00    +0.000 HD
ENDROOT
BRANCH   3   5
ATOM      5  N   UNL     1       7.509   6.891  17.759  0.00  0.00    +0.000 NA
ATOM      6  H   UNL     1       7.371   7.234  16.801  0.00  0.00    +0.000 HD
BRANCH   5   7
ATOM      7  S   UNL     1       7.370   5.236  18.072  0.00  0.00    +0.000 S 
ATOM      8  O   UNL     1       7.973   4.539  16.957  0.00  0.00    +0.000 OA
ATOM      9  O   UNL     1       7.828   5.006  19.425  0.00  0.00    +0.000 OA
BRANCH   7  10
ATOM     10  C   UNL     1       5.617   4.965  18.007  0.00  0.00    +0.000 A 
ATOM     11  C   UNL     1       4.769   5.732  18.814  0.00  0.00    +0.000 A 
ATOM     12  C   UNL     1       3.386   5.583  18.694  0.00  0.00    +0.000 A 
ATOM     13  C   UNL     1       2.868   4.681  17.768  0.00  0.00    +0.000 A 
ATOM     14  F   UNL     1       1.541   4.557  17.641  0.00  0.00    +0.000 F 
ATOM     15  C   UNL     1       3.707   3.916  16.963  0.00  0.00    +0.000 A 
ATOM     16  C   UNL     1       5.094   4.057  17.077  0.00  0.00    +0.000 A 
ENDBRANCH   7  10
ENDBRANCH   5   7
ENDBRANCH   3   5
BRANCH   1  17
ATOM     17  C   UNL     1       9.363   9.769  19.390  0.00  0.00    +0.000 C 
BRANCH  17  21
ATOM     18  C   UNL     1       9.813  13.969  18.387  0.00  0.00    +0.000 A 
ATOM     19  C   UNL     1      10.264  12.971  17.508  0.00  0.00    +0.000 A 
ATOM     20  C   UNL     1      10.154  11.615  17.832  0.00  0.00    +0.000 A 
ATOM     21  C   UNL     1       9.624  11.221  19.062  0.00  0.00    +0.000 A 
ATOM     22  C   UNL     1       9.246  12.223  19.968  0.00  0.00    +0.000 A 
ATOM     23  C   UNL     1       9.340  13.591  19.652  0.00  0.00    +0.000 A 
BRANCH  18  25
ATOM     24  C   UNL     1       8.596  15.889  17.703  0.00  0.00    +0.000 C 
ATOM     25  O   UNL     1       9.847  15.295  18.047  0.00  0.00    +0.000 OA
ENDBRANCH  18  25
BRANCH  23  26
ATOM     26  O   UNL     1       8.905  14.380  20.685  0.00  0.00    +0.000 OA
ATOM     27  C   UNL     1       8.543  13.778  21.917  0.00  0.00    +0.000 C 
ENDBRANCH  23  26
ENDBRANCH  17  21
ENDBRANCH   1  17
TORSDOF 7
ENDMDL
MODEL 9
REMARK VINA RESULT:      -7.3      2.128      2.316
REMARK  Name = 
REMARK  9 active torsions:
REMARK  status: ('A' for Active; 'I' for Inactive)
REMARK    1  A    between atoms: C_1  and  O_2
REMARK    2  A    between atoms: O_2  and  C_3
REMARK    3  A    between atoms: C_6  and  C_7
REMARK    4  A    between atoms: C_7  and  C_8
REMARK    5  A    between atoms: N_10  and  N_11
REMARK    6  A    between atoms: N_11  and  S_12
REMARK    7  A    between atoms: S_12  and  C_15
REMARK    8  A    between atoms: C_23  and  O_24
REMARK    9  A    between atoms: O_24  and  C_25
REMARK                            x       y       z     vdW  Elec       q    Type
REMARK                         _______ _______ _______ _____ _____    ______ ____
ROOT
ATOM      1  C   UNL     1       8.234   8.629  18.130  0.00  0.00    +0.000 C 
ATOM      2  O   UNL     1       8.898   8.140  19.046  0.00  0.00    +0.000 OA
ATOM      3  N   UNL     1       7.373   7.867  17.363  0.00  0.00    +0.000 N 
ATOM      4  H   UNL     1       6.692   8.271  16.721  0.00  0.00    +0.000 HD
ENDROOT
BRANCH   3   5
ATOM      5  N   UNL     1       7.252   6.448  17.674  0.00  0.00    +0.000 NA
ATOM      6  H   UNL     1       7.098   6.202  18.659  0.00  0.00    +0.000 HD
BRANCH   5   7
ATOM      7  S   UNL     1       6.658   5.429  16.464  0.00  0.00    +0.000 S 
ATOM      8  O   UNL     1       5.983   6.265  15.495  0.00  0.00    +0.000 OA
ATOM      9  O   UNL     1       7.735   4.551  16.063  0.00  0.00    +0.000 OA
BRANCH   7  10
ATOM     10  C   UNL     1       5.429   4.474  17.317  0.00  0.00    +0.000 A 
ATOM     11  C   UNL     1       5.570   4.234  18.689  0.00  0.00    +0.000 A 
ATOM     12  C   UNL     1       4.557   3.563  19.377  0.00  0.00    +0.000 A 
ATOM     13  C   UNL     1       3.416   3.150  18.693  0.00  0.00    +0.000 A 
ATOM     14  F   UNL     1       2.438   2.528  19.361  0.00  0.00    +0.000 F 
ATOM     15  C   UNL     1       3.270   3.388  17.330  0.00  0.00    +0.000 A 
ATOM     16  C   UNL     1       4.281   4.058  16.632  0.00  0.00    +0.000 A 
ENDBRANCH   7  10
ENDBRANCH   5   7
ENDBRANCH   3   5
BRANCH   1  17
ATOM     17  C   UNL     1       8.320  10.087  17.714  0.00  0.00    +0.000 C 
BRANCH  17  21
ATOM     18  C   UNL     1      11.395  12.604  19.461  0.00  0.00    +0.000 A 
ATOM     19  C   UNL     1      11.517  12.137  18.143  0.00  0.00    +0.000 A 
ATOM     20  C   UNL     1      10.549  11.300  17.578  0.00  0.00    +0.000 A 
ATOM     21  C   UNL     1       9.453  10.876  18.330  0.00  0.00    +0.000 A 
ATOM     22  C   UNL     1       9.376  11.283  19.670  0.00  0.00    +0.000 A 
ATOM     23  C   UNL     1      10.334  12.135  20.249  0.00  0.00    +0.000 A 
BRANCH  18  25
ATOM     24  C   UNL     1      12.333  14.784  19.412  0.00  0.00    +0.000 C 
ATOM     25  O   UNL     1      12.296  13.484  19.998  0.00  0.00    +0.000 OA
ENDBRANCH  18  25
BRANCH  23  26
ATOM     26  O   UNL     1      10.046  12.403  21.562  0.00  0.00    +0.000 OA
ATOM     27  C   UNL     1       9.098  13.411  21.874  0.00  0.00    +0.000 C 
ENDBRANCH  23  26
ENDBRANCH  17  21
ENDBRANCH   1  17
TORSDOF 7
ENDMDL
