MODEL 1
REMARK VINA RESULT:      -7.8      0.000      0.000
REMARK  Name = 
REMARK  5 active torsions:
REMARK  status: ('A' for Active; 'I' for Inactive)
REMARK    1  A    between atoms: C_1  and  O_2
REMARK    2  A    between atoms: O_2  and  C_3
REMARK    3  A    between atoms: C_12  and  C_13
REMARK    4  A    between atoms: C_14  and  C_15
REMARK    5  A    between atoms: N_18  and  C_19
REMARK                            x       y       z     vdW  Elec       q    Type
REMARK                         _______ _______ _______ _____ _____    ______ ____
ROOT
ATOM      1  C   UNL     1       4.493   5.865  17.175  0.00  0.00    +0.000 A 
ATOM      2  C   UNL     1       4.957   4.680  16.600  0.00  0.00    +0.000 A 
ATOM      3  C   UNL     1       4.315   3.471  16.844  0.00  0.00    +0.000 A 
ATOM      4  C   UNL     1       3.197   3.410  17.677  0.00  0.00    +0.000 A 
ATOM      5  C   UNL     1       2.611   2.161  17.935  0.00  0.00    +0.000 A 
ATOM      6  C   UNL     1       1.506   2.042  18.771  0.00  0.00    +0.000 A 
ATOM      7  C   UNL     1       0.960   3.181  19.340  0.00  0.00    +0.000 A 
ATOM      8  C   UNL     1       1.525   4.434  19.076  0.00  0.00    +0.000 A 
ATOM      9  C   UNL     1       2.677   4.597  18.258  0.00  0.00    +0.000 A 
ATOM     10  C   UNL     1       3.337   5.852  17.994  0.00  0.00    +0.000 A 
ENDROOT
BRANCH   1  12
ATOM     11  C   UNL     1       6.587   6.993  17.260  0.00  0.00    +0.000 C 
ATOM     12  O   UNL     1       5.181   7.048  17.045  0.00  0.00    +0.000 OA
ENDBRANCH   1  12
BRANCH  10  13
ATOM     13  C   UNL     1       2.827   7.089  18.661  0.00  0.00    +0.000 C 
ATOM     14  C   UNL     1       2.076   8.062  18.114  0.00  0.00    +0.000 C 
BRANCH  14  15
ATOM     15  C   UNL     1       1.564   9.229  18.852  0.00  0.00    +0.000 A 
ATOM     16  C   UNL     1       1.520  10.513  18.310  0.00  0.00    +0.000 A 
ATOM     17  C   UNL     1       1.052  11.576  19.071  0.00  0.00    +0.000 A 
ATOM     18  N   UNL     1       0.620  11.386  20.335  0.00  0.00    +0.000 N 
ATOM     19  C   UNL     1       0.186  12.530  21.148  0.00  0.00    +0.000 C 
ATOM     20  C   UNL     1       0.596  10.145  20.869  0.00  0.00    +0.000 A 
ATOM     21  C   UNL     1       1.074   9.059  20.149  0.00  0.00    +0.000 A 
ENDBRANCH  14  15
ENDBRANCH  10  13
TORSDOF 3
ENDMDL
MODEL 2
REMARK VINA RESULT:      -7.8      0.224      1.052
REMARK  Name = 
REMARK  5 active torsions:
REMARK  status: ('A' for Active; 'I' for Inactive)
REMARK    1  A    between atoms: C_1  and  O_2
REMARK    2  A    between atoms: O_2  and  C_3
REMARK    3  A    between atoms: C_12  and  C_13
REMARK    4  A    between atoms: C_14  and  C_15
REMARK    5  A    between atoms: N_18  and  C_19
REMARK                            x       y       z     vdW  Elec       q    Type
REMARK                         _______ _______ _______ _____ _____    ______ ____
ROOT
ATOM      1  C   UNL     1       4.575   5.853  17.063  0.00  0.00    +0.000 A 
ATOM      2  C   UNL     1       5.029   4.659  16.497  0.00  0.00    +0.000 A 
ATOM      3  C   UNL     1       4.369   3.460  16.740  0.00  0.00    +0.000 A 
ATOM      4  C   UNL     1       3.243   3.416  17.562  0.00  0.00    +0.000 A 
ATOM      5  C   UNL     1       2.638   2.176  17.820  0.00  0.00    +0.000 A 
ATOM      6  C   UNL     1       1.525   2.075  18.646  0.00  0.00    +0.000 A 
ATOM      7  C   UNL     1       0.987   3.223  19.204  0.00  0.00    +0.000 A 
ATOM      8  C   UNL     1       1.571   4.468  18.941  0.00  0.00    +0.000 A 
ATOM      9  C   UNL     1       2.732   4.613  18.133  0.00  0.00    +0.000 A 
ATOM     10  C   UNL     1       3.411   5.858  17.871  0.00  0.00    +0.000 A 
ENDROOT
BRANCH   1  12
ATOM     11  C   UNL     1       6.654   6.987  17.302  0.00  0.00    +0.000 C 
ATOM     12  O   UNL     1       5.279   7.026  16.934  0.00  0.00    +0.000 OA
ENDBRANCH   1  12
BRANCH  10  13
ATOM     13  C   UNL     1       2.911   7.105  18.527  0.00  0.00    +0.000 C 
ATOM     14  C   UNL     1       2.133   8.058  17.984  0.00  0.00    +0.000 C 
BRANCH  14  15
ATOM     15  C   UNL     1       1.634   9.237  18.715  0.00  0.00    +0.000 A 
ATOM     16  C   UNL     1       1.049   9.157  19.978  0.00  0.00    +0.000 A 
ATOM     17  C   UNL     1       0.571  10.304  20.599  0.00  0.00    +0.000 A 
ATOM     18  N   UNL     1       0.679  11.510  20.003  0.00  0.00    +0.000 N 
ATOM     19  C   UNL     1       0.115  12.705  20.646  0.00  0.00    +0.000 C 
ATOM     20  C   UNL     1       1.293  11.627  18.805  0.00  0.00    +0.000 A 
ATOM     21  C   UNL     1       1.765  10.503  18.143  0.00  0.00    +0.000 A 
ENDBRANCH  14  15
ENDBRANCH  10  13
TORSDOF 3
ENDMDL
MODEL 3
REMARK VINA RESULT:      -7.5      1.693      3.600
REMARK  Name = 
REMARK  5 active torsions:
REMARK  status: ('A' for Active; 'I' for Inactive)
REMARK    1  A    between atoms: C_1  and  O_2
REMARK    2  A    between atoms: O_2  and  C_3
REMARK    3  A    between atoms: C_12  and  C_13
REMARK    4  A    between atoms: C_14  and  C_15
REMARK    5  A    between atoms: N_18  and  C_19
REMARK                            x       y       z     vdW  Elec       q    Type
REMARK                         _______ _______ _______ _____ _____    ______ ____
ROOT
ATOM      1  C   UNL     1       2.178   3.866  18.797  0.00  0.00    +0.000 A 
ATOM      2  C   UNL     1       2.788   2.706  18.312  0.00  0.00    +0.000 A 
ATOM      3  C   UNL     1       3.850   2.781  17.418  0.00  0.00    +0.000 A 
ATOM      4  C   UNL     1       4.327   4.014  16.974  0.00  0.00    +0.000 A 
ATOM      5  C   UNL     1       5.368   4.041  16.033  0.00  0.00    +0.000 A 
ATOM      6  C   UNL     1       5.868   5.243  15.545  0.00  0.00    +0.000 A 
ATOM      7  C   UNL     1       5.346   6.437  16.016  0.00  0.00    +0.000 A 
ATOM      8  C   UNL     1       4.320   6.423  16.968  0.00  0.00    +0.000 A 
ATOM      9  C   UNL     1       3.753   5.218  17.465  0.00  0.00    +0.000 A 
ATOM     10  C   UNL     1       2.659   5.139  18.402  0.00  0.00    +0.000 A 
ENDROOT
BRANCH   1  12
ATOM     11  C   UNL     1       1.197   3.193  20.857  0.00  0.00    +0.000 C 
ATOM     12  O   UNL     1       1.054   3.814  19.585  0.00  0.00    +0.000 OA
ENDBRANCH   1  12
BRANCH  10  13
ATOM     13  C   UNL     1       2.014   6.405  18.866  0.00  0.00    +0.000 C 
ATOM     14  C   UNL     1       2.158   7.006  20.060  0.00  0.00    +0.000 C 
BRANCH  14  15
ATOM     15  C   UNL     1       1.528   8.288  20.426  0.00  0.00    +0.000 A 
ATOM     16  C   UNL     1       1.222   8.637  21.740  0.00  0.00    +0.000 A 
ATOM     17  C   UNL     1       0.602   9.849  22.013  0.00  0.00    +0.000 A 
ATOM     18  N   UNL     1       0.301  10.712  21.021  0.00  0.00    +0.000 N 
ATOM     19  C   UNL     1      -0.410  11.963  21.319  0.00  0.00    +0.000 C 
ATOM     20  C   UNL     1       0.637  10.428  19.743  0.00  0.00    +0.000 A 
ATOM     21  C   UNL     1       1.239   9.219  19.426  0.00  0.00    +0.000 A 
ENDBRANCH  14  15
ENDBRANCH  10  13
TORSDOF 3
ENDMDL
MODEL 4
REMARK VINA RESULT:      -7.5      0.751      1.345
REMARK  Name = 
REMARK  5 active torsions:
REMARK  status: ('A' for Active; 'I' for Inactive)
REMARK    1  A    between atoms: C_1  and  O_2
REMARK    2  A    between atoms: O_2  and  C_3
REMARK    3  A    between atoms: C_12  and  C_13
REMARK    4  A    between atoms: C_14  and  C_15
REMARK    5  A    between atoms: N_18  and  C_19
REMARK                            x       y       z     vdW  Elec       q    Type
REMARK                         _______ _______ _______ _____ _____    ______ ____
ROOT
ATOM      1  C   UNL     1       4.451   5.880  17.319  0.00  0.00    +0.000 A 
ATOM      2  C   UNL     1       5.133   4.752  16.856  0.00  0.00    +0.000 A 
ATOM      3  C   UNL     1       4.604   3.478  17.032  0.00  0.00    +0.000 A 
ATOM      4  C   UNL     1       3.385   3.293  17.684  0.00  0.00    +0.000 A 
ATOM      5  C   UNL     1       2.913   1.986  17.883  0.00  0.00    +0.000 A 
ATOM      6  C   UNL     1       1.713   1.746  18.542  0.00  0.00    +0.000 A 
ATOM      7  C   UNL     1       0.956   2.818  18.987  0.00  0.00    +0.000 A 
ATOM      8  C   UNL     1       1.407   4.126  18.778  0.00  0.00    +0.000 A 
ATOM      9  C   UNL     1       2.646   4.416  18.143  0.00  0.00    +0.000 A 
ATOM     10  C   UNL     1       3.190   5.738  17.949  0.00  0.00    +0.000 A 
ENDROOT
BRANCH   1  12
ATOM     11  C   UNL     1       6.431   7.197  17.240  0.00  0.00    +0.000 C 
ATOM     12  O   UNL     1       5.010   7.134  17.263  0.00  0.00    +0.000 OA
ENDBRANCH   1  12
BRANCH  10  13
ATOM     13  C   UNL     1       2.443   6.913  18.494  0.00  0.00    +0.000 C 
ATOM     14  C   UNL     1       2.237   7.222  19.786  0.00  0.00    +0.000 C 
BRANCH  14  15
ATOM     15  C   UNL     1       1.534   8.432  20.248  0.00  0.00    +0.000 A 
ATOM     16  C   UNL     1       1.242   8.677  21.589  0.00  0.00    +0.000 A 
ATOM     17  C   UNL     1       0.549   9.824  21.954  0.00  0.00    +0.000 A 
ATOM     18  N   UNL     1       0.162  10.724  21.026  0.00  0.00    +0.000 N 
ATOM     19  C   UNL     1      -0.622  11.902  21.420  0.00  0.00    +0.000 C 
ATOM     20  C   UNL     1       0.481  10.544  19.725  0.00  0.00    +0.000 A 
ATOM     21  C   UNL     1       1.154   9.401  19.317  0.00  0.00    +0.000 A 
ENDBRANCH  14  15
ENDBRANCH  10  13
TORSDOF 3
ENDMDL
MODEL 5
REMARK VINA RESULT:      -7.5      1.739      3.477
REMARK  Name = 
REMARK  5 active torsions:
REMARK  status: ('A' for Active; 'I' for Inactive)
REMARK    1  A    between atoms: C_1  and  O_2
REMARK    2  A    between atoms: O_2  and  C_3
REMARK    3  A    between atoms: C_12  and  C_13
REMARK    4  A    between atoms: C_14  and  C_15
REMARK    5  A    between atoms: N_18  and  C_19
REMARK                            x       y       z     vdW  Elec       q    Type
REMARK                         _______ _______ _______ _____ _____    ______ ____
ROOT
ATOM      1  C   UNL     1       2.126   3.750  18.926  0.00  0.00    +0.000 A 
ATOM      2  C   UNL     1       2.764   2.608  18.435  0.00  0.00    +0.000 A 
ATOM      3  C   UNL     1       3.808   2.713  17.523  0.00  0.00    +0.000 A 
ATOM      4  C   UNL     1       4.238   3.959  17.067  0.00  0.00    +0.000 A 
ATOM      5  C   UNL     1       5.263   4.015  16.109  0.00  0.00    +0.000 A 
ATOM      6  C   UNL     1       5.717   5.231  15.609  0.00  0.00    +0.000 A 
ATOM      7  C   UNL     1       5.165   6.409  16.085  0.00  0.00    +0.000 A 
ATOM      8  C   UNL     1       4.155   6.367  17.054  0.00  0.00    +0.000 A 
ATOM      9  C   UNL     1       3.635   5.146  17.564  0.00  0.00    +0.000 A 
ATOM     10  C   UNL     1       2.560   5.036  18.520  0.00  0.00    +0.000 A 
ENDROOT
BRANCH   1  12
ATOM     11  C   UNL     1       1.185   2.998  20.979  0.00  0.00    +0.000 C 
ATOM     12  O   UNL     1       1.017   3.666  19.733  0.00  0.00    +0.000 OA
ENDBRANCH   1  12
BRANCH  10  13
ATOM     13  C   UNL     1       1.883   6.283  18.989  0.00  0.00    +0.000 C 
ATOM     14  C   UNL     1       2.217   7.046  20.045  0.00  0.00    +0.000 C 
BRANCH  14  15
ATOM     15  C   UNL     1       1.531   8.297  20.415  0.00  0.00    +0.000 A 
ATOM     16  C   UNL     1       1.191   9.281  19.488  0.00  0.00    +0.000 A 
ATOM     17  C   UNL     1       0.572  10.451  19.908  0.00  0.00    +0.000 A 
ATOM     18  N   UNL     1       0.275  10.649  21.209  0.00  0.00    +0.000 N 
ATOM     19  C   UNL     1      -0.325  11.917  21.646  0.00  0.00    +0.000 C 
ATOM     20  C   UNL     1       0.539   9.690  22.123  0.00  0.00    +0.000 A 
ATOM     21  C   UNL     1       1.176   8.515  21.748  0.00  0.00    +0.000 A 
ENDBRANCH  14  15
ENDBRANCH  10  13
TORSDOF 3
ENDMDL
MODEL 6
REMARK VINA RESULT:      -7.4      1.184      1.214
REMARK  Name = 
REMARK  5 active torsions:
REMARK  status: ('A' for Active; 'I' for Inactive)
REMARK    1  A    between atoms: C_1  and  O_2
REMARK    2  A    between atoms: O_2  and  C_3
REMARK    3  A    between atoms: C_12  and  C_13
REMARK    4  A    between atoms: C_14  and  C_15
REMARK    5  A    between atoms: N_18  and  C_19
REMARK                            x       y       z     vdW  Elec       q    Type
REMARK                         _______ _______ _______ _____ _____    ______ ____
ROOT
ATOM      1  C   UNL     1       4.303   5.830  17.370  0.00  0.00    +0.000 A 
ATOM      2  C   UNL     1       4.756   4.526  17.156  0.00  0.00    +0.000 A 
ATOM      3  C   UNL     1       4.146   3.448  17.786  0.00  0.00    +0.000 A 
ATOM      4  C   UNL     1       3.072   3.641  18.655  0.00  0.00    +0.000 A 
ATOM      5  C   UNL     1       2.518   2.528  19.308  0.00  0.00    +0.000 A 
ATOM      6  C   UNL     1       1.458   2.667  20.196  0.00  0.00    +0.000 A 
ATOM      7  C   UNL     1       0.922   3.925  20.422  0.00  0.00    +0.000 A 
ATOM      8  C   UNL     1       1.455   5.040  19.764  0.00  0.00    +0.000 A 
ATOM      9  C   UNL     1       2.562   4.948  18.877  0.00  0.00    +0.000 A 
ATOM     10  C   UNL     1       3.189   6.065  18.213  0.00  0.00    +0.000 A 
ENDROOT
BRANCH   1  12
ATOM     11  C   UNL     1       6.356   7.013  17.143  0.00  0.00    +0.000 C 
ATOM     12  O   UNL     1       4.965   6.918  16.854  0.00  0.00    +0.000 OA
ENDBRANCH   1  12
BRANCH  10  13
ATOM     13  C   UNL     1       2.693   7.446  18.501  0.00  0.00    +0.000 C 
ATOM     14  C   UNL     1       1.965   8.237  17.693  0.00  0.00    +0.000 C 
BRANCH  14  15
ATOM     15  C   UNL     1       1.465   9.571  18.070  0.00  0.00    +0.000 A 
ATOM     16  C   UNL     1       2.288  10.692  18.167  0.00  0.00    +0.000 A 
ATOM     17  C   UNL     1       1.758  11.915  18.556  0.00  0.00    +0.000 A 
ATOM     18  N   UNL     1       0.443  12.045  18.829  0.00  0.00    +0.000 N 
ATOM     19  C   UNL     1      -0.091  13.331  19.297  0.00  0.00    +0.000 C 
ATOM     20  C   UNL     1      -0.390  10.991  18.688  0.00  0.00    +0.000 A 
ATOM     21  C   UNL     1       0.103   9.747  18.321  0.00  0.00    +0.000 A 
ENDBRANCH  14  15
ENDBRANCH  10  13
TORSDOF 3
ENDMDL
MODEL 7
REMARK VINA RESULT:      -7.4      1.472      3.307
REMARK  Name = 
REMARK  5 active torsions:
REMARK  status: ('A' for Active; 'I' for Inactive)
REMARK    1  A    between atoms: C_1  and  O_2
REMARK    2  A    between atoms: O_2  and  C_3
REMARK    3  A    between atoms: C_12  and  C_13
REMARK    4  A    between atoms: C_14  and  C_15
REMARK    5  A    between atoms: N_18  and  C_19
REMARK                            x       y       z     vdW  Elec       q    Type
REMARK                         _______ _______ _______ _____ _____    ______ ____
ROOT
ATOM      1  C   UNL     1       2.331   4.287  18.989  0.00  0.00    +0.000 A 
ATOM      2  C   UNL     1       2.724   3.053  18.465  0.00  0.00    +0.000 A 
ATOM      3  C   UNL     1       3.687   2.978  17.465  0.00  0.00    +0.000 A 
ATOM      4  C   UNL     1       4.280   4.132  16.954  0.00  0.00    +0.000 A 
ATOM      5  C   UNL     1       5.212   4.012  15.911  0.00  0.00    +0.000 A 
ATOM      6  C   UNL     1       5.818   5.133  15.354  0.00  0.00    +0.000 A 
ATOM      7  C   UNL     1       5.516   6.388  15.855  0.00  0.00    +0.000 A 
ATOM      8  C   UNL     1       4.601   6.519  16.907  0.00  0.00    +0.000 A 
ATOM      9  C   UNL     1       3.930   5.405  17.480  0.00  0.00    +0.000 A 
ATOM     10  C   UNL     1       2.938   5.480  18.525  0.00  0.00    +0.000 A 
ENDROOT
BRANCH   1  12
ATOM     11  C   UNL     1       1.282   3.449  20.953  0.00  0.00    +0.000 C 
ATOM     12  O   UNL     1       1.298   4.393  19.888  0.00  0.00    +0.000 OA
ENDBRANCH   1  12
BRANCH  10  13
ATOM     13  C   UNL     1       2.523   6.825  19.030  0.00  0.00    +0.000 C 
ATOM     14  C   UNL     1       2.011   7.842  18.316  0.00  0.00    +0.000 C 
BRANCH  14  15
ATOM     15  C   UNL     1       1.573   9.125  18.895  0.00  0.00    +0.000 A 
ATOM     16  C   UNL     1       1.693  10.342  18.226  0.00  0.00    +0.000 A 
ATOM     17  C   UNL     1       1.288  11.519  18.842  0.00  0.00    +0.000 A 
ATOM     18  N   UNL     1       0.759  11.505  20.083  0.00  0.00    +0.000 N 
ATOM     19  C   UNL     1       0.391  12.765  20.744  0.00  0.00    +0.000 C 
ATOM     20  C   UNL     1       0.575  10.336  20.733  0.00  0.00    +0.000 A 
ATOM     21  C   UNL     1       0.985   9.140  20.162  0.00  0.00    +0.000 A 
ENDBRANCH  14  15
ENDBRANCH  10  13
TORSDOF 3
ENDMDL
MODEL 8
REMARK VINA RESULT:      -7.3      1.507      3.430
REMARK  Name = 
REMARK  5 active torsions:
REMARK  status: ('A' for Active; 'I' for Inactive)
REMARK    1  A    between atoms: C_1  and  O_2
REMARK    2  A    between atoms: O_2  and  C_3
REMARK    3  A    between atoms: C_12  and  C_13
REMARK    4  A    between atoms: C_14  and  C_15
REMARK    5  A    between atoms: N_18  and  C_19
REMARK                            x       y       z     vdW  Elec       q    Type
REMARK                         _______ _______ _______ _____ _____    ______ ____
ROOT
ATOM      1  C   UNL     1       2.590   4.305  19.020  0.00  0.00    +0.000 A 
ATOM      2  C   UNL     1       2.950   3.049  18.528  0.00  0.00    +0.000 A 
ATOM      3  C   UNL     1       3.838   2.929  17.465  0.00  0.00    +0.000 A 
ATOM      4  C   UNL     1       4.383   4.059  16.857  0.00  0.00    +0.000 A 
ATOM      5  C   UNL     1       5.237   3.893  15.755  0.00  0.00    +0.000 A 
ATOM      6  C   UNL     1       5.793   4.987  15.102  0.00  0.00    +0.000 A 
ATOM      7  C   UNL     1       5.521   6.264  15.564  0.00  0.00    +0.000 A 
ATOM      8  C   UNL     1       4.686   6.442  16.673  0.00  0.00    +0.000 A 
ATOM      9  C   UNL     1       4.065   5.354  17.347  0.00  0.00    +0.000 A 
ATOM     10  C   UNL     1       3.153   5.477  18.458  0.00  0.00    +0.000 A 
ENDROOT
BRANCH   1  12
ATOM     11  C   UNL     1       1.849   3.771  21.218  0.00  0.00    +0.000 C 
ATOM     12  O   UNL     1       1.625   4.451  19.988  0.00  0.00    +0.000 OA
ENDBRANCH   1  12
BRANCH  10  13
ATOM     13  C   UNL     1       2.768   6.843  18.927  0.00  0.00    +0.000 C 
ATOM     14  C   UNL     1       1.949   7.716  18.315  0.00  0.00    +0.000 C 
BRANCH  14  15
ATOM     15  C   UNL     1       1.573   9.029  18.869  0.00  0.00    +0.000 A 
ATOM     16  C   UNL     1       0.997   9.186  20.129  0.00  0.00    +0.000 A 
ATOM     17  C   UNL     1       0.638  10.450  20.579  0.00  0.00    +0.000 A 
ATOM     18  N   UNL     1       0.854  11.543  19.818  0.00  0.00    +0.000 N 
ATOM     19  C   UNL     1       0.414  12.866  20.283  0.00  0.00    +0.000 C 
ATOM     20  C   UNL     1       1.463  11.430  18.617  0.00  0.00    +0.000 A 
ATOM     21  C   UNL     1       1.818  10.183  18.122  0.00  0.00    +0.000 A 
ENDBRANCH  14  15
ENDBRANCH  10  13
TORSDOF 3
ENDMDL
MODEL 9
REMARK VINA RESULT:      -7.2      1.777      3.444
REMARK  Name = 
REMARK  5 active torsions:
REMARK  status: ('A' for Active; 'I' for Inactive)
REMARK    1  A    between atoms: C_1  and  O_2
REMARK    2  A    between atoms: O_2  and  C_3
REMARK    3  A    between atoms: C_12  and  C_13
REMARK    4  A    between atoms: C_14  and  C_15
REMARK    5  A    between atoms: N_18  and  C_19
REMARK                            x       y       z     vdW  Elec       q    Type
REMARK                         _______ _______ _______ _____ _____    ______ ____
ROOT
ATOM      1  C   UNL     1       2.701   4.941  19.122  0.00  0.00    +0.000 A 
ATOM      2  C   UNL     1       3.127   3.637  18.856  0.00  0.00    +0.000 A 
ATOM      3  C   UNL     1       4.012   3.376  17.817  0.00  0.00    +0.000 A 
ATOM      4  C   UNL     1       4.491   4.406  17.008  0.00  0.00    +0.000 A 
ATOM      5  C   UNL     1       5.345   4.089  15.939  0.00  0.00    +0.000 A 
ATOM      6  C   UNL     1       5.836   5.076  15.092  0.00  0.00    +0.000 A 
ATOM      7  C   UNL     1       5.498   6.400  15.324  0.00  0.00    +0.000 A 
ATOM      8  C   UNL     1       4.661   6.730  16.397  0.00  0.00    +0.000 A 
ATOM      9  C   UNL     1       4.106   5.749  17.264  0.00  0.00    +0.000 A 
ATOM     10  C   UNL     1       3.196   6.021  18.350  0.00  0.00    +0.000 A 
ENDROOT
BRANCH   1  12
ATOM     11  C   UNL     1       0.920   4.113  20.465  0.00  0.00    +0.000 C 
ATOM     12  O   UNL     1       1.737   5.207  20.064  0.00  0.00    +0.000 OA
ENDBRANCH   1  12
BRANCH  10  13
ATOM     13  C   UNL     1       2.740   7.427  18.574  0.00  0.00    +0.000 C 
ATOM     14  C   UNL     1       1.975   8.177  17.762  0.00  0.00    +0.000 C 
BRANCH  14  15
ATOM     15  C   UNL     1       1.520   9.542  18.078  0.00  0.00    +0.000 A 
ATOM     16  C   UNL     1       2.375  10.644  18.096  0.00  0.00    +0.000 A 
ATOM     17  C   UNL     1       1.887  11.900  18.431  0.00  0.00    +0.000 A 
ATOM     18  N   UNL     1       0.582  12.080  18.727  0.00  0.00    +0.000 N 
ATOM     19  C   UNL     1       0.093  13.403  19.138  0.00  0.00    +0.000 C 
ATOM     20  C   UNL     1      -0.282  11.043  18.662  0.00  0.00    +0.000 A 
ATOM     21  C   UNL     1       0.170   9.769  18.351  0.00  0.00    +0.000 A 
ENDBRANCH  14  15
ENDBRANCH  10  13
TORSDOF 3
ENDMDL
