MODEL 1
REMARK VINA RESULT:      -7.6      0.000      0.000
REMARK  Name = 
REMARK  7 active torsions:
REMARK  status: ('A' for Active; 'I' for Inactive)
REMARK    1  A    between atoms: C_1  and  O_2
REMARK    2  A    between atoms: O_2  and  C_3
REMARK    3  A    between atoms: C_3  and  C_5
REMARK    4  A    between atoms: C_5  and  C_6
REMARK    5  A    between atoms: C_8  and  C_9
REMARK    6  A    between atoms: C_12  and  C_13
REMARK    7  A    between atoms: N_19  and  C_20
REMARK                            x       y       z     vdW  Elec       q    Type
REMARK                         _______ _______ _______ _____ _____    ______ ____
ROOT
ATOM      1  C   UNL     1       6.124   5.057  17.492  0.00  0.00    +0.000 C 
ATOM      2  C   UNL     1       6.923   6.144  18.234  0.00  0.00    +0.000 C 
ATOM      3  N   UNL     1       5.705   4.011  18.456  0.00  0.00    +0.000 NA
ATOM      4  C   UNL     1       4.409   3.467  18.014  0.00  0.00    +0.000 C 
ATOM      5  C   UNL     1       3.780   4.493  17.049  0.00  0.00    +0.000 C 
ATOM      6  C   UNL     1       2.605   5.280  17.577  0.00  0.00    +0.000 C 
ATOM      7  O   UNL     1       1.451   4.870  17.520  0.00  0.00    +0.000 OA
ATOM      8  N   UNL     1       3.066   6.482  18.066  0.00  0.00    +0.000 N 
ATOM      9  C   UNL     1       4.249   6.799  17.447  0.00  0.00    +0.000 C 
ATOM     10  O   UNL     1       4.782   7.895  17.332  0.00  0.00    +0.000 OA
ATOM     11  C   UNL     1       4.837   5.562  16.819  0.00  0.00    +0.000 C 
ATOM     12  H   UNL     1       5.641   4.388  19.400  0.00  0.00    +0.000 HD
ENDROOT
BRANCH   4  13
ATOM     13  C   UNL     1       3.558   3.042  19.197  0.00  0.00    +0.000 A 
ATOM     14  C   UNL     1       3.801   3.570  20.474  0.00  0.00    +0.000 A 
ATOM     15  C   UNL     1       2.910   3.375  21.521  0.00  0.00    +0.000 A 
ATOM     16  C   UNL     1       1.789   2.567  21.349  0.00  0.00    +0.000 A 
ATOM     17  C   UNL     1       0.824   2.399  22.483  0.00  0.00    +0.000 C 
ATOM     18  C   UNL     1       1.610   1.912  20.126  0.00  0.00    +0.000 A 
ATOM     19  C   UNL     1       2.478   2.158  19.051  0.00  0.00    +0.000 A 
ENDBRANCH   4  13
BRANCH   8  20
ATOM     20  C   UNL     1       2.409   7.297  19.049  0.00  0.00    +0.000 A 
ATOM     21  C   UNL     1       1.906   8.575  18.739  0.00  0.00    +0.000 A 
ATOM     22  C   UNL     1       1.101   9.286  19.644  0.00  0.00    +0.000 A 
ATOM     23  C   UNL     1       0.785   8.730  20.872  0.00  0.00    +0.000 A 
ATOM     24  F   UNL     1      -0.021   9.389  21.714  0.00  0.00    +0.000 F 
ATOM     25  C   UNL     1       1.281   7.488  21.223  0.00  0.00    +0.000 A 
ATOM     26  C   UNL     1       2.091   6.783  20.321  0.00  0.00    +0.000 A 
ENDBRANCH   8  20
BRANCH   1  27
ATOM     27  C   UNL     1       7.022   4.383  16.414  0.00  0.00    +0.000 C 
ATOM     28  O   UNL     1       8.204   4.101  16.586  0.00  0.00    +0.000 OA
BRANCH  27  30
ATOM     29  C   UNL     1       6.988   4.777  14.087  0.00  0.00    +0.000 C 
ATOM     30  O   UNL     1       6.352   4.220  15.238  0.00  0.00    +0.000 OA
ENDBRANCH  27  30
ENDBRANCH   1  27
TORSDOF 4
ENDMDL
MODEL 2
REMARK VINA RESULT:      -7.4      0.473      1.000
REMARK  Name = 
REMARK  7 active torsions:
REMARK  status: ('A' for Active; 'I' for Inactive)
REMARK    1  A    between atoms: C_1  and  O_2
REMARK    2  A    between atoms: O_2  and  C_3
REMARK    3  A    between atoms: C_3  and  C_5
REMARK    4  A    between atoms: C_5  and  C_6
REMARK    5  A    between atoms: C_8  and  C_9
REMARK    6  A    between atoms: C_12  and  C_13
REMARK    7  A    between atoms: N_19  and  C_20
REMARK                            x       y       z     vdW  Elec       q    Type
REMARK                         _______ _______ _______ _____ _____    ______ ____
ROOT
ATOM      1  C   UNL     1       6.118   5.141  17.792  0.00  0.00    +0.000 C 
ATOM      2  C   UNL     1       6.898   6.245  18.528  0.00  0.00    +0.000 C 
ATOM      3  N   UNL     1       5.549   4.197  18.783  0.00  0.00    +0.000 NA
ATOM      4  C   UNL     1       4.275   3.680  18.252  0.00  0.00    +0.000 C 
ATOM      5  C   UNL     1       3.801   4.654  17.153  0.00  0.00    +0.000 C 
ATOM      6  C   UNL     1       2.625   5.535  17.498  0.00  0.00    +0.000 C 
ATOM      7  O   UNL     1       1.462   5.176  17.353  0.00  0.00    +0.000 OA
ATOM      8  N   UNL     1       3.101   6.750  17.940  0.00  0.00    +0.000 N 
ATOM      9  C   UNL     1       4.354   6.960  17.424  0.00  0.00    +0.000 C 
ATOM     10  O   UNL     1       4.955   8.018  17.284  0.00  0.00    +0.000 OA
ATOM     11  C   UNL     1       4.933   5.651  16.954  0.00  0.00    +0.000 C 
ATOM     12  H   UNL     1       5.413   4.650  19.684  0.00  0.00    +0.000 HD
ENDROOT
BRANCH   4  13
ATOM     13  C   UNL     1       3.289   3.391  19.369  0.00  0.00    +0.000 A 
ATOM     14  C   UNL     1       2.360   2.347  19.243  0.00  0.00    +0.000 A 
ATOM     15  C   UNL     1       1.601   1.916  20.324  0.00  0.00    +0.000 A 
ATOM     16  C   UNL     1       1.683   2.577  21.547  0.00  0.00    +0.000 A 
ATOM     17  C   UNL     1       0.880   2.074  22.708  0.00  0.00    +0.000 C 
ATOM     18  C   UNL     1       2.494   3.713  21.649  0.00  0.00    +0.000 A 
ATOM     19  C   UNL     1       3.303   4.109  20.573  0.00  0.00    +0.000 A 
ENDBRANCH   4  13
BRANCH   8  20
ATOM     20  C   UNL     1       2.395   7.670  18.787  0.00  0.00    +0.000 A 
ATOM     21  C   UNL     1       1.815   8.849  18.282  0.00  0.00    +0.000 A 
ATOM     22  C   UNL     1       0.968   9.646  19.069  0.00  0.00    +0.000 A 
ATOM     23  C   UNL     1       0.686   9.276  20.373  0.00  0.00    +0.000 A 
ATOM     24  F   UNL     1      -0.158  10.011  21.107  0.00  0.00    +0.000 F 
ATOM     25  C   UNL     1       1.257   8.138  20.913  0.00  0.00    +0.000 A 
ATOM     26  C   UNL     1       2.109   7.348  20.128  0.00  0.00    +0.000 A 
ENDBRANCH   8  20
BRANCH   1  27
ATOM     27  C   UNL     1       7.080   4.342  16.865  0.00  0.00    +0.000 C 
ATOM     28  O   UNL     1       8.239   4.065  17.158  0.00  0.00    +0.000 OA
BRANCH  27  30
ATOM     29  C   UNL     1       7.086   4.700  14.532  0.00  0.00    +0.000 C 
ATOM     30  O   UNL     1       6.497   4.061  15.665  0.00  0.00    +0.000 OA
ENDBRANCH  27  30
ENDBRANCH   1  27
TORSDOF 4
ENDMDL
MODEL 3
REMARK VINA RESULT:      -6.7      6.095     10.138
REMARK  Name = 
REMARK  7 active torsions:
REMARK  status: ('A' for Active; 'I' for Inactive)
REMARK    1  A    between atoms: C_1  and  O_2
REMARK    2  A    between atoms: O_2  and  C_3
REMARK    3  A    between atoms: C_3  and  C_5
REMARK    4  A    between atoms: C_5  and  C_6
REMARK    5  A    between atoms: C_8  and  C_9
REMARK    6  A    between atoms: C_12  and  C_13
REMARK    7  A    between atoms: N_19  and  C_20
REMARK                            x       y       z     vdW  Elec       q    Type
REMARK                         _______ _______ _______ _____ _____    ______ ____
ROOT
ATOM      1  C   UNL     1       0.433  10.974  19.143  0.00  0.00    +0.000 C 
ATOM      2  C   UNL     1      -1.014  10.464  19.024  0.00  0.00    +0.000 C 
ATOM      3  N   UNL     1       0.583  12.216  18.349  0.00  0.00    +0.000 NA
ATOM      4  C   UNL     1       1.575  13.077  19.018  0.00  0.00    +0.000 C 
ATOM      5  C   UNL     1       1.696  12.597  20.479  0.00  0.00    +0.000 C 
ATOM      6  C   UNL     1       1.082  13.487  21.532  0.00  0.00    +0.000 C 
ATOM      7  O   UNL     1       1.683  14.428  22.038  0.00  0.00    +0.000 OA
ATOM      8  N   UNL     1      -0.187  13.029  21.809  0.00  0.00    +0.000 N 
ATOM      9  C   UNL     1      -0.265  11.695  21.498  0.00  0.00    +0.000 C 
ATOM     10  O   UNL     1      -1.063  10.860  21.906  0.00  0.00    +0.000 OA
ATOM     11  C   UNL     1       0.867  11.324  20.576  0.00  0.00    +0.000 C 
ATOM     12  H   UNL     1      -0.309  12.697  18.249  0.00  0.00    +0.000 HD
ENDROOT
BRANCH   4  13
ATOM     13  C   UNL     1       1.257  14.547  18.814  0.00  0.00    +0.000 A 
ATOM     14  C   UNL     1       2.289  15.475  18.611  0.00  0.00    +0.000 A 
ATOM     15  C   UNL     1       2.025  16.777  18.203  0.00  0.00    +0.000 A 
ATOM     16  C   UNL     1       0.712  17.219  18.072  0.00  0.00    +0.000 A 
ATOM     17  C   UNL     1       0.451  18.617  17.599  0.00  0.00    +0.000 C 
ATOM     18  C   UNL     1      -0.331  16.351  18.415  0.00  0.00    +0.000 A 
ATOM     19  C   UNL     1      -0.063  15.019  18.769  0.00  0.00    +0.000 A 
ENDBRANCH   4  13
BRANCH   8  20
ATOM     20  C   UNL     1      -1.261  13.809  22.359  0.00  0.00    +0.000 A 
ATOM     21  C   UNL     1      -2.354  14.226  21.575  0.00  0.00    +0.000 A 
ATOM     22  C   UNL     1      -3.487  14.819  22.154  0.00  0.00    +0.000 A 
ATOM     23  C   UNL     1      -3.546  15.005  23.525  0.00  0.00    +0.000 A 
ATOM     24  F   UNL     1      -4.646  15.529  24.079  0.00  0.00    +0.000 F 
ATOM     25  C   UNL     1      -2.482  14.632  24.325  0.00  0.00    +0.000 A 
ATOM     26  C   UNL     1      -1.348  14.046  23.745  0.00  0.00    +0.000 A 
ENDBRANCH   8  20
BRANCH   1  27
ATOM     27  C   UNL     1       1.416   9.915  18.566  0.00  0.00    +0.000 C 
ATOM     28  O   UNL     1       1.909   9.976  17.444  0.00  0.00    +0.000 OA
BRANCH  27  30
ATOM     29  C   UNL     1       2.256   7.733  18.892  0.00  0.00    +0.000 C 
ATOM     30  O   UNL     1       1.597   8.878  19.433  0.00  0.00    +0.000 OA
ENDBRANCH  27  30
ENDBRANCH   1  27
TORSDOF 4
ENDMDL
MODEL 4
REMARK VINA RESULT:      -6.7      8.458     12.784
REMARK  Name = 
REMARK  7 active torsions:
REMARK  status: ('A' for Active; 'I' for Inactive)
REMARK    1  A    between atoms: C_1  and  O_2
REMARK    2  A    between atoms: O_2  and  C_3
REMARK    3  A    between atoms: C_3  and  C_5
REMARK    4  A    between atoms: C_5  and  C_6
REMARK    5  A    between atoms: C_8  and  C_9
REMARK    6  A    between atoms: C_12  and  C_13
REMARK    7  A    between atoms: N_19  and  C_20
REMARK                            x       y       z     vdW  Elec       q    Type
REMARK                         _______ _______ _______ _____ _____    ______ ____
ROOT
ATOM      1  C   UNL     1      -2.903  16.192  22.967  0.00  0.00    +0.000 C 
ATOM      2  C   UNL     1      -1.703  16.485  22.047  0.00  0.00    +0.000 C 
ATOM      3  N   UNL     1      -4.064  15.780  22.144  0.00  0.00    +0.000 NA
ATOM      4  C   UNL     1      -4.863  14.816  22.920  0.00  0.00    +0.000 C 
ATOM      5  C   UNL     1      -3.957  14.253  24.035  0.00  0.00    +0.000 C 
ATOM      6  C   UNL     1      -3.483  12.830  23.862  0.00  0.00    +0.000 C 
ATOM      7  O   UNL     1      -4.139  11.863  24.232  0.00  0.00    +0.000 OA
ATOM      8  N   UNL     1      -2.235  12.850  23.280  0.00  0.00    +0.000 N 
ATOM      9  C   UNL     1      -1.628  14.050  23.551  0.00  0.00    +0.000 C 
ATOM     10  O   UNL     1      -0.435  14.326  23.528  0.00  0.00    +0.000 OA
ATOM     11  C   UNL     1      -2.666  15.056  23.976  0.00  0.00    +0.000 C 
ATOM     12  H   UNL     1      -3.762  15.376  21.260  0.00  0.00    +0.000 HD
ENDROOT
BRANCH   4  13
ATOM     13  C   UNL     1      -5.531  13.797  22.014  0.00  0.00    +0.000 A 
ATOM     14  C   UNL     1      -4.908  13.387  20.825  0.00  0.00    +0.000 A 
ATOM     15  C   UNL     1      -5.380  12.304  20.095  0.00  0.00    +0.000 A 
ATOM     16  C   UNL     1      -6.547  11.651  20.482  0.00  0.00    +0.000 A 
ATOM     17  C   UNL     1      -7.019  10.464  19.697  0.00  0.00    +0.000 C 
ATOM     18  C   UNL     1      -7.263  12.140  21.580  0.00  0.00    +0.000 A 
ATOM     19  C   UNL     1      -6.752  13.196  22.351  0.00  0.00    +0.000 A 
ENDBRANCH   4  13
BRANCH   8  20
ATOM     20  C   UNL     1      -1.642  11.781  22.527  0.00  0.00    +0.000 A 
ATOM     21  C   UNL     1      -1.440  11.873  21.136  0.00  0.00    +0.000 A 
ATOM     22  C   UNL     1      -0.692  10.912  20.438  0.00  0.00    +0.000 A 
ATOM     23  C   UNL     1      -0.132   9.844  21.118  0.00  0.00    +0.000 A 
ATOM     24  F   UNL     1       0.620   8.955  20.459  0.00  0.00    +0.000 F 
ATOM     25  C   UNL     1      -0.329   9.705  22.480  0.00  0.00    +0.000 A 
ATOM     26  C   UNL     1      -1.083  10.662  23.175  0.00  0.00    +0.000 A 
ENDBRANCH   8  20
BRANCH   1  27
ATOM     27  C   UNL     1      -3.299  17.480  23.746  0.00  0.00    +0.000 C 
ATOM     28  O   UNL     1      -4.442  17.922  23.803  0.00  0.00    +0.000 OA
BRANCH  27  30
ATOM     29  C   UNL     1      -2.251  18.291  25.699  0.00  0.00    +0.000 C 
ATOM     30  O   UNL     1      -2.206  18.092  24.286  0.00  0.00    +0.000 OA
ENDBRANCH  27  30
ENDBRANCH   1  27
TORSDOF 4
ENDMDL
MODEL 5
REMARK VINA RESULT:      -6.6      7.753     11.901
REMARK  Name = 
REMARK  7 active torsions:
REMARK  status: ('A' for Active; 'I' for Inactive)
REMARK    1  A    between atoms: C_1  and  O_2
REMARK    2  A    between atoms: O_2  and  C_3
REMARK    3  A    between atoms: C_3  and  C_5
REMARK    4  A    between atoms: C_5  and  C_6
REMARK    5  A    between atoms: C_8  and  C_9
REMARK    6  A    between atoms: C_12  and  C_13
REMARK    7  A    between atoms: N_19  and  C_20
REMARK                            x       y       z     vdW  Elec       q    Type
REMARK                         _______ _______ _______ _____ _____    ______ ____
ROOT
ATOM      1  C   UNL     1      -2.032  15.767  21.612  0.00  0.00    +0.000 C 
ATOM      2  C   UNL     1      -0.759  15.788  20.746  0.00  0.00    +0.000 C 
ATOM      3  N   UNL     1      -3.161  15.236  20.813  0.00  0.00    +0.000 NA
ATOM      4  C   UNL     1      -4.069  14.510  21.719  0.00  0.00    +0.000 C 
ATOM      5  C   UNL     1      -3.275  14.172  22.998  0.00  0.00    +0.000 C 
ATOM      6  C   UNL     1      -2.883  12.726  23.183  0.00  0.00    +0.000 C 
ATOM      7  O   UNL     1      -3.622  11.900  23.706  0.00  0.00    +0.000 OA
ATOM      8  N   UNL     1      -1.601  12.555  22.710  0.00  0.00    +0.000 N 
ATOM      9  C   UNL     1      -0.937  13.755  22.755  0.00  0.00    +0.000 C 
ATOM     10  O   UNL     1       0.270  13.962  22.764  0.00  0.00    +0.000 OA
ATOM     11  C   UNL     1      -1.935  14.879  22.864  0.00  0.00    +0.000 C 
ATOM     12  H   UNL     1      -2.828  14.628  20.067  0.00  0.00    +0.000 HD
ENDROOT
BRANCH   4  13
ATOM     13  C   UNL     1      -4.740  13.346  21.013  0.00  0.00    +0.000 A 
ATOM     14  C   UNL     1      -6.008  12.905  21.419  0.00  0.00    +0.000 A 
ATOM     15  C   UNL     1      -6.739  11.999  20.660  0.00  0.00    +0.000 A 
ATOM     16  C   UNL     1      -6.184  11.434  19.514  0.00  0.00    +0.000 A 
ATOM     17  C   UNL     1      -7.003  10.485  18.693  0.00  0.00    +0.000 C 
ATOM     18  C   UNL     1      -4.864  11.750  19.177  0.00  0.00    +0.000 A 
ATOM     19  C   UNL     1      -4.150  12.710  19.911  0.00  0.00    +0.000 A 
ENDBRANCH   4  13
BRANCH   8  20
ATOM     20  C   UNL     1      -1.029  11.316  22.262  0.00  0.00    +0.000 A 
ATOM     21  C   UNL     1      -0.701  11.094  20.911  0.00  0.00    +0.000 A 
ATOM     22  C   UNL     1       0.028   9.964  20.509  0.00  0.00    +0.000 A 
ATOM     23  C   UNL     1       0.443   9.038  21.451  0.00  0.00    +0.000 A 
ATOM     24  F   UNL     1       1.178   7.986  21.072  0.00  0.00    +0.000 F 
ATOM     25  C   UNL     1       0.119   9.208  22.784  0.00  0.00    +0.000 A 
ATOM     26  C   UNL     1      -0.616  10.333  23.183  0.00  0.00    +0.000 A 
ENDBRANCH   8  20
BRANCH   1  27
ATOM     27  C   UNL     1      -2.395  17.216  22.052  0.00  0.00    +0.000 C 
ATOM     28  O   UNL     1      -2.954  18.032  21.326  0.00  0.00    +0.000 OA
BRANCH  27  30
ATOM     29  C   UNL     1      -0.930  18.479  23.404  0.00  0.00    +0.000 C 
ATOM     30  O   UNL     1      -1.947  17.481  23.312  0.00  0.00    +0.000 OA
ENDBRANCH  27  30
ENDBRANCH   1  27
TORSDOF 4
ENDMDL
MODEL 6
REMARK VINA RESULT:      -6.5      6.123      9.276
REMARK  Name = 
REMARK  7 active torsions:
REMARK  status: ('A' for Active; 'I' for Inactive)
REMARK    1  A    between atoms: C_1  and  O_2
REMARK    2  A    between atoms: O_2  and  C_3
REMARK    3  A    between atoms: C_3  and  C_5
REMARK    4  A    between atoms: C_5  and  C_6
REMARK    5  A    between atoms: C_8  and  C_9
REMARK    6  A    between atoms: C_12  and  C_13
REMARK    7  A    between atoms: N_19  and  C_20
REMARK                            x       y       z     vdW  Elec       q    Type
REMARK                         _______ _______ _______ _____ _____    ______ ____
ROOT
ATOM      1  C   UNL     1       1.424  14.901  19.514  0.00  0.00    +0.000 C 
ATOM      2  C   UNL     1       1.531  15.603  20.880  0.00  0.00    +0.000 C 
ATOM      3  N   UNL     1       1.982  13.533  19.620  0.00  0.00    +0.000 NA
ATOM      4  C   UNL     1       1.239  12.657  18.697  0.00  0.00    +0.000 C 
ATOM      5  C   UNL     1      -0.095  13.357  18.366  0.00  0.00    +0.000 C 
ATOM      6  C   UNL     1      -1.337  12.769  18.993  0.00  0.00    +0.000 C 
ATOM      7  O   UNL     1      -1.964  11.848  18.483  0.00  0.00    +0.000 OA
ATOM      8  N   UNL     1      -1.614  13.460  20.152  0.00  0.00    +0.000 N 
ATOM      9  C   UNL     1      -1.068  14.716  20.071  0.00  0.00    +0.000 C 
ATOM     10  O   UNL     1      -1.370  15.722  20.700  0.00  0.00    +0.000 OA
ATOM     11  C   UNL     1      -0.014  14.741  18.994  0.00  0.00    +0.000 C 
ATOM     12  H   UNL     1       1.927  13.187  20.576  0.00  0.00    +0.000 HD
ENDROOT
BRANCH   4  13
ATOM     13  C   UNL     1       1.143  11.241  19.237  0.00  0.00    +0.000 A 
ATOM     14  C   UNL     1       1.331  10.142  18.385  0.00  0.00    +0.000 A 
ATOM     15  C   UNL     1       1.471   8.853  18.884  0.00  0.00    +0.000 A 
ATOM     16  C   UNL     1       1.336   8.609  20.248  0.00  0.00    +0.000 A 
ATOM     17  C   UNL     1       1.524   7.216  20.767  0.00  0.00    +0.000 C 
ATOM     18  C   UNL     1       1.000   9.672  21.095  0.00  0.00    +0.000 A 
ATOM     19  C   UNL     1       0.918  10.982  20.597  0.00  0.00    +0.000 A 
ENDBRANCH   4  13
BRANCH   8  20
ATOM     20  C   UNL     1      -2.375  12.964  21.264  0.00  0.00    +0.000 A 
ATOM     21  C   UNL     1      -1.763  12.305  22.348  0.00  0.00    +0.000 A 
ATOM     22  C   UNL     1      -2.479  11.993  23.515  0.00  0.00    +0.000 A 
ATOM     23  C   UNL     1      -3.816  12.335  23.618  0.00  0.00    +0.000 A 
ATOM     24  F   UNL     1      -4.484  12.079  24.749  0.00  0.00    +0.000 F 
ATOM     25  C   UNL     1      -4.458  12.960  22.565  0.00  0.00    +0.000 A 
ATOM     26  C   UNL     1      -3.744  13.265  21.397  0.00  0.00    +0.000 A 
ENDBRANCH   8  20
BRANCH   1  27
ATOM     27  C   UNL     1       2.256  15.679  18.454  0.00  0.00    +0.000 C 
ATOM     28  O   UNL     1       3.314  15.275  17.982  0.00  0.00    +0.000 OA
BRANCH  27  30
ATOM     29  C   UNL     1       2.147  17.511  16.970  0.00  0.00    +0.000 C 
ATOM     30  O   UNL     1       1.701  16.894  18.177  0.00  0.00    +0.000 OA
ENDBRANCH  27  30
ENDBRANCH   1  27
TORSDOF 4
ENDMDL
MODEL 7
REMARK VINA RESULT:      -6.5      6.077     10.134
REMARK  Name = 
REMARK  7 active torsions:
REMARK  status: ('A' for Active; 'I' for Inactive)
REMARK    1  A    between atoms: C_1  and  O_2
REMARK    2  A    between atoms: O_2  and  C_3
REMARK    3  A    between atoms: C_3  and  C_5
REMARK    4  A    between atoms: C_5  and  C_6
REMARK    5  A    between atoms: C_8  and  C_9
REMARK    6  A    between atoms: C_12  and  C_13
REMARK    7  A    between atoms: N_19  and  C_20
REMARK                            x       y       z     vdW  Elec       q    Type
REMARK                         _______ _______ _______ _____ _____    ______ ____
ROOT
ATOM      1  C   UNL     1       0.432  10.863  19.154  0.00  0.00    +0.000 C 
ATOM      2  C   UNL     1      -1.020  10.361  19.052  0.00  0.00    +0.000 C 
ATOM      3  N   UNL     1       0.587  12.087  18.333  0.00  0.00    +0.000 NA
ATOM      4  C   UNL     1       1.588  12.954  18.979  0.00  0.00    +0.000 C 
ATOM      5  C   UNL     1       1.712  12.505  20.449  0.00  0.00    +0.000 C 
ATOM      6  C   UNL     1       1.108  13.423  21.485  0.00  0.00    +0.000 C 
ATOM      7  O   UNL     1       1.718  14.370  21.968  0.00  0.00    +0.000 OA
ATOM      8  N   UNL     1      -0.163  12.980  21.777  0.00  0.00    +0.000 N 
ATOM      9  C   UNL     1      -0.252  11.640  21.496  0.00  0.00    +0.000 C 
ATOM     10  O   UNL     1      -1.055  10.821  21.925  0.00  0.00    +0.000 OA
ATOM     11  C   UNL     1       0.874  11.241  20.578  0.00  0.00    +0.000 C 
ATOM     12  H   UNL     1      -0.301  12.572  18.226  0.00  0.00    +0.000 HD
ENDROOT
BRANCH   4  13
ATOM     13  C   UNL     1       1.280  14.422  18.744  0.00  0.00    +0.000 A 
ATOM     14  C   UNL     1      -0.049  14.863  18.655  0.00  0.00    +0.000 A 
ATOM     15  C   UNL     1      -0.366  16.216  18.665  0.00  0.00    +0.000 A 
ATOM     16  C   UNL     1       0.644  17.174  18.672  0.00  0.00    +0.000 A 
ATOM     17  C   UNL     1       0.277  18.627  18.716  0.00  0.00    +0.000 C 
ATOM     18  C   UNL     1       1.977  16.752  18.610  0.00  0.00    +0.000 A 
ATOM     19  C   UNL     1       2.295  15.386  18.661  0.00  0.00    +0.000 A 
ENDBRANCH   4  13
BRANCH   8  20
ATOM     20  C   UNL     1      -1.228  13.780  22.314  0.00  0.00    +0.000 A 
ATOM     21  C   UNL     1      -1.302  14.096  23.684  0.00  0.00    +0.000 A 
ATOM     22  C   UNL     1      -2.230  15.029  24.173  0.00  0.00    +0.000 A 
ATOM     23  C   UNL     1      -3.099  15.662  23.301  0.00  0.00    +0.000 A 
ATOM     24  F   UNL     1      -3.951  16.585  23.762  0.00  0.00    +0.000 F 
ATOM     25  C   UNL     1      -3.073  15.360  21.952  0.00  0.00    +0.000 A 
ATOM     26  C   UNL     1      -2.151  14.422  21.466  0.00  0.00    +0.000 A 
ENDBRANCH   8  20
BRANCH   1  27
ATOM     27  C   UNL     1       1.405   9.784  18.597  0.00  0.00    +0.000 C 
ATOM     28  O   UNL     1       1.921   9.836  17.485  0.00  0.00    +0.000 OA
BRANCH  27  30
ATOM     29  C   UNL     1       2.302   7.635  18.980  0.00  0.00    +0.000 C 
ATOM     30  O   UNL     1       1.546   8.743  19.467  0.00  0.00    +0.000 OA
ENDBRANCH  27  30
ENDBRANCH   1  27
TORSDOF 4
ENDMDL
MODEL 8
REMARK VINA RESULT:      -6.4      8.033     10.609
REMARK  Name = 
REMARK  7 active torsions:
REMARK  status: ('A' for Active; 'I' for Inactive)
REMARK    1  A    between atoms: C_1  and  O_2
REMARK    2  A    between atoms: O_2  and  C_3
REMARK    3  A    between atoms: C_3  and  C_5
REMARK    4  A    between atoms: C_5  and  C_6
REMARK    5  A    between atoms: C_8  and  C_9
REMARK    6  A    between atoms: C_12  and  C_13
REMARK    7  A    between atoms: N_19  and  C_20
REMARK                            x       y       z     vdW  Elec       q    Type
REMARK                         _______ _______ _______ _____ _____    ______ ____
ROOT
ATOM      1  C   UNL     1       0.506  14.725  21.005  0.00  0.00    +0.000 C 
ATOM      2  C   UNL     1       0.386  15.447  19.651  0.00  0.00    +0.000 C 
ATOM      3  N   UNL     1      -0.771  14.853  21.745  0.00  0.00    +0.000 NA
ATOM      4  C   UNL     1      -0.959  13.638  22.557  0.00  0.00    +0.000 C 
ATOM      5  C   UNL     1      -0.051  12.540  21.968  0.00  0.00    +0.000 C 
ATOM      6  C   UNL     1      -0.741  11.432  21.209  0.00  0.00    +0.000 C 
ATOM      7  O   UNL     1      -1.193  10.434  21.758  0.00  0.00    +0.000 OA
ATOM      8  N   UNL     1      -0.722  11.740  19.867  0.00  0.00    +0.000 N 
ATOM      9  C   UNL     1       0.329  12.585  19.611  0.00  0.00    +0.000 C 
ATOM     10  O   UNL     1       0.892  12.804  18.546  0.00  0.00    +0.000 OA
ATOM     11  C   UNL     1       0.792  13.218  20.897  0.00  0.00    +0.000 C 
ATOM     12  H   UNL     1      -1.553  14.991  21.107  0.00  0.00    +0.000 HD
ENDROOT
BRANCH   4  13
ATOM     13  C   UNL     1      -2.431  13.292  22.700  0.00  0.00    +0.000 A 
ATOM     14  C   UNL     1      -2.897  12.634  23.848  0.00  0.00    +0.000 A 
ATOM     15  C   UNL     1      -4.255  12.504  24.109  0.00  0.00    +0.000 A 
ATOM     16  C   UNL     1      -5.194  12.950  23.182  0.00  0.00    +0.000 A 
ATOM     17  C   UNL     1      -6.654  12.830  23.500  0.00  0.00    +0.000 C 
ATOM     18  C   UNL     1      -4.746  13.474  21.965  0.00  0.00    +0.000 A 
ATOM     19  C   UNL     1      -3.375  13.659  21.730  0.00  0.00    +0.000 A 
ENDBRANCH   4  13
BRANCH   8  20
ATOM     20  C   UNL     1      -1.636  11.242  18.878  0.00  0.00    +0.000 A 
ATOM     21  C   UNL     1      -2.903  11.823  18.676  0.00  0.00    +0.000 A 
ATOM     22  C   UNL     1      -3.712  11.460  17.588  0.00  0.00    +0.000 A 
ATOM     23  C   UNL     1      -3.268  10.511  16.683  0.00  0.00    +0.000 A 
ATOM     24  F   UNL     1      -4.021  10.200  15.621  0.00  0.00    +0.000 F 
ATOM     25  C   UNL     1      -2.041   9.900  16.861  0.00  0.00    +0.000 A 
ATOM     26  C   UNL     1      -1.237  10.258  17.952  0.00  0.00    +0.000 A 
ENDBRANCH   8  20
BRANCH   1  27
ATOM     27  C   UNL     1       1.625  15.388  21.860  0.00  0.00    +0.000 C 
ATOM     28  O   UNL     1       2.561  14.772  22.360  0.00  0.00    +0.000 OA
BRANCH  27  30
ATOM     29  C   UNL     1       1.567  17.195  23.377  0.00  0.00    +0.000 C 
ATOM     30  O   UNL     1       1.389  16.719  22.044  0.00  0.00    +0.000 OA
ENDBRANCH  27  30
ENDBRANCH   1  27
TORSDOF 4
ENDMDL
MODEL 9
REMARK VINA RESULT:      -6.3      6.647      9.731
REMARK  Name = 
REMARK  7 active torsions:
REMARK  status: ('A' for Active; 'I' for Inactive)
REMARK    1  A    between atoms: C_1  and  O_2
REMARK    2  A    between atoms: O_2  and  C_3
REMARK    3  A    between atoms: C_3  and  C_5
REMARK    4  A    between atoms: C_5  and  C_6
REMARK    5  A    between atoms: C_8  and  C_9
REMARK    6  A    between atoms: C_12  and  C_13
REMARK    7  A    between atoms: N_19  and  C_20
REMARK                            x       y       z     vdW  Elec       q    Type
REMARK                         _______ _______ _______ _____ _____    ______ ____
ROOT
ATOM      1  C   UNL     1       1.039  15.479  19.608  0.00  0.00    +0.000 C 
ATOM      2  C   UNL     1       1.057  16.220  20.958  0.00  0.00    +0.000 C 
ATOM      3  N   UNL     1       1.761  14.192  19.744  0.00  0.00    +0.000 NA
ATOM      4  C   UNL     1       1.132  13.211  18.842  0.00  0.00    +0.000 C 
ATOM      5  C   UNL     1      -0.277  13.734  18.497  0.00  0.00    +0.000 C 
ATOM      6  C   UNL     1      -1.438  13.012  19.138  0.00  0.00    +0.000 C 
ATOM      7  O   UNL     1      -1.946  12.010  18.649  0.00  0.00    +0.000 OA
ATOM      8  N   UNL     1      -1.800  13.690  20.281  0.00  0.00    +0.000 N 
ATOM      9  C   UNL     1      -1.412  15.002  20.171  0.00  0.00    +0.000 C 
ATOM     10  O   UNL     1      -1.837  15.978  20.777  0.00  0.00    +0.000 OA
ATOM     11  C   UNL     1      -0.368  15.131  19.093  0.00  0.00    +0.000 C 
ATOM     12  H   UNL     1       1.747  13.864  20.708  0.00  0.00    +0.000 HD
ENDROOT
BRANCH   4  13
ATOM     13  C   UNL     1       1.210  11.807  19.414  0.00  0.00    +0.000 A 
ATOM     14  C   UNL     1       1.121  11.598  20.799  0.00  0.00    +0.000 A 
ATOM     15  C   UNL     1       0.965  10.325  21.332  0.00  0.00    +0.000 A 
ATOM     16  C   UNL     1       0.985   9.208  20.501  0.00  0.00    +0.000 A 
ATOM     17  C   UNL     1       0.782   7.847  21.095  0.00  0.00    +0.000 C 
ATOM     18  C   UNL     1       1.223   9.387  19.134  0.00  0.00    +0.000 A 
ATOM     19  C   UNL     1       1.319  10.677  18.590  0.00  0.00    +0.000 A 
ENDBRANCH   4  13
BRANCH   8  20
ATOM     20  C   UNL     1      -2.496  13.130  21.404  0.00  0.00    +0.000 A 
ATOM     21  C   UNL     1      -1.811  12.545  22.487  0.00  0.00    +0.000 A 
ATOM     22  C   UNL     1      -2.480  12.173  23.664  0.00  0.00    +0.000 A 
ATOM     23  C   UNL     1      -3.844  12.380  23.778  0.00  0.00    +0.000 A 
ATOM     24  F   UNL     1      -4.472  12.068  24.919  0.00  0.00    +0.000 F 
ATOM     25  C   UNL     1      -4.556  12.929  22.727  0.00  0.00    +0.000 A 
ATOM     26  C   UNL     1      -3.888  13.293  21.550  0.00  0.00    +0.000 A 
ENDBRANCH   8  20
BRANCH   1  27
ATOM     27  C   UNL     1       1.772  16.329  18.529  0.00  0.00    +0.000 C 
ATOM     28  O   UNL     1       2.943  16.162  18.205  0.00  0.00    +0.000 OA
BRANCH  27  30
ATOM     29  C   UNL     1       1.478  18.026  16.916  0.00  0.00    +0.000 C 
ATOM     30  O   UNL     1       0.972  17.325  18.051  0.00  0.00    +0.000 OA
ENDBRANCH  27  30
ENDBRANCH   1  27
TORSDOF 4
ENDMDL
