MODEL 1
REMARK VINA RESULT:      -8.0      0.000      0.000
REMARK  Name = 
REMARK  3 active torsions:
REMARK  status: ('A' for Active; 'I' for Inactive)
REMARK    1  A    between atoms: N_2  and  C_4
REMARK    2  A    between atoms: C_9  and  N_10
REMARK    3  A    between atoms: N_10  and  C_11
REMARK                            x       y       z     vdW  Elec       q    Type
REMARK                         _______ _______ _______ _____ _____    ______ ____
ROOT
ATOM      1  C   UNL     1       2.282   3.374  19.865  0.00  0.00    +0.000 A 
ATOM      2  C   UNL     1       2.392   2.161  19.075  0.00  0.00    +0.000 A 
ATOM      3  C   UNL     1       3.279   2.025  18.082  0.00  0.00    +0.000 A 
ATOM      4  C   UNL     1       4.167   3.162  17.839  0.00  0.00    +0.000 A 
ATOM      5  C   UNL     1       4.213   4.284  18.812  0.00  0.00    +0.000 A 
ATOM      6  C   UNL     1       3.150   4.413  19.858  0.00  0.00    +0.000 A 
ATOM      7  N   UNL     1       5.209   5.063  18.545  0.00  0.00    +0.000 NA
ATOM      8  C   UNL     1       5.577   4.656  17.152  0.00  0.00    +0.000 C 
ATOM      9  C   UNL     1       4.928   5.730  16.252  0.00  0.00    +0.000 C 
ATOM     10  C   UNL     1       5.354   5.728  14.795  0.00  0.00    +0.000 C 
ATOM     11  C   UNL     1       6.824   5.435  14.529  0.00  0.00    +0.000 C 
ATOM     12  C   UNL     1       7.495   4.457  15.489  0.00  0.00    +0.000 C 
ATOM     13  C   UNL     1       7.088   4.613  16.958  0.00  0.00    +0.000 C 
ATOM     14  N   UNL     1       4.980   3.329  16.855  0.00  0.00    +0.000 NA
ENDROOT
BRANCH   1  16
ATOM     15  O   UNL     1       0.305   4.422  20.393  0.00  0.00    +0.000 OA
ATOM     16  N   UNL     1       1.102   3.527  20.701  0.00  0.00    +0.000 N 
ATOM     17  O   UNL     1       1.010   2.792  21.697  0.00  0.00    +0.000 OA
ENDBRANCH   1  16
BRANCH   6  18
ATOM     18  N   UNL     1       3.053   5.634  20.540  0.00  0.00    +0.000 N 
ATOM     19  H   UNL     1       3.973   5.919  20.881  0.00  0.00    +0.000 HD
BRANCH  18  20
ATOM     20  C   UNL     1       2.496   6.780  19.890  0.00  0.00    +0.000 A 
ATOM     21  C   UNL     1       2.596   6.973  18.513  0.00  0.00    +0.000 A 
ATOM     22  C   UNL     1       2.043   8.109  17.908  0.00  0.00    +0.000 A 
ATOM     23  C   UNL     1       1.355   9.048  18.675  0.00  0.00    +0.000 A 
ATOM     24  C   UNL     1       1.194   8.838  20.042  0.00  0.00    +0.000 A 
ATOM     25  C   UNL     1       1.750   7.698  20.645  0.00  0.00    +0.000 A 
ENDBRANCH  18  20
ENDBRANCH   6  18
TORSDOF 3
ENDMDL
MODEL 2
REMARK VINA RESULT:      -7.9      2.271      4.394
REMARK  Name = 
REMARK  3 active torsions:
REMARK  status: ('A' for Active; 'I' for Inactive)
REMARK    1  A    between atoms: N_2  and  C_4
REMARK    2  A    between atoms: C_9  and  N_10
REMARK    3  A    between atoms: N_10  and  C_11
REMARK                            x       y       z     vdW  Elec       q    Type
REMARK                         _______ _______ _______ _____ _____    ______ ____
ROOT
ATOM      1  C   UNL     1       1.725   8.281  19.568  0.00  0.00    +0.000 A 
ATOM      2  C   UNL     1       1.980   9.054  18.365  0.00  0.00    +0.000 A 
ATOM      3  C   UNL     1       2.840   8.655  17.421  0.00  0.00    +0.000 A 
ATOM      4  C   UNL     1       3.505   7.371  17.643  0.00  0.00    +0.000 A 
ATOM      5  C   UNL     1       3.045   6.481  18.741  0.00  0.00    +0.000 A 
ATOM      6  C   UNL     1       2.134   7.012  19.803  0.00  0.00    +0.000 A 
ATOM      7  N   UNL     1       3.592   5.316  18.627  0.00  0.00    +0.000 NA
ATOM      8  C   UNL     1       4.716   5.575  17.673  0.00  0.00    +0.000 C 
ATOM      9  C   UNL     1       5.965   5.704  18.572  0.00  0.00    +0.000 C 
ATOM     10  C   UNL     1       7.304   5.706  17.860  0.00  0.00    +0.000 C 
ATOM     11  C   UNL     1       7.432   4.760  16.674  0.00  0.00    +0.000 C 
ATOM     12  C   UNL     1       6.167   4.546  15.850  0.00  0.00    +0.000 C 
ATOM     13  C   UNL     1       4.874   4.441  16.667  0.00  0.00    +0.000 C 
ATOM     14  N   UNL     1       4.475   6.860  16.968  0.00  0.00    +0.000 NA
ENDROOT
BRANCH   1  16
ATOM     15  O   UNL     1      -0.026   9.540  20.364  0.00  0.00    +0.000 OA
ATOM     16  N   UNL     1       1.017   8.940  20.654  0.00  0.00    +0.000 N 
ATOM     17  O   UNL     1       1.539   8.905  21.779  0.00  0.00    +0.000 OA
ENDBRANCH   1  16
BRANCH   6  18
ATOM     18  N   UNL     1       1.981   6.249  20.969  0.00  0.00    +0.000 N 
ATOM     19  H   UNL     1       1.180   6.586  21.506  0.00  0.00    +0.000 HD
BRANCH  18  20
ATOM     20  C   UNL     1       1.835   4.828  20.885  0.00  0.00    +0.000 A 
ATOM     21  C   UNL     1       2.595   3.956  21.664  0.00  0.00    +0.000 A 
ATOM     22  C   UNL     1       2.431   2.570  21.554  0.00  0.00    +0.000 A 
ATOM     23  C   UNL     1       1.477   2.043  20.684  0.00  0.00    +0.000 A 
ATOM     24  C   UNL     1       0.667   2.902  19.946  0.00  0.00    +0.000 A 
ATOM     25  C   UNL     1       0.835   4.292  20.058  0.00  0.00    +0.000 A 
ENDBRANCH  18  20
ENDBRANCH   6  18
TORSDOF 3
ENDMDL
MODEL 3
REMARK VINA RESULT:      -7.6      3.544      6.632
REMARK  Name = 
REMARK  3 active torsions:
REMARK  status: ('A' for Active; 'I' for Inactive)
REMARK    1  A    between atoms: N_2  and  C_4
REMARK    2  A    between atoms: C_9  and  N_10
REMARK    3  A    between atoms: N_10  and  C_11
REMARK                            x       y       z     vdW  Elec       q    Type
REMARK                         _______ _______ _______ _____ _____    ______ ____
ROOT
ATOM      1  C   UNL     1       6.822   6.184  17.598  0.00  0.00    +0.000 A 
ATOM      2  C   UNL     1       7.053   5.793  18.977  0.00  0.00    +0.000 A 
ATOM      3  C   UNL     1       6.265   4.925  19.623  0.00  0.00    +0.000 A 
ATOM      4  C   UNL     1       5.156   4.357  18.858  0.00  0.00    +0.000 A 
ATOM      5  C   UNL     1       5.086   4.568  17.389  0.00  0.00    +0.000 A 
ATOM      6  C   UNL     1       5.950   5.604  16.739  0.00  0.00    +0.000 A 
ATOM      7  N   UNL     1       4.180   3.806  16.872  0.00  0.00    +0.000 NA
ATOM      8  C   UNL     1       3.388   3.382  18.070  0.00  0.00    +0.000 C 
ATOM      9  C   UNL     1       2.147   4.301  18.058  0.00  0.00    +0.000 C 
ATOM     10  C   UNL     1       1.027   3.924  19.009  0.00  0.00    +0.000 C 
ATOM     11  C   UNL     1       0.752   2.435  19.161  0.00  0.00    +0.000 C 
ATOM     12  C   UNL     1       1.966   1.517  19.061  0.00  0.00    +0.000 C 
ATOM     13  C   UNL     1       2.989   1.914  17.991  0.00  0.00    +0.000 C 
ATOM     14  N   UNL     1       4.184   3.636  19.298  0.00  0.00    +0.000 NA
ENDROOT
BRANCH   1  16
ATOM     15  O   UNL     1       8.279   7.170  16.118  0.00  0.00    +0.000 OA
ATOM     16  N   UNL     1       7.542   7.343  17.098  0.00  0.00    +0.000 N 
ATOM     17  O   UNL     1       7.415   8.407  17.723  0.00  0.00    +0.000 OA
ENDBRANCH   1  16
BRANCH   6  18
ATOM     18  N   UNL     1       5.634   5.986  15.428  0.00  0.00    +0.000 N 
ATOM     19  H   UNL     1       6.013   6.914  15.233  0.00  0.00    +0.000 HD
BRANCH  18  20
ATOM     20  C   UNL     1       6.017   5.158  14.326  0.00  0.00    +0.000 A 
ATOM     21  C   UNL     1       5.153   4.217  13.768  0.00  0.00    +0.000 A 
ATOM     22  C   UNL     1       5.561   3.419  12.693  0.00  0.00    +0.000 A 
ATOM     23  C   UNL     1       6.832   3.580  12.142  0.00  0.00    +0.000 A 
ATOM     24  C   UNL     1       7.684   4.558  12.647  0.00  0.00    +0.000 A 
ATOM     25  C   UNL     1       7.272   5.356  13.726  0.00  0.00    +0.000 A 
ENDBRANCH  18  20
ENDBRANCH   6  18
TORSDOF 3
ENDMDL
MODEL 4
REMARK VINA RESULT:      -6.9      8.165     12.009
REMARK  Name = 
REMARK  3 active torsions:
REMARK  status: ('A' for Active; 'I' for Inactive)
REMARK    1  A    between atoms: N_2  and  C_4
REMARK    2  A    between atoms: C_9  and  N_10
REMARK    3  A    between atoms: N_10  and  C_11
REMARK                            x       y       z     vdW  Elec       q    Type
REMARK                         _______ _______ _______ _____ _____    ______ ____
ROOT
ATOM      1  C   UNL     1      -1.140  12.064  21.306  0.00  0.00    +0.000 A 
ATOM      2  C   UNL     1      -1.071  11.731  22.718  0.00  0.00    +0.000 A 
ATOM      3  C   UNL     1      -2.115  11.870  23.543  0.00  0.00    +0.000 A 
ATOM      4  C   UNL     1      -3.359  12.355  22.946  0.00  0.00    +0.000 A 
ATOM      5  C   UNL     1      -3.484  12.445  21.468  0.00  0.00    +0.000 A 
ATOM      6  C   UNL     1      -2.264  12.347  20.607  0.00  0.00    +0.000 A 
ATOM      7  N   UNL     1      -4.713  12.666  21.139  0.00  0.00    +0.000 NA
ATOM      8  C   UNL     1      -5.322  13.113  22.431  0.00  0.00    +0.000 C 
ATOM      9  C   UNL     1      -5.367  14.653  22.326  0.00  0.00    +0.000 C 
ATOM     10  C   UNL     1      -6.180  15.372  23.385  0.00  0.00    +0.000 C 
ATOM     11  C   UNL     1      -7.478  14.696  23.805  0.00  0.00    +0.000 C 
ATOM     12  C   UNL     1      -7.469  13.170  23.801  0.00  0.00    +0.000 C 
ATOM     13  C   UNL     1      -6.718  12.533  22.626  0.00  0.00    +0.000 C 
ATOM     14  N   UNL     1      -4.436  12.715  23.554  0.00  0.00    +0.000 NA
ENDROOT
BRANCH   1  16
ATOM     15  O   UNL     1       0.834  11.158  20.552  0.00  0.00    +0.000 OA
ATOM     16  N   UNL     1       0.114  12.165  20.577  0.00  0.00    +0.000 N 
ATOM     17  O   UNL     1       0.401  13.268  20.087  0.00  0.00    +0.000 OA
ENDBRANCH   1  16
BRANCH   6  18
ATOM     18  N   UNL     1      -2.379  12.745  19.268  0.00  0.00    +0.000 N 
ATOM     19  H   UNL     1      -1.547  13.263  18.983  0.00  0.00    +0.000 HD
BRANCH  18  20
ATOM     20  C   UNL     1      -2.612  11.772  18.245  0.00  0.00    +0.000 A 
ATOM     21  C   UNL     1      -1.666  10.804  17.912  0.00  0.00    +0.000 A 
ATOM     22  C   UNL     1      -1.923   9.868  16.903  0.00  0.00    +0.000 A 
ATOM     23  C   UNL     1      -3.149   9.873  16.238  0.00  0.00    +0.000 A 
ATOM     24  C   UNL     1      -4.128  10.794  16.602  0.00  0.00    +0.000 A 
ATOM     25  C   UNL     1      -3.866  11.731  17.614  0.00  0.00    +0.000 A 
ENDBRANCH  18  20
ENDBRANCH   6  18
TORSDOF 3
ENDMDL
MODEL 5
REMARK VINA RESULT:      -6.9      6.437      9.917
REMARK  Name = 
REMARK  3 active torsions:
REMARK  status: ('A' for Active; 'I' for Inactive)
REMARK    1  A    between atoms: N_2  and  C_4
REMARK    2  A    between atoms: C_9  and  N_10
REMARK    3  A    between atoms: N_10  and  C_11
REMARK                            x       y       z     vdW  Elec       q    Type
REMARK                         _______ _______ _______ _____ _____    ______ ____
ROOT
ATOM      1  C   UNL     1       0.502   9.668  20.369  0.00  0.00    +0.000 A 
ATOM      2  C   UNL     1       0.666   9.081  21.687  0.00  0.00    +0.000 A 
ATOM      3  C   UNL     1       0.081   9.586  22.779  0.00  0.00    +0.000 A 
ATOM      4  C   UNL     1      -0.767  10.761  22.582  0.00  0.00    +0.000 A 
ATOM      5  C   UNL     1      -1.126  11.190  21.205  0.00  0.00    +0.000 A 
ATOM      6  C   UNL     1      -0.384  10.634  20.030  0.00  0.00    +0.000 A 
ATOM      7  N   UNL     1      -2.054  12.088  21.248  0.00  0.00    +0.000 NA
ATOM      8  C   UNL     1      -2.020  12.526  22.679  0.00  0.00    +0.000 C 
ATOM      9  C   UNL     1      -1.212  13.841  22.662  0.00  0.00    +0.000 C 
ATOM     10  C   UNL     1      -1.237  14.658  23.940  0.00  0.00    +0.000 C 
ATOM     11  C   UNL     1      -2.569  14.704  24.678  0.00  0.00    +0.000 C 
ATOM     12  C   UNL     1      -3.419  13.439  24.601  0.00  0.00    +0.000 C 
ATOM     13  C   UNL     1      -3.422  12.746  23.234  0.00  0.00    +0.000 C 
ATOM     14  N   UNL     1      -1.299  11.508  23.486  0.00  0.00    +0.000 NA
ENDROOT
BRANCH   1  16
ATOM     15  O   UNL     1       1.823   8.066  19.381  0.00  0.00    +0.000 OA
ATOM     16  N   UNL     1       1.410   9.232  19.321  0.00  0.00    +0.000 N 
ATOM     17  O   UNL     1       1.753  10.074  18.477  0.00  0.00    +0.000 OA
ENDBRANCH   1  16
BRANCH   6  18
ATOM     18  N   UNL     1      -0.533  11.286  18.798  0.00  0.00    +0.000 N 
ATOM     19  H   UNL     1       0.295  11.137  18.221  0.00  0.00    +0.000 HD
BRANCH  18  20
ATOM     20  C   UNL     1      -1.659  10.998  17.964  0.00  0.00    +0.000 A 
ATOM     21  C   UNL     1      -2.797  11.804  17.949  0.00  0.00    +0.000 A 
ATOM     22  C   UNL     1      -3.884  11.491  17.123  0.00  0.00    +0.000 A 
ATOM     23  C   UNL     1      -3.827  10.384  16.277  0.00  0.00    +0.000 A 
ATOM     24  C   UNL     1      -2.674   9.606  16.236  0.00  0.00    +0.000 A 
ATOM     25  C   UNL     1      -1.586   9.922  17.065  0.00  0.00    +0.000 A 
ENDBRANCH  18  20
ENDBRANCH   6  18
TORSDOF 3
ENDMDL
MODEL 6
REMARK VINA RESULT:      -6.9      6.394      9.841
REMARK  Name = 
REMARK  3 active torsions:
REMARK  status: ('A' for Active; 'I' for Inactive)
REMARK    1  A    between atoms: N_2  and  C_4
REMARK    2  A    between atoms: C_9  and  N_10
REMARK    3  A    between atoms: N_10  and  C_11
REMARK                            x       y       z     vdW  Elec       q    Type
REMARK                         _______ _______ _______ _____ _____    ______ ____
ROOT
ATOM      1  C   UNL     1       0.570   9.758  20.132  0.00  0.00    +0.000 A 
ATOM      2  C   UNL     1       0.800   9.147  21.429  0.00  0.00    +0.000 A 
ATOM      3  C   UNL     1       0.226   9.599  22.551  0.00  0.00    +0.000 A 
ATOM      4  C   UNL     1      -0.678  10.740  22.408  0.00  0.00    +0.000 A 
ATOM      5  C   UNL     1      -1.096  11.186  21.054  0.00  0.00    +0.000 A 
ATOM      6  C   UNL     1      -0.368  10.691  19.844  0.00  0.00    +0.000 A 
ATOM      7  N   UNL     1      -2.061  12.040  21.146  0.00  0.00    +0.000 NA
ATOM      8  C   UNL     1      -2.003  12.445  22.586  0.00  0.00    +0.000 C 
ATOM      9  C   UNL     1      -1.255  13.795  22.579  0.00  0.00    +0.000 C 
ATOM     10  C   UNL     1      -1.277  14.579  23.877  0.00  0.00    +0.000 C 
ATOM     11  C   UNL     1      -2.586  14.547  24.655  0.00  0.00    +0.000 C 
ATOM     12  C   UNL     1      -3.382  13.248  24.571  0.00  0.00    +0.000 C 
ATOM     13  C   UNL     1      -3.396  12.589  23.187  0.00  0.00    +0.000 C 
ATOM     14  N   UNL     1      -1.215  11.441  23.345  0.00  0.00    +0.000 NA
ENDROOT
BRANCH   1  16
ATOM     15  O   UNL     1       1.822  10.290  18.278  0.00  0.00    +0.000 OA
ATOM     16  N   UNL     1       1.464   9.388  19.047  0.00  0.00    +0.000 N 
ATOM     17  O   UNL     1       1.755   8.187  18.932  0.00  0.00    +0.000 OA
ENDBRANCH   1  16
BRANCH   6  18
ATOM     18  N   UNL     1      -0.582  11.366  18.634  0.00  0.00    +0.000 N 
ATOM     19  H   UNL     1       0.244  11.289  18.038  0.00  0.00    +0.000 HD
BRANCH  18  20
ATOM     20  C   UNL     1      -1.702  11.026  17.809  0.00  0.00    +0.000 A 
ATOM     21  C   UNL     1      -1.702   9.903  16.985  0.00  0.00    +0.000 A 
ATOM     22  C   UNL     1      -2.812   9.601  16.186  0.00  0.00    +0.000 A 
ATOM     23  C   UNL     1      -3.949  10.408  16.233  0.00  0.00    +0.000 A 
ATOM     24  C   UNL     1      -3.987  11.498  17.097  0.00  0.00    +0.000 A 
ATOM     25  C   UNL     1      -2.872  11.797  17.896  0.00  0.00    +0.000 A 
ENDBRANCH  18  20
ENDBRANCH   6  18
TORSDOF 3
ENDMDL
MODEL 7
REMARK VINA RESULT:      -6.8      1.987      5.922
REMARK  Name = 
REMARK  3 active torsions:
REMARK  status: ('A' for Active; 'I' for Inactive)
REMARK    1  A    between atoms: N_2  and  C_4
REMARK    2  A    between atoms: C_9  and  N_10
REMARK    3  A    between atoms: N_10  and  C_11
REMARK                            x       y       z     vdW  Elec       q    Type
REMARK                         _______ _______ _______ _____ _____    ______ ____
ROOT
ATOM      1  C   UNL     1       3.082   3.556  19.920  0.00  0.00    +0.000 A 
ATOM      2  C   UNL     1       1.701   3.237  20.234  0.00  0.00    +0.000 A 
ATOM      3  C   UNL     1       0.777   4.179  20.460  0.00  0.00    +0.000 A 
ATOM      4  C   UNL     1       1.220   5.568  20.350  0.00  0.00    +0.000 A 
ATOM      5  C   UNL     1       2.559   5.874  19.783  0.00  0.00    +0.000 A 
ATOM      6  C   UNL     1       3.570   4.782  19.618  0.00  0.00    +0.000 A 
ATOM      7  N   UNL     1       2.667   7.141  19.556  0.00  0.00    +0.000 NA
ATOM      8  C   UNL     1       1.533   7.712  20.349  0.00  0.00    +0.000 C 
ATOM      9  C   UNL     1       2.189   8.228  21.648  0.00  0.00    +0.000 C 
ATOM     10  C   UNL     1       1.321   9.100  22.535  0.00  0.00    +0.000 C 
ATOM     11  C   UNL     1       0.405  10.081  21.817  0.00  0.00    +0.000 C 
ATOM     12  C   UNL     1      -0.156   9.614  20.477  0.00  0.00    +0.000 C 
ATOM     13  C   UNL     1       0.833   8.839  19.599  0.00  0.00    +0.000 C 
ATOM     14  N   UNL     1       0.568   6.631  20.673  0.00  0.00    +0.000 NA
ENDROOT
BRANCH   1  16
ATOM     15  O   UNL     1       4.854   2.501  20.938  0.00  0.00    +0.000 OA
ATOM     16  N   UNL     1       4.054   2.477  19.993  0.00  0.00    +0.000 N 
ATOM     17  O   UNL     1       4.053   1.645  19.072  0.00  0.00    +0.000 OA
ENDBRANCH   1  16
BRANCH   6  18
ATOM     18  N   UNL     1       4.900   5.157  19.381  0.00  0.00    +0.000 N 
ATOM     19  H   UNL     1       5.516   4.709  20.061  0.00  0.00    +0.000 HD
BRANCH  18  20
ATOM     20  C   UNL     1       5.493   4.934  18.098  0.00  0.00    +0.000 A 
ATOM     21  C   UNL     1       4.740   4.919  16.925  0.00  0.00    +0.000 A 
ATOM     22  C   UNL     1       5.350   4.694  15.686  0.00  0.00    +0.000 A 
ATOM     23  C   UNL     1       6.731   4.514  15.606  0.00  0.00    +0.000 A 
ATOM     24  C   UNL     1       7.504   4.588  16.761  0.00  0.00    +0.000 A 
ATOM     25  C   UNL     1       6.888   4.813  18.003  0.00  0.00    +0.000 A 
ENDBRANCH  18  20
ENDBRANCH   6  18
TORSDOF 3
ENDMDL
MODEL 8
REMARK VINA RESULT:      -6.8      1.992      5.938
REMARK  Name = 
REMARK  3 active torsions:
REMARK  status: ('A' for Active; 'I' for Inactive)
REMARK    1  A    between atoms: N_2  and  C_4
REMARK    2  A    between atoms: C_9  and  N_10
REMARK    3  A    between atoms: N_10  and  C_11
REMARK                            x       y       z     vdW  Elec       q    Type
REMARK                         _______ _______ _______ _____ _____    ______ ____
ROOT
ATOM      1  C   UNL     1       3.151   3.782  19.741  0.00  0.00    +0.000 A 
ATOM      2  C   UNL     1       1.792   3.395  20.074  0.00  0.00    +0.000 A 
ATOM      3  C   UNL     1       0.841   4.287  20.374  0.00  0.00    +0.000 A 
ATOM      4  C   UNL     1       1.229   5.697  20.325  0.00  0.00    +0.000 A 
ATOM      5  C   UNL     1       2.539   6.082  19.739  0.00  0.00    +0.000 A 
ATOM      6  C   UNL     1       3.584   5.040  19.490  0.00  0.00    +0.000 A 
ATOM      7  N   UNL     1       2.593   7.363  19.576  0.00  0.00    +0.000 NA
ATOM      8  C   UNL     1       1.461   7.848  20.427  0.00  0.00    +0.000 C 
ATOM      9  C   UNL     1       2.134   8.321  21.733  0.00  0.00    +0.000 C 
ATOM     10  C   UNL     1       1.259   9.113  22.688  0.00  0.00    +0.000 C 
ATOM     11  C   UNL     1       0.287  10.093  22.046  0.00  0.00    +0.000 C 
ATOM     12  C   UNL     1      -0.293   9.674  20.699  0.00  0.00    +0.000 C 
ATOM     13  C   UNL     1       0.698   8.984  19.756  0.00  0.00    +0.000 C 
ATOM     14  N   UNL     1       0.546   6.715  20.719  0.00  0.00    +0.000 NA
ENDROOT
BRANCH   1  16
ATOM     15  O   UNL     1       3.968   1.769  18.989  0.00  0.00    +0.000 OA
ATOM     16  N   UNL     1       4.165   2.739  19.732  0.00  0.00    +0.000 N 
ATOM     17  O   UNL     1       5.121   2.868  20.512  0.00  0.00    +0.000 OA
ENDBRANCH   1  16
BRANCH   6  18
ATOM     18  N   UNL     1       4.892   5.478  19.238  0.00  0.00    +0.000 N 
ATOM     19  H   UNL     1       5.544   5.019  19.876  0.00  0.00    +0.000 HD
BRANCH  18  20
ATOM     20  C   UNL     1       5.455   5.346  17.930  0.00  0.00    +0.000 A 
ATOM     21  C   UNL     1       6.606   4.598  17.689  0.00  0.00    +0.000 A 
ATOM     22  C   UNL     1       7.135   4.494  16.396  0.00  0.00    +0.000 A 
ATOM     23  C   UNL     1       6.493   5.113  15.324  0.00  0.00    +0.000 A 
ATOM     24  C   UNL     1       5.308   5.812  15.539  0.00  0.00    +0.000 A 
ATOM     25  C   UNL     1       4.782   5.915  16.836  0.00  0.00    +0.000 A 
ENDBRANCH  18  20
ENDBRANCH   6  18
TORSDOF 3
ENDMDL
MODEL 9
REMARK VINA RESULT:      -6.7      6.379     10.734
REMARK  Name = 
REMARK  3 active torsions:
REMARK  status: ('A' for Active; 'I' for Inactive)
REMARK    1  A    between atoms: N_2  and  C_4
REMARK    2  A    between atoms: C_9  and  N_10
REMARK    3  A    between atoms: N_10  and  C_11
REMARK                            x       y       z     vdW  Elec       q    Type
REMARK                         _______ _______ _______ _____ _____    ______ ____
ROOT
ATOM      1  C   UNL     1      -3.001  11.358  17.502  0.00  0.00    +0.000 A 
ATOM      2  C   UNL     1      -4.441  11.476  17.654  0.00  0.00    +0.000 A 
ATOM      3  C   UNL     1      -5.010  12.030  18.730  0.00  0.00    +0.000 A 
ATOM      4  C   UNL     1      -4.103  12.546  19.756  0.00  0.00    +0.000 A 
ATOM      5  C   UNL     1      -2.648  12.648  19.472  0.00  0.00    +0.000 A 
ATOM      6  C   UNL     1      -2.066  11.947  18.284  0.00  0.00    +0.000 A 
ATOM      7  N   UNL     1      -2.062  13.332  20.397  0.00  0.00    +0.000 NA
ATOM      8  C   UNL     1      -3.081  13.339  21.494  0.00  0.00    +0.000 C 
ATOM      9  C   UNL     1      -2.608  12.241  22.470  0.00  0.00    +0.000 C 
ATOM     10  C   UNL     1      -3.303  12.199  23.817  0.00  0.00    +0.000 C 
ATOM     11  C   UNL     1      -3.633  13.548  24.442  0.00  0.00    +0.000 C 
ATOM     12  C   UNL     1      -3.993  14.665  23.468  0.00  0.00    +0.000 C 
ATOM     13  C   UNL     1      -3.157  14.696  22.183  0.00  0.00    +0.000 C 
ATOM     14  N   UNL     1      -4.406  12.971  20.933  0.00  0.00    +0.000 NA
ENDROOT
BRANCH   1  16
ATOM     15  O   UNL     1      -2.666  10.851  15.285  0.00  0.00    +0.000 OA
ATOM     16  N   UNL     1      -2.505  10.481  16.455  0.00  0.00    +0.000 N 
ATOM     17  O   UNL     1      -2.010   9.397  16.806  0.00  0.00    +0.000 OA
ENDBRANCH   1  16
BRANCH   6  18
ATOM     18  N   UNL     1      -0.672  11.808  18.229  0.00  0.00    +0.000 N 
ATOM     19  H   UNL     1      -0.221  12.665  18.553  0.00  0.00    +0.000 HD
BRANCH  18  20
ATOM     20  C   UNL     1      -0.028  10.733  18.920  0.00  0.00    +0.000 A 
ATOM     21  C   UNL     1      -0.429  10.320  20.189  0.00  0.00    +0.000 A 
ATOM     22  C   UNL     1       0.225   9.268  20.840  0.00  0.00    +0.000 A 
ATOM     23  C   UNL     1       1.271   8.594  20.209  0.00  0.00    +0.000 A 
ATOM     24  C   UNL     1       1.643   8.955  18.916  0.00  0.00    +0.000 A 
ATOM     25  C   UNL     1       0.984  10.011  18.267  0.00  0.00    +0.000 A 
ENDBRANCH  18  20
ENDBRANCH   6  18
TORSDOF 3
ENDMDL
