MODEL 1
REMARK VINA RESULT:     -10.1      0.000      0.000
REMARK  Name = 
REMARK  8 active torsions:
REMARK  status: ('A' for Active; 'I' for Inactive)
REMARK    1  A    between atoms: C_1  and  N_2
REMARK    2  A    between atoms: N_2  and  C_3
REMARK    3  A    between atoms: C_3  and  C_4
REMARK    4  A    between atoms: C_4  and  O_5
REMARK    5  A    between atoms: C_4  and  C_20
REMARK    6  A    between atoms: O_5  and  C_6
REMARK    7  A    between atoms: C_9  and  C_10
REMARK    8  A    between atoms: C_10  and  C_11
REMARK                            x       y       z     vdW  Elec       q    Type
REMARK                         _______ _______ _______ _____ _____    ______ ____
ROOT
ATOM      1  C   UNL     1       4.151   5.138  19.075  0.00  0.00    +0.000 C 
ENDROOT
BRANCH   1   2
ATOM      2  C   UNL     1       2.889   4.323  19.336  0.00  0.00    +0.000 A 
ATOM      3  C   UNL     1       2.477   4.084  20.655  0.00  0.00    +0.000 A 
ATOM      4  C   UNL     1       1.365   3.283  20.911  0.00  0.00    +0.000 A 
ATOM      5  C   UNL     1       0.655   2.715  19.854  0.00  0.00    +0.000 A 
ATOM      6  C   UNL     1       1.048   2.954  18.539  0.00  0.00    +0.000 A 
ATOM      7  C   UNL     1       2.159   3.754  18.280  0.00  0.00    +0.000 A 
ENDBRANCH   1   2
BRANCH   1   8
ATOM      8  C   UNL     1       5.275   4.160  18.618  0.00  0.00    +0.000 C 
BRANCH   8  10
ATOM      9  C   UNL     1       7.005   5.970  18.526  0.00  0.00    +0.000 C 
ATOM     10  N   UNL     1       6.400   4.802  17.912  0.00  0.00    +0.000 N 
ATOM     11  C   UNL     1       6.456   4.645  16.567  0.00  0.00    +0.000 A 
ATOM     12  N   UNL     1       5.803   3.763  15.842  0.00  0.00    +0.000 NA
ATOM     13  C   UNL     1       6.242   3.973  14.570  0.00  0.00    +0.000 A 
ATOM     14  C   UNL     1       5.936   3.308  13.379  0.00  0.00    +0.000 A 
ATOM     15  C   UNL     1       6.558   3.741  12.202  0.00  0.00    +0.000 A 
ATOM     16  C   UNL     1       7.451   4.820  12.215  0.00  0.00    +0.000 A 
ATOM     17  C   UNL     1       7.763   5.503  13.402  0.00  0.00    +0.000 A 
ATOM     18  C   UNL     1       7.139   5.029  14.551  0.00  0.00    +0.000 A 
ATOM     19  O   UNL     1       7.282   5.470  15.839  0.00  0.00    +0.000 OA
ENDBRANCH   8  10
ENDBRANCH   1   8
BRANCH   1  20
ATOM     20  O   UNL     1       3.875   6.118  18.055  0.00  0.00    +0.000 OA
BRANCH  20  21
ATOM     21  C   UNL     1       2.976   7.102  18.380  0.00  0.00    +0.000 A 
ATOM     22  C   UNL     1       2.419   7.273  19.647  0.00  0.00    +0.000 A 
ATOM     23  C   UNL     1       1.612   8.381  19.921  0.00  0.00    +0.000 A 
ATOM     24  C   UNL     1       1.379   9.357  18.945  0.00  0.00    +0.000 A 
ATOM     25  C   UNL     1       1.898   9.158  17.661  0.00  0.00    +0.000 A 
ATOM     26  C   UNL     1       2.698   8.042  17.386  0.00  0.00    +0.000 A 
BRANCH  24  27
ATOM     27  C   UNL     1       0.653  10.633  19.312  0.00  0.00    +0.000 C 
BRANCH  27  28
ATOM     28  C   UNL     1      -0.874  10.508  19.434  0.00  0.00    +0.000 C 
ATOM     29  S   UNL     1      -1.732  10.019  17.897  0.00  0.00    +0.000 S 
ATOM     30  C   UNL     1      -2.758  11.430  17.905  0.00  0.00    +0.000 C 
ATOM     31  O   UNL     1      -3.596  11.666  17.051  0.00  0.00    +0.000 OA
ATOM     32  N   UNL     1      -2.509  12.193  18.996  0.00  0.00    +0.000 N 
ATOM     33  C   UNL     1      -1.538  11.797  19.865  0.00  0.00    +0.000 C 
ATOM     34  O   UNL     1      -1.263  12.414  20.890  0.00  0.00    +0.000 OA
ATOM     35  H   UNL     1      -3.029  13.043  19.146  0.00  0.00    +0.000 HD
ENDBRANCH  27  28
ENDBRANCH  24  27
ENDBRANCH  20  21
ENDBRANCH   1  20
TORSDOF 7
ENDMDL
MODEL 2
REMARK VINA RESULT:     -10.0      1.138      1.481
REMARK  Name = 
REMARK  8 active torsions:
REMARK  status: ('A' for Active; 'I' for Inactive)
REMARK    1  A    between atoms: C_1  and  N_2
REMARK    2  A    between atoms: N_2  and  C_3
REMARK    3  A    between atoms: C_3  and  C_4
REMARK    4  A    between atoms: C_4  and  O_5
REMARK    5  A    between atoms: C_4  and  C_20
REMARK    6  A    between atoms: O_5  and  C_6
REMARK    7  A    between atoms: C_9  and  C_10
REMARK    8  A    between atoms: C_10  and  C_11
REMARK                            x       y       z     vdW  Elec       q    Type
REMARK                         _______ _______ _______ _____ _____    ______ ____
ROOT
ATOM      1  C   UNL     1       4.125   4.975  19.007  0.00  0.00    +0.000 C 
ENDROOT
BRANCH   1   2
ATOM      2  C   UNL     1       2.913   4.121  19.361  0.00  0.00    +0.000 A 
ATOM      3  C   UNL     1       2.143   3.550  18.338  0.00  0.00    +0.000 A 
ATOM      4  C   UNL     1       0.992   2.825  18.644  0.00  0.00    +0.000 A 
ATOM      5  C   UNL     1       0.600   2.665  19.972  0.00  0.00    +0.000 A 
ATOM      6  C   UNL     1       1.363   3.218  20.998  0.00  0.00    +0.000 A 
ATOM      7  C   UNL     1       2.514   3.944  20.695  0.00  0.00    +0.000 A 
ENDBRANCH   1   2
BRANCH   1   8
ATOM      8  C   UNL     1       5.265   4.026  18.527  0.00  0.00    +0.000 C 
BRANCH   8  10
ATOM      9  C   UNL     1       6.962   5.869  18.496  0.00  0.00    +0.000 C 
ATOM     10  N   UNL     1       6.386   4.704  17.848  0.00  0.00    +0.000 N 
ATOM     11  C   UNL     1       6.460   4.579  16.501  0.00  0.00    +0.000 A 
ATOM     12  N   UNL     1       5.831   3.702  15.749  0.00  0.00    +0.000 NA
ATOM     13  C   UNL     1       6.281   3.949  14.488  0.00  0.00    +0.000 A 
ATOM     14  C   UNL     1       6.000   3.306  13.278  0.00  0.00    +0.000 A 
ATOM     15  C   UNL     1       6.627   3.776  12.119  0.00  0.00    +0.000 A 
ATOM     16  C   UNL     1       7.501   4.870  12.167  0.00  0.00    +0.000 A 
ATOM     17  C   UNL     1       7.786   5.532  13.372  0.00  0.00    +0.000 A 
ATOM     18  C   UNL     1       7.159   5.020  14.503  0.00  0.00    +0.000 A 
ATOM     19  O   UNL     1       7.279   5.435  15.802  0.00  0.00    +0.000 OA
ENDBRANCH   8  10
ENDBRANCH   1   8
BRANCH   1  20
ATOM     20  O   UNL     1       3.758   5.905  17.968  0.00  0.00    +0.000 OA
BRANCH  20  21
ATOM     21  C   UNL     1       2.950   6.949  18.341  0.00  0.00    +0.000 A 
ATOM     22  C   UNL     1       2.427   7.123  19.622  0.00  0.00    +0.000 A 
ATOM     23  C   UNL     1       1.721   8.284  19.945  0.00  0.00    +0.000 A 
ATOM     24  C   UNL     1       1.557   9.310  19.006  0.00  0.00    +0.000 A 
ATOM     25  C   UNL     1       2.039   9.111  17.707  0.00  0.00    +0.000 A 
ATOM     26  C   UNL     1       2.739   7.942  17.382  0.00  0.00    +0.000 A 
BRANCH  24  27
ATOM     27  C   UNL     1       0.946  10.628  19.427  0.00  0.00    +0.000 C 
BRANCH  27  28
ATOM     28  C   UNL     1      -0.437  10.529  20.091  0.00  0.00    +0.000 C 
ATOM     29  S   UNL     1      -1.765  11.453  19.245  0.00  0.00    +0.000 S 
ATOM     30  C   UNL     1      -2.156  12.387  20.667  0.00  0.00    +0.000 C 
ATOM     31  O   UNL     1      -3.029  13.237  20.702  0.00  0.00    +0.000 OA
ATOM     32  N   UNL     1      -1.379  12.011  21.710  0.00  0.00    +0.000 N 
ATOM     33  C   UNL     1      -0.443  11.041  21.515  0.00  0.00    +0.000 C 
ATOM     34  O   UNL     1       0.286  10.622  22.409  0.00  0.00    +0.000 OA
ATOM     35  H   UNL     1      -1.490  12.456  22.607  0.00  0.00    +0.000 HD
ENDBRANCH  27  28
ENDBRANCH  24  27
ENDBRANCH  20  21
ENDBRANCH   1  20
TORSDOF 7
ENDMDL
MODEL 3
REMARK VINA RESULT:      -9.9      1.362      1.721
REMARK  Name = 
REMARK  8 active torsions:
REMARK  status: ('A' for Active; 'I' for Inactive)
REMARK    1  A    between atoms: C_1  and  N_2
REMARK    2  A    between atoms: N_2  and  C_3
REMARK    3  A    between atoms: C_3  and  C_4
REMARK    4  A    between atoms: C_4  and  O_5
REMARK    5  A    between atoms: C_4  and  C_20
REMARK    6  A    between atoms: O_5  and  C_6
REMARK    7  A    between atoms: C_9  and  C_10
REMARK    8  A    between atoms: C_10  and  C_11
REMARK                            x       y       z     vdW  Elec       q    Type
REMARK                         _______ _______ _______ _____ _____    ______ ____
ROOT
ATOM      1  C   UNL     1       4.111   5.145  19.017  0.00  0.00    +0.000 C 
ENDROOT
BRANCH   1   2
ATOM      2  C   UNL     1       2.850   4.352  19.343  0.00  0.00    +0.000 A 
ATOM      3  C   UNL     1       2.485   4.147  20.681  0.00  0.00    +0.000 A 
ATOM      4  C   UNL     1       1.374   3.367  20.997  0.00  0.00    +0.000 A 
ATOM      5  C   UNL     1       0.619   2.783  19.980  0.00  0.00    +0.000 A 
ATOM      6  C   UNL     1       0.966   2.988  18.646  0.00  0.00    +0.000 A 
ATOM      7  C   UNL     1       2.076   3.768  18.328  0.00  0.00    +0.000 A 
ENDBRANCH   1   2
BRANCH   1   8
ATOM      8  C   UNL     1       5.171   4.158  18.442  0.00  0.00    +0.000 C 
BRANCH   8  10
ATOM      9  C   UNL     1       6.900   5.971  18.418  0.00  0.00    +0.000 C 
ATOM     10  N   UNL     1       6.317   4.806  17.777  0.00  0.00    +0.000 N 
ATOM     11  C   UNL     1       6.418   4.657  16.434  0.00  0.00    +0.000 A 
ATOM     12  N   UNL     1       5.790   3.778  15.682  0.00  0.00    +0.000 NA
ATOM     13  C   UNL     1       6.270   3.997  14.427  0.00  0.00    +0.000 A 
ATOM     14  C   UNL     1       6.004   3.339  13.222  0.00  0.00    +0.000 A 
ATOM     15  C   UNL     1       6.664   3.779  12.069  0.00  0.00    +0.000 A 
ATOM     16  C   UNL     1       7.555   4.859  12.118  0.00  0.00    +0.000 A 
ATOM     17  C   UNL     1       7.827   5.535  13.318  0.00  0.00    +0.000 A 
ATOM     18  C   UNL     1       7.167   5.053  14.444  0.00  0.00    +0.000 A 
ATOM     19  O   UNL     1       7.266   5.487  15.738  0.00  0.00    +0.000 OA
ENDBRANCH   8  10
ENDBRANCH   1   8
BRANCH   1  20
ATOM     20  O   UNL     1       3.786   6.170  18.057  0.00  0.00    +0.000 OA
BRANCH  20  21
ATOM     21  C   UNL     1       2.886   7.123  18.462  0.00  0.00    +0.000 A 
ATOM     22  C   UNL     1       2.400   7.247  19.763  0.00  0.00    +0.000 A 
ATOM     23  C   UNL     1       1.586   8.327  20.114  0.00  0.00    +0.000 A 
ATOM     24  C   UNL     1       1.274   9.323  19.181  0.00  0.00    +0.000 A 
ATOM     25  C   UNL     1       1.721   9.170  17.863  0.00  0.00    +0.000 A 
ATOM     26  C   UNL     1       2.529   8.082  17.511  0.00  0.00    +0.000 A 
BRANCH  24  27
ATOM     27  C   UNL     1       0.541  10.570  19.625  0.00  0.00    +0.000 C 
BRANCH  27  28
ATOM     28  C   UNL     1       0.594  11.749  18.640  0.00  0.00    +0.000 C 
ATOM     29  S   UNL     1       1.638  13.149  19.170  0.00  0.00    +0.000 S 
ATOM     30  C   UNL     1       0.328  14.296  19.060  0.00  0.00    +0.000 C 
ATOM     31  O   UNL     1       0.438  15.482  19.321  0.00  0.00    +0.000 OA
ATOM     32  N   UNL     1      -0.800  13.688  18.620  0.00  0.00    +0.000 N 
ATOM     33  C   UNL     1      -0.768  12.350  18.368  0.00  0.00    +0.000 C 
ATOM     34  O   UNL     1      -1.735  11.724  17.945  0.00  0.00    +0.000 OA
ATOM     35  H   UNL     1      -1.645  14.222  18.498  0.00  0.00    +0.000 HD
ENDBRANCH  27  28
ENDBRANCH  24  27
ENDBRANCH  20  21
ENDBRANCH   1  20
TORSDOF 7
ENDMDL
MODEL 4
REMARK VINA RESULT:      -9.9      0.691      1.077
REMARK  Name = 
REMARK  8 active torsions:
REMARK  status: ('A' for Active; 'I' for Inactive)
REMARK    1  A    between atoms: C_1  and  N_2
REMARK    2  A    between atoms: N_2  and  C_3
REMARK    3  A    between atoms: C_3  and  C_4
REMARK    4  A    between atoms: C_4  and  O_5
REMARK    5  A    between atoms: C_4  and  C_20
REMARK    6  A    between atoms: O_5  and  C_6
REMARK    7  A    between atoms: C_9  and  C_10
REMARK    8  A    between atoms: C_10  and  C_11
REMARK                            x       y       z     vdW  Elec       q    Type
REMARK                         _______ _______ _______ _____ _____    ______ ____
ROOT
ATOM      1  C   UNL     1       4.058   5.204  18.989  0.00  0.00    +0.000 C 
ENDROOT
BRANCH   1   2
ATOM      2  C   UNL     1       2.879   4.364  19.467  0.00  0.00    +0.000 A 
ATOM      3  C   UNL     1       2.036   3.752  18.529  0.00  0.00    +0.000 A 
ATOM      4  C   UNL     1       0.914   3.040  18.949  0.00  0.00    +0.000 A 
ATOM      5  C   UNL     1       0.623   2.932  20.309  0.00  0.00    +0.000 A 
ATOM      6  C   UNL     1       1.459   3.527  21.251  0.00  0.00    +0.000 A 
ATOM      7  C   UNL     1       2.581   4.240  20.834  0.00  0.00    +0.000 A 
ENDBRANCH   1   2
BRANCH   1   8
ATOM      8  C   UNL     1       5.148   4.238  18.432  0.00  0.00    +0.000 C 
BRANCH   8  10
ATOM      9  C   UNL     1       6.819   6.104  18.379  0.00  0.00    +0.000 C 
ATOM     10  N   UNL     1       6.277   4.908  17.760  0.00  0.00    +0.000 N 
ATOM     11  C   UNL     1       6.391   4.735  16.421  0.00  0.00    +0.000 A 
ATOM     12  N   UNL     1       5.795   3.821  15.684  0.00  0.00    +0.000 NA
ATOM     13  C   UNL     1       6.276   4.029  14.428  0.00  0.00    +0.000 A 
ATOM     14  C   UNL     1       6.039   3.338  13.235  0.00  0.00    +0.000 A 
ATOM     15  C   UNL     1       6.691   3.775  12.077  0.00  0.00    +0.000 A 
ATOM     16  C   UNL     1       7.548   4.883  12.108  0.00  0.00    +0.000 A 
ATOM     17  C   UNL     1       7.790   5.592  13.295  0.00  0.00    +0.000 A 
ATOM     18  C   UNL     1       7.139   5.113  14.427  0.00  0.00    +0.000 A 
ATOM     19  O   UNL     1       7.217   5.576  15.712  0.00  0.00    +0.000 OA
ENDBRANCH   8  10
ENDBRANCH   1   8
BRANCH   1  20
ATOM     20  O   UNL     1       3.604   6.113  17.967  0.00  0.00    +0.000 OA
BRANCH  20  21
ATOM     21  C   UNL     1       2.806   7.149  18.382  0.00  0.00    +0.000 A 
ATOM     22  C   UNL     1       2.289   7.279  19.670  0.00  0.00    +0.000 A 
ATOM     23  C   UNL     1       1.594   8.433  20.040  0.00  0.00    +0.000 A 
ATOM     24  C   UNL     1       1.435   9.494  19.140  0.00  0.00    +0.000 A 
ATOM     25  C   UNL     1       1.911   9.341  17.833  0.00  0.00    +0.000 A 
ATOM     26  C   UNL     1       2.600   8.179  17.462  0.00  0.00    +0.000 A 
BRANCH  24  27
ATOM     27  C   UNL     1       0.837  10.802  19.612  0.00  0.00    +0.000 C 
BRANCH  27  28
ATOM     28  C   UNL     1      -0.654  10.995  19.293  0.00  0.00    +0.000 C 
ATOM     29  S   UNL     1      -1.347   9.798  18.100  0.00  0.00    +0.000 S 
ATOM     30  C   UNL     1      -1.885  11.049  17.008  0.00  0.00    +0.000 C 
ATOM     31  O   UNL     1      -2.456  10.831  15.953  0.00  0.00    +0.000 OA
ATOM     32  N   UNL     1      -1.603  12.274  17.513  0.00  0.00    +0.000 N 
ATOM     33  C   UNL     1      -0.959  12.357  18.710  0.00  0.00    +0.000 C 
ATOM     34  O   UNL     1      -0.687  13.424  19.253  0.00  0.00    +0.000 OA
ATOM     35  H   UNL     1      -1.859  13.102  16.999  0.00  0.00    +0.000 HD
ENDBRANCH  27  28
ENDBRANCH  24  27
ENDBRANCH  20  21
ENDBRANCH   1  20
TORSDOF 7
ENDMDL
MODEL 5
REMARK VINA RESULT:      -9.9      1.101      1.936
REMARK  Name = 
REMARK  8 active torsions:
REMARK  status: ('A' for Active; 'I' for Inactive)
REMARK    1  A    between atoms: C_1  and  N_2
REMARK    2  A    between atoms: N_2  and  C_3
REMARK    3  A    between atoms: C_3  and  C_4
REMARK    4  A    between atoms: C_4  and  O_5
REMARK    5  A    between atoms: C_4  and  C_20
REMARK    6  A    between atoms: O_5  and  C_6
REMARK    7  A    between atoms: C_9  and  C_10
REMARK    8  A    between atoms: C_10  and  C_11
REMARK                            x       y       z     vdW  Elec       q    Type
REMARK                         _______ _______ _______ _____ _____    ______ ____
ROOT
ATOM      1  C   UNL     1       4.176   5.085  18.979  0.00  0.00    +0.000 C 
ENDROOT
BRANCH   1   2
ATOM      2  C   UNL     1       2.958   4.224  19.294  0.00  0.00    +0.000 A 
ATOM      3  C   UNL     1       2.221   3.653  18.246  0.00  0.00    +0.000 A 
ATOM      4  C   UNL     1       1.066   2.921  18.514  0.00  0.00    +0.000 A 
ATOM      5  C   UNL     1       0.635   2.753  19.829  0.00  0.00    +0.000 A 
ATOM      6  C   UNL     1       1.364   3.306  20.880  0.00  0.00    +0.000 A 
ATOM      7  C   UNL     1       2.519   4.038  20.615  0.00  0.00    +0.000 A 
ENDBRANCH   1   2
BRANCH   1   8
ATOM      8  C   UNL     1       5.335   4.143  18.533  0.00  0.00    +0.000 C 
BRANCH   8  10
ATOM      9  C   UNL     1       7.007   6.007  18.443  0.00  0.00    +0.000 C 
ATOM     10  N   UNL     1       6.441   4.820  17.829  0.00  0.00    +0.000 N 
ATOM     11  C   UNL     1       6.506   4.663  16.484  0.00  0.00    +0.000 A 
ATOM     12  N   UNL     1       5.882   3.760  15.758  0.00  0.00    +0.000 NA
ATOM     13  C   UNL     1       6.319   3.983  14.488  0.00  0.00    +0.000 A 
ATOM     14  C   UNL     1       6.037   3.307  13.296  0.00  0.00    +0.000 A 
ATOM     15  C   UNL     1       6.648   3.758  12.121  0.00  0.00    +0.000 A 
ATOM     16  C   UNL     1       7.507   4.865  12.135  0.00  0.00    +0.000 A 
ATOM     17  C   UNL     1       7.794   5.558  13.322  0.00  0.00    +0.000 A 
ATOM     18  C   UNL     1       7.182   5.066  14.470  0.00  0.00    +0.000 A 
ATOM     19  O   UNL     1       7.307   5.513  15.758  0.00  0.00    +0.000 OA
ENDBRANCH   8  10
ENDBRANCH   1   8
BRANCH   1  20
ATOM     20  O   UNL     1       3.836   6.015  17.933  0.00  0.00    +0.000 OA
BRANCH  20  21
ATOM     21  C   UNL     1       3.084   7.102  18.302  0.00  0.00    +0.000 A 
ATOM     22  C   UNL     1       2.667   8.106  17.429  0.00  0.00    +0.000 A 
ATOM     23  C   UNL     1       1.795   9.107  17.867  0.00  0.00    +0.000 A 
ATOM     24  C   UNL     1       1.295   9.100  19.174  0.00  0.00    +0.000 A 
ATOM     25  C   UNL     1       1.754   8.122  20.062  0.00  0.00    +0.000 A 
ATOM     26  C   UNL     1       2.635   7.125  19.624  0.00  0.00    +0.000 A 
BRANCH  24  27
ATOM     27  C   UNL     1       0.219  10.086  19.575  0.00  0.00    +0.000 C 
BRANCH  27  28
ATOM     28  C   UNL     1       0.280  11.449  18.867  0.00  0.00    +0.000 C 
ATOM     29  S   UNL     1       0.884  12.828  19.901  0.00  0.00    +0.000 S 
ATOM     30  C   UNL     1      -0.556  13.780  19.646  0.00  0.00    +0.000 C 
ATOM     31  O   UNL     1      -0.737  14.883  20.134  0.00  0.00    +0.000 OA
ATOM     32  N   UNL     1      -1.411  13.135  18.816  0.00  0.00    +0.000 N 
ATOM     33  C   UNL     1      -1.067  11.903  18.349  0.00  0.00    +0.000 C 
ATOM     34  O   UNL     1      -1.770  11.259  17.575  0.00  0.00    +0.000 OA
ATOM     35  H   UNL     1      -2.289  13.562  18.567  0.00  0.00    +0.000 HD
ENDBRANCH  27  28
ENDBRANCH  24  27
ENDBRANCH  20  21
ENDBRANCH   1  20
TORSDOF 7
ENDMDL
MODEL 6
REMARK VINA RESULT:      -9.8      1.758      1.950
REMARK  Name = 
REMARK  8 active torsions:
REMARK  status: ('A' for Active; 'I' for Inactive)
REMARK    1  A    between atoms: C_1  and  N_2
REMARK    2  A    between atoms: N_2  and  C_3
REMARK    3  A    between atoms: C_3  and  C_4
REMARK    4  A    between atoms: C_4  and  O_5
REMARK    5  A    between atoms: C_4  and  C_20
REMARK    6  A    between atoms: O_5  and  C_6
REMARK    7  A    between atoms: C_9  and  C_10
REMARK    8  A    between atoms: C_10  and  C_11
REMARK                            x       y       z     vdW  Elec       q    Type
REMARK                         _______ _______ _______ _____ _____    ______ ____
ROOT
ATOM      1  C   UNL     1       4.230   5.117  19.112  0.00  0.00    +0.000 C 
ENDROOT
BRANCH   1   2
ATOM      2  C   UNL     1       2.957   4.315  19.357  0.00  0.00    +0.000 A 
ATOM      3  C   UNL     1       2.543   4.052  20.670  0.00  0.00    +0.000 A 
ATOM      4  C   UNL     1       1.421   3.261  20.910  0.00  0.00    +0.000 A 
ATOM      5  C   UNL     1       0.701   2.727  19.842  0.00  0.00    +0.000 A 
ATOM      6  C   UNL     1       1.096   2.990  18.532  0.00  0.00    +0.000 A 
ATOM      7  C   UNL     1       2.218   3.780  18.290  0.00  0.00    +0.000 A 
ENDBRANCH   1   2
BRANCH   1   8
ATOM      8  C   UNL     1       5.335   4.136  18.617  0.00  0.00    +0.000 C 
BRANCH   8  10
ATOM      9  C   UNL     1       7.067   5.945  18.522  0.00  0.00    +0.000 C 
ATOM     10  N   UNL     1       6.456   4.781  17.906  0.00  0.00    +0.000 N 
ATOM     11  C   UNL     1       6.502   4.631  16.560  0.00  0.00    +0.000 A 
ATOM     12  N   UNL     1       5.842   3.753  15.835  0.00  0.00    +0.000 NA
ATOM     13  C   UNL     1       6.273   3.969  14.562  0.00  0.00    +0.000 A 
ATOM     14  C   UNL     1       5.957   3.311  13.369  0.00  0.00    +0.000 A 
ATOM     15  C   UNL     1       6.571   3.749  12.190  0.00  0.00    +0.000 A 
ATOM     16  C   UNL     1       7.466   4.826  12.202  0.00  0.00    +0.000 A 
ATOM     17  C   UNL     1       7.787   5.503  13.390  0.00  0.00    +0.000 A 
ATOM     18  C   UNL     1       7.172   5.023  14.541  0.00  0.00    +0.000 A 
ATOM     19  O   UNL     1       7.324   5.458  15.830  0.00  0.00    +0.000 OA
ENDBRANCH   8  10
ENDBRANCH   1   8
BRANCH   1  20
ATOM     20  O   UNL     1       3.963   6.133  18.125  0.00  0.00    +0.000 OA
BRANCH  20  21
ATOM     21  C   UNL     1       3.016   7.070  18.454  0.00  0.00    +0.000 A 
ATOM     22  C   UNL     1       2.456   7.214  19.722  0.00  0.00    +0.000 A 
ATOM     23  C   UNL     1       1.595   8.279  19.999  0.00  0.00    +0.000 A 
ATOM     24  C   UNL     1       1.309   9.242  19.024  0.00  0.00    +0.000 A 
ATOM     25  C   UNL     1       1.831   9.068  17.737  0.00  0.00    +0.000 A 
ATOM     26  C   UNL     1       2.687   7.994  17.460  0.00  0.00    +0.000 A 
BRANCH  24  27
ATOM     27  C   UNL     1       0.519  10.479  19.393  0.00  0.00    +0.000 C 
BRANCH  27  28
ATOM     28  C   UNL     1       0.803  11.046  20.793  0.00  0.00    +0.000 C 
ATOM     29  S   UNL     1      -0.594  10.942  21.964  0.00  0.00    +0.000 S 
ATOM     30  C   UNL     1      -0.600  12.661  22.263  0.00  0.00    +0.000 C 
ATOM     31  O   UNL     1      -1.382  13.218  23.015  0.00  0.00    +0.000 OA
ATOM     32  N   UNL     1       0.394  13.267  21.570  0.00  0.00    +0.000 N 
ATOM     33  C   UNL     1       1.191  12.508  20.768  0.00  0.00    +0.000 C 
ATOM     34  O   UNL     1       2.129  12.969  20.124  0.00  0.00    +0.000 OA
ATOM     35  H   UNL     1       0.525  14.263  21.644  0.00  0.00    +0.000 HD
ENDBRANCH  27  28
ENDBRANCH  24  27
ENDBRANCH  20  21
ENDBRANCH   1  20
TORSDOF 7
ENDMDL
MODEL 7
REMARK VINA RESULT:      -9.7      1.741      2.265
REMARK  Name = 
REMARK  8 active torsions:
REMARK  status: ('A' for Active; 'I' for Inactive)
REMARK    1  A    between atoms: C_1  and  N_2
REMARK    2  A    between atoms: N_2  and  C_3
REMARK    3  A    between atoms: C_3  and  C_4
REMARK    4  A    between atoms: C_4  and  O_5
REMARK    5  A    between atoms: C_4  and  C_20
REMARK    6  A    between atoms: O_5  and  C_6
REMARK    7  A    between atoms: C_9  and  C_10
REMARK    8  A    between atoms: C_10  and  C_11
REMARK                            x       y       z     vdW  Elec       q    Type
REMARK                         _______ _______ _______ _____ _____    ______ ____
ROOT
ATOM      1  C   UNL     1       4.064   5.048  18.951  0.00  0.00    +0.000 C 
ENDROOT
BRANCH   1   2
ATOM      2  C   UNL     1       2.870   4.185  19.341  0.00  0.00    +0.000 A 
ATOM      3  C   UNL     1       2.054   3.635  18.342  0.00  0.00    +0.000 A 
ATOM      4  C   UNL     1       0.919   2.902  18.683  0.00  0.00    +0.000 A 
ATOM      5  C   UNL     1       0.587   2.712  20.025  0.00  0.00    +0.000 A 
ATOM      6  C   UNL     1       1.396   3.245  21.026  0.00  0.00    +0.000 A 
ATOM      7  C   UNL     1       2.531   3.978  20.688  0.00  0.00    +0.000 A 
ENDBRANCH   1   2
BRANCH   1   8
ATOM      8  C   UNL     1       5.202   4.106  18.453  0.00  0.00    +0.000 C 
BRANCH   8  10
ATOM      9  C   UNL     1       6.858   5.986  18.403  0.00  0.00    +0.000 C 
ATOM     10  N   UNL     1       6.317   4.794  17.774  0.00  0.00    +0.000 N 
ATOM     11  C   UNL     1       6.413   4.641  16.431  0.00  0.00    +0.000 A 
ATOM     12  N   UNL     1       5.814   3.733  15.690  0.00  0.00    +0.000 NA
ATOM     13  C   UNL     1       6.276   3.962  14.430  0.00  0.00    +0.000 A 
ATOM     14  C   UNL     1       6.027   3.286  13.232  0.00  0.00    +0.000 A 
ATOM     15  C   UNL     1       6.660   3.744  12.071  0.00  0.00    +0.000 A 
ATOM     16  C   UNL     1       7.508   4.859  12.106  0.00  0.00    +0.000 A 
ATOM     17  C   UNL     1       7.762   5.553  13.299  0.00  0.00    +0.000 A 
ATOM     18  C   UNL     1       7.130   5.053  14.433  0.00  0.00    +0.000 A 
ATOM     19  O   UNL     1       7.222   5.499  15.724  0.00  0.00    +0.000 OA
ENDBRANCH   8  10
ENDBRANCH   1   8
BRANCH   1  20
ATOM     20  O   UNL     1       3.663   5.965  17.914  0.00  0.00    +0.000 OA
BRANCH  20  21
ATOM     21  C   UNL     1       2.979   7.084  18.318  0.00  0.00    +0.000 A 
ATOM     22  C   UNL     1       2.660   8.156  17.487  0.00  0.00    +0.000 A 
ATOM     23  C   UNL     1       1.849   9.195  17.952  0.00  0.00    +0.000 A 
ATOM     24  C   UNL     1       1.311   9.161  19.244  0.00  0.00    +0.000 A 
ATOM     25  C   UNL     1       1.673   8.109  20.093  0.00  0.00    +0.000 A 
ATOM     26  C   UNL     1       2.494   7.074  19.627  0.00  0.00    +0.000 A 
BRANCH  24  27
ATOM     27  C   UNL     1       0.296  10.201  19.666  0.00  0.00    +0.000 C 
BRANCH  27  28
ATOM     28  C   UNL     1       0.765  11.167  20.766  0.00  0.00    +0.000 C 
ATOM     29  S   UNL     1      -0.513  11.619  21.989  0.00  0.00    +0.000 S 
ATOM     30  C   UNL     1      -0.344  13.329  21.681  0.00  0.00    +0.000 C 
ATOM     31  O   UNL     1      -0.997  14.189  22.245  0.00  0.00    +0.000 OA
ATOM     32  N   UNL     1       0.624  13.551  20.759  0.00  0.00    +0.000 N 
ATOM     33  C   UNL     1       1.270  12.483  20.216  0.00  0.00    +0.000 C 
ATOM     34  O   UNL     1       2.175  12.593  19.394  0.00  0.00    +0.000 OA
ATOM     35  H   UNL     1       0.845  14.493  20.479  0.00  0.00    +0.000 HD
ENDBRANCH  27  28
ENDBRANCH  24  27
ENDBRANCH  20  21
ENDBRANCH   1  20
TORSDOF 7
ENDMDL
MODEL 8
REMARK VINA RESULT:      -9.6      1.787      2.047
REMARK  Name = 
REMARK  8 active torsions:
REMARK  status: ('A' for Active; 'I' for Inactive)
REMARK    1  A    between atoms: C_1  and  N_2
REMARK    2  A    between atoms: N_2  and  C_3
REMARK    3  A    between atoms: C_3  and  C_4
REMARK    4  A    between atoms: C_4  and  O_5
REMARK    5  A    between atoms: C_4  and  C_20
REMARK    6  A    between atoms: O_5  and  C_6
REMARK    7  A    between atoms: C_9  and  C_10
REMARK    8  A    between atoms: C_10  and  C_11
REMARK                            x       y       z     vdW  Elec       q    Type
REMARK                         _______ _______ _______ _____ _____    ______ ____
ROOT
ATOM      1  C   UNL     1       4.244   5.159  19.137  0.00  0.00    +0.000 C 
ENDROOT
BRANCH   1   2
ATOM      2  C   UNL     1       2.965   4.360  19.357  0.00  0.00    +0.000 A 
ATOM      3  C   UNL     1       2.540   4.074  20.662  0.00  0.00    +0.000 A 
ATOM      4  C   UNL     1       1.411   3.286  20.878  0.00  0.00    +0.000 A 
ATOM      5  C   UNL     1       0.696   2.776  19.795  0.00  0.00    +0.000 A 
ATOM      6  C   UNL     1       1.102   3.062  18.493  0.00  0.00    +0.000 A 
ATOM      7  C   UNL     1       2.231   3.850  18.274  0.00  0.00    +0.000 A 
ENDBRANCH   1   2
BRANCH   1   8
ATOM      8  C   UNL     1       5.354   4.177  18.654  0.00  0.00    +0.000 C 
BRANCH   8  10
ATOM      9  C   UNL     1       7.092   5.979  18.559  0.00  0.00    +0.000 C 
ATOM     10  N   UNL     1       6.476   4.819  17.942  0.00  0.00    +0.000 N 
ATOM     11  C   UNL     1       6.519   4.671  16.596  0.00  0.00    +0.000 A 
ATOM     12  N   UNL     1       5.854   3.798  15.870  0.00  0.00    +0.000 NA
ATOM     13  C   UNL     1       6.283   4.015  14.597  0.00  0.00    +0.000 A 
ATOM     14  C   UNL     1       5.962   3.361  13.403  0.00  0.00    +0.000 A 
ATOM     15  C   UNL     1       6.575   3.799  12.224  0.00  0.00    +0.000 A 
ATOM     16  C   UNL     1       7.475   4.873  12.237  0.00  0.00    +0.000 A 
ATOM     17  C   UNL     1       7.801   5.545  13.425  0.00  0.00    +0.000 A 
ATOM     18  C   UNL     1       7.186   5.066  14.577  0.00  0.00    +0.000 A 
ATOM     19  O   UNL     1       7.342   5.497  15.866  0.00  0.00    +0.000 OA
ENDBRANCH   8  10
ENDBRANCH   1   8
BRANCH   1  20
ATOM     20  O   UNL     1       3.996   6.181  18.151  0.00  0.00    +0.000 OA
BRANCH  20  21
ATOM     21  C   UNL     1       3.025   7.101  18.456  0.00  0.00    +0.000 A 
ATOM     22  C   UNL     1       2.497   7.297  19.732  0.00  0.00    +0.000 A 
ATOM     23  C   UNL     1       1.604   8.344  19.974  0.00  0.00    +0.000 A 
ATOM     24  C   UNL     1       1.253   9.238  18.956  0.00  0.00    +0.000 A 
ATOM     25  C   UNL     1       1.745   9.009  17.666  0.00  0.00    +0.000 A 
ATOM     26  C   UNL     1       2.632   7.953  17.422  0.00  0.00    +0.000 A 
BRANCH  24  27
ATOM     27  C   UNL     1       0.428  10.465  19.279  0.00  0.00    +0.000 C 
BRANCH  27  28
ATOM     28  C   UNL     1       1.180  11.588  20.011  0.00  0.00    +0.000 C 
ATOM     29  S   UNL     1       0.171  12.547  21.192  0.00  0.00    +0.000 S 
ATOM     30  C   UNL     1       0.518  14.067  20.406  0.00  0.00    +0.000 C 
ATOM     31  O   UNL     1       0.077  15.141  20.778  0.00  0.00    +0.000 OA
ATOM     32  N   UNL     1       1.359  13.879  19.360  0.00  0.00    +0.000 N 
ATOM     33  C   UNL     1       1.769  12.614  19.067  0.00  0.00    +0.000 C 
ATOM     34  O   UNL     1       2.547  12.355  18.155  0.00  0.00    +0.000 OA
ATOM     35  H   UNL     1       1.659  14.666  18.808  0.00  0.00    +0.000 HD
ENDBRANCH  27  28
ENDBRANCH  24  27
ENDBRANCH  20  21
ENDBRANCH   1  20
TORSDOF 7
ENDMDL
MODEL 9
REMARK VINA RESULT:      -9.6      2.925      9.300
REMARK  Name = 
REMARK  8 active torsions:
REMARK  status: ('A' for Active; 'I' for Inactive)
REMARK    1  A    between atoms: C_1  and  N_2
REMARK    2  A    between atoms: N_2  and  C_3
REMARK    3  A    between atoms: C_3  and  C_4
REMARK    4  A    between atoms: C_4  and  O_5
REMARK    5  A    between atoms: C_4  and  C_20
REMARK    6  A    between atoms: O_5  and  C_6
REMARK    7  A    between atoms: C_9  and  C_10
REMARK    8  A    between atoms: C_10  and  C_11
REMARK                            x       y       z     vdW  Elec       q    Type
REMARK                         _______ _______ _______ _____ _____    ______ ____
ROOT
ATOM      1  C   UNL     1       2.652   6.366  19.312  0.00  0.00    +0.000 C 
ENDROOT
BRANCH   1   2
ATOM      2  C   UNL     1       1.941   5.018  19.358  0.00  0.00    +0.000 A 
ATOM      3  C   UNL     1       1.531   4.491  20.591  0.00  0.00    +0.000 A 
ATOM      4  C   UNL     1       0.943   3.229  20.656  0.00  0.00    +0.000 A 
ATOM      5  C   UNL     1       0.760   2.482  19.493  0.00  0.00    +0.000 A 
ATOM      6  C   UNL     1       1.154   3.000  18.261  0.00  0.00    +0.000 A 
ATOM      7  C   UNL     1       1.742   4.261  18.193  0.00  0.00    +0.000 A 
ENDBRANCH   1   2
BRANCH   1   8
ATOM      8  C   UNL     1       1.875   7.357  20.232  0.00  0.00    +0.000 C 
BRANCH   8  10
ATOM      9  C   UNL     1       2.075   8.985  18.338  0.00  0.00    +0.000 C 
ATOM     10  N   UNL     1       1.398   8.578  19.556  0.00  0.00    +0.000 N 
ATOM     11  C   UNL     1       0.780   9.508  20.323  0.00  0.00    +0.000 A 
ATOM     12  N   UNL     1       0.296   9.344  21.536  0.00  0.00    +0.000 NA
ATOM     13  C   UNL     1      -0.268  10.544  21.843  0.00  0.00    +0.000 A 
ATOM     14  C   UNL     1      -0.973  10.955  22.980  0.00  0.00    +0.000 A 
ATOM     15  C   UNL     1      -1.458  12.267  23.018  0.00  0.00    +0.000 A 
ATOM     16  C   UNL     1      -1.231  13.149  21.953  0.00  0.00    +0.000 A 
ATOM     17  C   UNL     1      -0.519  12.755  20.809  0.00  0.00    +0.000 A 
ATOM     18  C   UNL     1      -0.072  11.437  20.803  0.00  0.00    +0.000 A 
ATOM     19  O   UNL     1       0.607  10.775  19.816  0.00  0.00    +0.000 OA
ENDBRANCH   8  10
ENDBRANCH   1   8
BRANCH   1  20
ATOM     20  O   UNL     1       4.009   6.198  19.767  0.00  0.00    +0.000 OA
BRANCH  20  21
ATOM     21  C   UNL     1       4.941   5.889  18.808  0.00  0.00    +0.000 A 
ATOM     22  C   UNL     1       5.650   4.690  18.755  0.00  0.00    +0.000 A 
ATOM     23  C   UNL     1       6.484   4.409  17.670  0.00  0.00    +0.000 A 
ATOM     24  C   UNL     1       6.594   5.304  16.599  0.00  0.00    +0.000 A 
ATOM     25  C   UNL     1       5.921   6.528  16.678  0.00  0.00    +0.000 A 
ATOM     26  C   UNL     1       5.093   6.812  17.772  0.00  0.00    +0.000 A 
BRANCH  24  27
ATOM     27  C   UNL     1       7.360   4.904  15.357  0.00  0.00    +0.000 C 
BRANCH  27  28
ATOM     28  C   UNL     1       6.572   4.999  14.041  0.00  0.00    +0.000 C 
ATOM     29  S   UNL     1       5.373   3.650  13.762  0.00  0.00    +0.000 S 
ATOM     30  C   UNL     1       6.094   3.191  12.240  0.00  0.00    +0.000 C 
ATOM     31  O   UNL     1       5.689   2.275  11.546  0.00  0.00    +0.000 OA
ATOM     32  N   UNL     1       7.131   4.010  11.940  0.00  0.00    +0.000 N 
ATOM     33  C   UNL     1       7.465   4.995  12.819  0.00  0.00    +0.000 C 
ATOM     34  O   UNL     1       8.373   5.795  12.616  0.00  0.00    +0.000 OA
ATOM     35  H   UNL     1       7.647   3.876  11.085  0.00  0.00    +0.000 HD
ENDBRANCH  27  28
ENDBRANCH  24  27
ENDBRANCH  20  21
ENDBRANCH   1  20
TORSDOF 7
ENDMDL
