MODEL 1
REMARK VINA RESULT:      -8.1      0.000      0.000
REMARK  Name = 
REMARK  5 active torsions:
REMARK  status: ('A' for Active; 'I' for Inactive)
REMARK    1  A    between atoms: C_1  and  C_2
REMARK    2  A    between atoms: C_6  and  C_8
REMARK    3  A    between atoms: C_12  and  C_13
REMARK    4  A    between atoms: C_13  and  S_14
REMARK    5  A    between atoms: S_14  and  C_17
REMARK                            x       y       z     vdW  Elec       q    Type
REMARK                         _______ _______ _______ _____ _____    ______ ____
ROOT
ATOM      1  C   UNL     1       1.716   8.208  20.038  0.00  0.00    +0.000 A 
ATOM      2  C   UNL     1       1.965   8.889  18.846  0.00  0.00    +0.000 A 
ATOM      3  C   UNL     1       2.515   8.199  17.767  0.00  0.00    +0.000 A 
ATOM      4  C   UNL     1       2.825   6.844  17.880  0.00  0.00    +0.000 A 
ATOM      5  C   UNL     1       2.554   6.138  19.057  0.00  0.00    +0.000 A 
ATOM      6  C   UNL     1       1.964   6.834  20.115  0.00  0.00    +0.000 A 
ENDROOT
BRANCH   1  12
ATOM      7  C   UNL     1      -1.437  13.801  20.120  0.00  0.00    +0.000 C 
ATOM      8  C   UNL     1      -1.395  12.317  20.475  0.00  0.00    +0.000 C 
ATOM      9  C   UNL     1      -0.592  12.088  21.764  0.00  0.00    +0.000 C 
ATOM     10  C   UNL     1      -0.452  10.602  22.088  0.00  0.00    +0.000 C 
ATOM     11  N   UNL     1       0.086   9.868  20.947  0.00  0.00    +0.000 N 
ATOM     12  C   UNL     1       1.106   8.941  21.182  0.00  0.00    +0.000 C 
ATOM     13  O   UNL     1       1.558   8.702  22.302  0.00  0.00    +0.000 OA
ATOM     14  C   UNL     1      -0.691  10.027  19.716  0.00  0.00    +0.000 C 
ATOM     15  C   UNL     1      -0.798  11.496  19.324  0.00  0.00    +0.000 C 
ENDBRANCH   1  12
BRANCH   5  16
ATOM     16  C   UNL     1       2.994   4.699  19.163  0.00  0.00    +0.000 C 
BRANCH  16  17
ATOM     17  S   UNL     1       4.763   4.512  19.165  0.00  0.00    +0.000 S 
ATOM     18  O   UNL     1       5.333   5.681  19.859  0.00  0.00    +0.000 OA
ATOM     19  O   UNL     1       5.011   3.211  19.698  0.00  0.00    +0.000 OA
BRANCH  17  20
ATOM     20  C   UNL     1       5.398   4.600  17.506  0.00  0.00    +0.000 A 
ATOM     21  C   UNL     1       4.651   4.049  16.443  0.00  0.00    +0.000 A 
ATOM     22 CL   UNL     1       3.150   3.213  16.610  0.00  0.00    +0.000 Cl
ATOM     23  C   UNL     1       5.156   4.077  15.136  0.00  0.00    +0.000 A 
ATOM     24  C   UNL     1       6.379   4.667  14.859  0.00  0.00    +0.000 A 
ATOM     25  C   UNL     1       7.110   5.230  15.894  0.00  0.00    +0.000 A 
ATOM     26  C   UNL     1       6.630   5.201  17.215  0.00  0.00    +0.000 A 
ATOM     27 CL   UNL     1       7.754   5.859  18.356  0.00  0.00    +0.000 Cl
ENDBRANCH  17  20
ENDBRANCH  16  17
ENDBRANCH   5  16
TORSDOF 4
ENDMDL
MODEL 2
REMARK VINA RESULT:      -8.1      0.082      1.782
REMARK  Name = 
REMARK  5 active torsions:
REMARK  status: ('A' for Active; 'I' for Inactive)
REMARK    1  A    between atoms: C_1  and  C_2
REMARK    2  A    between atoms: C_6  and  C_8
REMARK    3  A    between atoms: C_12  and  C_13
REMARK    4  A    between atoms: C_13  and  S_14
REMARK    5  A    between atoms: S_14  and  C_17
REMARK                            x       y       z     vdW  Elec       q    Type
REMARK                         _______ _______ _______ _____ _____    ______ ____
ROOT
ATOM      1  C   UNL     1       1.742   8.147  20.042  0.00  0.00    +0.000 A 
ATOM      2  C   UNL     1       1.982   8.809  18.837  0.00  0.00    +0.000 A 
ATOM      3  C   UNL     1       2.540   8.109  17.770  0.00  0.00    +0.000 A 
ATOM      4  C   UNL     1       2.867   6.759  17.907  0.00  0.00    +0.000 A 
ATOM      5  C   UNL     1       2.607   6.071  19.096  0.00  0.00    +0.000 A 
ATOM      6  C   UNL     1       2.008   6.778  20.142  0.00  0.00    +0.000 A 
ENDROOT
BRANCH   1  12
ATOM      7  C   UNL     1      -1.405  13.743  20.042  0.00  0.00    +0.000 C 
ATOM      8  C   UNL     1      -1.367  12.263  20.411  0.00  0.00    +0.000 C 
ATOM      9  C   UNL     1      -0.576  12.045  21.709  0.00  0.00    +0.000 C 
ATOM     10  C   UNL     1      -0.441  10.562  22.049  0.00  0.00    +0.000 C 
ATOM     11  N   UNL     1       0.106   9.817  20.920  0.00  0.00    +0.000 N 
ATOM     12  C   UNL     1       1.123   8.891  21.173  0.00  0.00    +0.000 C 
ATOM     13  O   UNL     1       1.565   8.662  22.299  0.00  0.00    +0.000 OA
ATOM     14  C   UNL     1      -0.660   9.965  19.680  0.00  0.00    +0.000 C 
ATOM     15  C   UNL     1      -0.761  11.430  19.273  0.00  0.00    +0.000 C 
ENDBRANCH   1  12
BRANCH   5  16
ATOM     16  C   UNL     1       3.065   4.640  19.226  0.00  0.00    +0.000 C 
BRANCH  16  17
ATOM     17  S   UNL     1       4.836   4.472  19.184  0.00  0.00    +0.000 S 
ATOM     18  O   UNL     1       5.412   5.665  19.830  0.00  0.00    +0.000 OA
ATOM     19  O   UNL     1       5.113   3.188  19.744  0.00  0.00    +0.000 OA
BRANCH  17  20
ATOM     20  C   UNL     1       5.424   4.521  17.506  0.00  0.00    +0.000 A 
ATOM     21  C   UNL     1       6.678   5.104  17.222  0.00  0.00    +0.000 A 
ATOM     22 CL   UNL     1       7.711   5.856  18.382  0.00  0.00    +0.000 Cl
ATOM     23  C   UNL     1       7.136   5.183  15.900  0.00  0.00    +0.000 A 
ATOM     24  C   UNL     1       6.385   4.669  14.855  0.00  0.00    +0.000 A 
ATOM     25  C   UNL     1       5.163   4.075  15.127  0.00  0.00    +0.000 A 
ATOM     26  C   UNL     1       4.675   3.998  16.444  0.00  0.00    +0.000 A 
ATOM     27 CL   UNL     1       3.084   3.321  16.535  0.00  0.00    +0.000 Cl
ENDBRANCH  17  20
ENDBRANCH  16  17
ENDBRANCH   5  16
TORSDOF 4
ENDMDL
MODEL 3
REMARK VINA RESULT:      -7.5      3.413      8.581
REMARK  Name = 
REMARK  5 active torsions:
REMARK  status: ('A' for Active; 'I' for Inactive)
REMARK    1  A    between atoms: C_1  and  C_2
REMARK    2  A    between atoms: C_6  and  C_8
REMARK    3  A    between atoms: C_12  and  C_13
REMARK    4  A    between atoms: C_13  and  S_14
REMARK    5  A    between atoms: S_14  and  C_17
REMARK                            x       y       z     vdW  Elec       q    Type
REMARK                         _______ _______ _______ _____ _____    ______ ____
ROOT
ATOM      1  C   UNL     1       4.162   5.527  19.511  0.00  0.00    +0.000 A 
ATOM      2  C   UNL     1       3.490   4.508  20.187  0.00  0.00    +0.000 A 
ATOM      3  C   UNL     1       2.180   4.718  20.613  0.00  0.00    +0.000 A 
ATOM      4  C   UNL     1       1.549   5.939  20.376  0.00  0.00    +0.000 A 
ATOM      5  C   UNL     1       2.196   6.961  19.674  0.00  0.00    +0.000 A 
ATOM      6  C   UNL     1       3.494   6.720  19.218  0.00  0.00    +0.000 A 
ENDROOT
BRANCH   1  12
ATOM      7  C   UNL     1       6.289   3.921  13.670  0.00  0.00    +0.000 C 
ATOM      8  C   UNL     1       6.351   4.858  14.873  0.00  0.00    +0.000 C 
ATOM      9  C   UNL     1       7.217   4.256  15.989  0.00  0.00    +0.000 C 
ATOM     10  C   UNL     1       7.215   5.129  17.242  0.00  0.00    +0.000 C 
ATOM     11  N   UNL     1       5.852   5.416  17.675  0.00  0.00    +0.000 N 
ATOM     12  C   UNL     1       5.554   5.292  19.035  0.00  0.00    +0.000 C 
ATOM     13  O   UNL     1       6.386   4.971  19.884  0.00  0.00    +0.000 OA
ATOM     14  C   UNL     1       5.017   6.040  16.646  0.00  0.00    +0.000 C 
ATOM     15  C   UNL     1       4.942   5.164  15.400  0.00  0.00    +0.000 C 
ENDBRANCH   1  12
BRANCH   5  16
ATOM     16  C   UNL     1       1.507   8.295  19.526  0.00  0.00    +0.000 C 
BRANCH  16  17
ATOM     17  S   UNL     1       0.818   8.893  21.054  0.00  0.00    +0.000 S 
ATOM     18  O   UNL     1      -0.395   8.103  21.334  0.00  0.00    +0.000 OA
ATOM     19  O   UNL     1       1.889   8.861  21.997  0.00  0.00    +0.000 OA
BRANCH  17  20
ATOM     20  C   UNL     1       0.250  10.568  20.864  0.00  0.00    +0.000 A 
ATOM     21  C   UNL     1       0.621  11.306  19.720  0.00  0.00    +0.000 A 
ATOM     22 CL   UNL     1       1.663  10.739  18.466  0.00  0.00    +0.000 Cl
ATOM     23  C   UNL     1       0.212  12.638  19.576  0.00  0.00    +0.000 A 
ATOM     24  C   UNL     1      -0.583  13.245  20.534  0.00  0.00    +0.000 A 
ATOM     25  C   UNL     1      -0.972  12.521  21.650  0.00  0.00    +0.000 A 
ATOM     26  C   UNL     1      -0.561  11.188  21.824  0.00  0.00    +0.000 A 
ATOM     27 CL   UNL     1      -1.066  10.518  23.339  0.00  0.00    +0.000 Cl
ENDBRANCH  17  20
ENDBRANCH  16  17
ENDBRANCH   5  16
TORSDOF 4
ENDMDL
MODEL 4
REMARK VINA RESULT:      -7.5      3.367      8.640
REMARK  Name = 
REMARK  5 active torsions:
REMARK  status: ('A' for Active; 'I' for Inactive)
REMARK    1  A    between atoms: C_1  and  C_2
REMARK    2  A    between atoms: C_6  and  C_8
REMARK    3  A    between atoms: C_12  and  C_13
REMARK    4  A    between atoms: C_13  and  S_14
REMARK    5  A    between atoms: S_14  and  C_17
REMARK                            x       y       z     vdW  Elec       q    Type
REMARK                         _______ _______ _______ _____ _____    ______ ____
ROOT
ATOM      1  C   UNL     1       4.162   5.473  19.515  0.00  0.00    +0.000 A 
ATOM      2  C   UNL     1       3.452   4.468  20.172  0.00  0.00    +0.000 A 
ATOM      3  C   UNL     1       2.147   4.716  20.593  0.00  0.00    +0.000 A 
ATOM      4  C   UNL     1       1.559   5.961  20.370  0.00  0.00    +0.000 A 
ATOM      5  C   UNL     1       2.245   6.970  19.687  0.00  0.00    +0.000 A 
ATOM      6  C   UNL     1       3.537   6.691  19.235  0.00  0.00    +0.000 A 
ENDROOT
BRANCH   1  12
ATOM      7  C   UNL     1       6.281   3.952  13.648  0.00  0.00    +0.000 C 
ATOM      8  C   UNL     1       6.367   4.852  14.878  0.00  0.00    +0.000 C 
ATOM      9  C   UNL     1       7.199   4.185  15.983  0.00  0.00    +0.000 C 
ATOM     10  C   UNL     1       7.219   5.022  17.260  0.00  0.00    +0.000 C 
ATOM     11  N   UNL     1       5.864   5.349  17.691  0.00  0.00    +0.000 N 
ATOM     12  C   UNL     1       5.548   5.198  19.044  0.00  0.00    +0.000 C 
ATOM     13  O   UNL     1       6.359   4.821  19.890  0.00  0.00    +0.000 OA
ATOM     14  C   UNL     1       5.063   6.033  16.673  0.00  0.00    +0.000 C 
ATOM     15  C   UNL     1       4.966   5.197  15.402  0.00  0.00    +0.000 C 
ENDBRANCH   1  12
BRANCH   5  16
ATOM     16  C   UNL     1       1.602   8.329  19.554  0.00  0.00    +0.000 C 
BRANCH  16  17
ATOM     17  S   UNL     1       0.700   8.814  21.009  0.00  0.00    +0.000 S 
ATOM     18  O   UNL     1      -0.282   7.754  21.299  0.00  0.00    +0.000 OA
ATOM     19  O   UNL     1       1.691   9.118  21.991  0.00  0.00    +0.000 OA
BRANCH  17  20
ATOM     20  C   UNL     1      -0.268  10.270  20.681  0.00  0.00    +0.000 A 
ATOM     21  C   UNL     1      -0.849  10.979  21.756  0.00  0.00    +0.000 A 
ATOM     22 CL   UNL     1      -0.757  10.519  23.417  0.00  0.00    +0.000 Cl
ATOM     23  C   UNL     1      -1.644  12.105  21.509  0.00  0.00    +0.000 A 
ATOM     24  C   UNL     1      -1.854  12.559  20.217  0.00  0.00    +0.000 A 
ATOM     25  C   UNL     1      -1.270  11.883  19.158  0.00  0.00    +0.000 A 
ATOM     26  C   UNL     1      -0.479  10.741  19.379  0.00  0.00    +0.000 A 
ATOM     27 CL   UNL     1       0.053   9.994  17.910  0.00  0.00    +0.000 Cl
ENDBRANCH  17  20
ENDBRANCH  16  17
ENDBRANCH   5  16
TORSDOF 4
ENDMDL
MODEL 5
REMARK VINA RESULT:      -7.4      6.036      8.187
REMARK  Name = 
REMARK  5 active torsions:
REMARK  status: ('A' for Active; 'I' for Inactive)
REMARK    1  A    between atoms: C_1  and  C_2
REMARK    2  A    between atoms: C_6  and  C_8
REMARK    3  A    between atoms: C_12  and  C_13
REMARK    4  A    between atoms: C_13  and  S_14
REMARK    5  A    between atoms: S_14  and  C_17
REMARK                            x       y       z     vdW  Elec       q    Type
REMARK                         _______ _______ _______ _____ _____    ______ ____
ROOT
ATOM      1  C   UNL     1      -3.977  11.204  18.264  0.00  0.00    +0.000 A 
ATOM      2  C   UNL     1      -3.767  10.005  17.584  0.00  0.00    +0.000 A 
ATOM      3  C   UNL     1      -2.474   9.655  17.198  0.00  0.00    +0.000 A 
ATOM      4  C   UNL     1      -1.401  10.502  17.478  0.00  0.00    +0.000 A 
ATOM      5  C   UNL     1      -1.589  11.694  18.185  0.00  0.00    +0.000 A 
ATOM      6  C   UNL     1      -2.885  12.009  18.601  0.00  0.00    +0.000 A 
ENDROOT
BRANCH   1  12
ATOM      7  C   UNL     1      -6.183  12.719  24.101  0.00  0.00    +0.000 C 
ATOM      8  C   UNL     1      -6.043  13.072  22.622  0.00  0.00    +0.000 C 
ATOM      9  C   UNL     1      -7.093  12.330  21.783  0.00  0.00    +0.000 C 
ATOM     10  C   UNL     1      -6.911  12.591  20.289  0.00  0.00    +0.000 C 
ATOM     11  N   UNL     1      -5.544  12.300  19.872  0.00  0.00    +0.000 N 
ATOM     12  C   UNL     1      -5.356  11.565  18.698  0.00  0.00    +0.000 C 
ATOM     13  O   UNL     1      -6.284  11.167  17.992  0.00  0.00    +0.000 OA
ATOM     14  C   UNL     1      -4.522  13.035  20.621  0.00  0.00    +0.000 C 
ATOM     15  C   UNL     1      -4.631  12.749  22.115  0.00  0.00    +0.000 C 
ENDBRANCH   1  12
BRANCH   5  16
ATOM     16  C   UNL     1      -0.414  12.620  18.380  0.00  0.00    +0.000 C 
BRANCH  16  17
ATOM     17  S   UNL     1       0.877  11.903  19.372  0.00  0.00    +0.000 S 
ATOM     18  O   UNL     1       1.460  10.786  18.606  0.00  0.00    +0.000 OA
ATOM     19  O   UNL     1       1.723  12.991  19.747  0.00  0.00    +0.000 OA
BRANCH  17  20
ATOM     20  C   UNL     1       0.194  11.158  20.835  0.00  0.00    +0.000 A 
ATOM     21  C   UNL     1      -0.561  11.945  21.732  0.00  0.00    +0.000 A 
ATOM     22 CL   UNL     1      -0.846  13.640  21.572  0.00  0.00    +0.000 Cl
ATOM     23  C   UNL     1      -1.074  11.379  22.907  0.00  0.00    +0.000 A 
ATOM     24  C   UNL     1      -0.875  10.039  23.197  0.00  0.00    +0.000 A 
ATOM     25  C   UNL     1      -0.155   9.253  22.311  0.00  0.00    +0.000 A 
ATOM     26  C   UNL     1       0.382   9.802  21.133  0.00  0.00    +0.000 A 
ATOM     27 CL   UNL     1       1.338   8.670  20.237  0.00  0.00    +0.000 Cl
ENDBRANCH  17  20
ENDBRANCH  16  17
ENDBRANCH   5  16
TORSDOF 4
ENDMDL
MODEL 6
REMARK VINA RESULT:      -7.4      4.189      9.159
REMARK  Name = 
REMARK  5 active torsions:
REMARK  status: ('A' for Active; 'I' for Inactive)
REMARK    1  A    between atoms: C_1  and  C_2
REMARK    2  A    between atoms: C_6  and  C_8
REMARK    3  A    between atoms: C_12  and  C_13
REMARK    4  A    between atoms: C_13  and  S_14
REMARK    5  A    between atoms: S_14  and  C_17
REMARK                            x       y       z     vdW  Elec       q    Type
REMARK                         _______ _______ _______ _____ _____    ______ ____
ROOT
ATOM      1  C   UNL     1       2.384   7.740  18.911  0.00  0.00    +0.000 A 
ATOM      2  C   UNL     1       2.058   7.200  20.155  0.00  0.00    +0.000 A 
ATOM      3  C   UNL     1       1.170   7.882  20.986  0.00  0.00    +0.000 A 
ATOM      4  C   UNL     1       0.621   9.099  20.582  0.00  0.00    +0.000 A 
ATOM      5  C   UNL     1       0.913   9.641  19.326  0.00  0.00    +0.000 A 
ATOM      6  C   UNL     1       1.772   8.924  18.489  0.00  0.00    +0.000 A 
ENDROOT
BRANCH   1  12
ATOM      7  C   UNL     1       3.481   1.431  18.448  0.00  0.00    +0.000 C 
ATOM      8  C   UNL     1       3.119   2.749  17.770  0.00  0.00    +0.000 C 
ATOM      9  C   UNL     1       4.380   3.577  17.482  0.00  0.00    +0.000 C 
ATOM     10  C   UNL     1       4.038   4.944  16.892  0.00  0.00    +0.000 C 
ATOM     11  N   UNL     1       3.078   5.649  17.734  0.00  0.00    +0.000 N 
ATOM     12  C   UNL     1       3.314   6.998  18.015  0.00  0.00    +0.000 C 
ATOM     13  O   UNL     1       4.281   7.622  17.575  0.00  0.00    +0.000 OA
ATOM     14  C   UNL     1       1.842   4.904  17.982  0.00  0.00    +0.000 C 
ATOM     15  C   UNL     1       2.139   3.557  18.632  0.00  0.00    +0.000 C 
ENDBRANCH   1  12
BRANCH   5  16
ATOM     16  C   UNL     1       0.369  11.003  18.975  0.00  0.00    +0.000 C 
BRANCH  16  17
ATOM     17  S   UNL     1       1.445  12.330  19.472  0.00  0.00    +0.000 S 
ATOM     18  O   UNL     1       1.788  12.117  20.890  0.00  0.00    +0.000 OA
ATOM     19  O   UNL     1       2.499  12.351  18.509  0.00  0.00    +0.000 OA
BRANCH  17  20
ATOM     20  C   UNL     1       0.578  13.882  19.430  0.00  0.00    +0.000 A 
ATOM     21  C   UNL     1       1.164  14.992  18.784  0.00  0.00    +0.000 A 
ATOM     22 CL   UNL     1       2.728  15.007  18.054  0.00  0.00    +0.000 Cl
ATOM     23  C   UNL     1       0.508  16.230  18.775  0.00  0.00    +0.000 A 
ATOM     24  C   UNL     1      -0.733  16.382  19.373  0.00  0.00    +0.000 A 
ATOM     25  C   UNL     1      -1.326  15.292  19.990  0.00  0.00    +0.000 A 
ATOM     26  C   UNL     1      -0.681  14.043  20.024  0.00  0.00    +0.000 A 
ATOM     27 CL   UNL     1      -1.549  12.860  20.943  0.00  0.00    +0.000 Cl
ENDBRANCH  17  20
ENDBRANCH  16  17
ENDBRANCH   5  16
TORSDOF 4
ENDMDL
MODEL 7
REMARK VINA RESULT:      -7.4      6.318      8.673
REMARK  Name = 
REMARK  5 active torsions:
REMARK  status: ('A' for Active; 'I' for Inactive)
REMARK    1  A    between atoms: C_1  and  C_2
REMARK    2  A    between atoms: C_6  and  C_8
REMARK    3  A    between atoms: C_12  and  C_13
REMARK    4  A    between atoms: C_13  and  S_14
REMARK    5  A    between atoms: S_14  and  C_17
REMARK                            x       y       z     vdW  Elec       q    Type
REMARK                         _______ _______ _______ _____ _____    ______ ____
ROOT
ATOM      1  C   UNL     1      -4.613  10.897  17.890  0.00  0.00    +0.000 A 
ATOM      2  C   UNL     1      -4.728  11.183  16.529  0.00  0.00    +0.000 A 
ATOM      3  C   UNL     1      -3.596  11.114  15.718  0.00  0.00    +0.000 A 
ATOM      4  C   UNL     1      -2.358  10.773  16.263  0.00  0.00    +0.000 A 
ATOM      5  C   UNL     1      -2.230  10.454  17.619  0.00  0.00    +0.000 A 
ATOM      6  C   UNL     1      -3.381  10.488  18.409  0.00  0.00    +0.000 A 
ENDROOT
BRANCH   1  12
ATOM      7  C   UNL     1      -5.588  13.972  23.441  0.00  0.00    +0.000 C 
ATOM      8  C   UNL     1      -6.032  13.683  22.009  0.00  0.00    +0.000 C 
ATOM      9  C   UNL     1      -6.810  12.361  21.937  0.00  0.00    +0.000 C 
ATOM     10  C   UNL     1      -7.181  12.001  20.500  0.00  0.00    +0.000 C 
ATOM     11  N   UNL     1      -6.004  12.012  19.639  0.00  0.00    +0.000 N 
ATOM     12  C   UNL     1      -5.828  10.948  18.750  0.00  0.00    +0.000 C 
ATOM     13  O   UNL     1      -6.623  10.014  18.646  0.00  0.00    +0.000 OA
ATOM     14  C   UNL     1      -5.271  13.280  19.648  0.00  0.00    +0.000 C 
ATOM     15  C   UNL     1      -4.826  13.643  21.061  0.00  0.00    +0.000 C 
ENDBRANCH   1  12
BRANCH   5  16
ATOM     16  C   UNL     1      -0.855  10.185  18.178  0.00  0.00    +0.000 C 
BRANCH  16  17
ATOM     17  S   UNL     1      -0.110  11.625  18.911  0.00  0.00    +0.000 S 
ATOM     18  O   UNL     1       1.343  11.390  18.977  0.00  0.00    +0.000 OA
ATOM     19  O   UNL     1      -0.591  12.734  18.151  0.00  0.00    +0.000 OA
BRANCH  17  20
ATOM     20  C   UNL     1      -0.632  11.800  20.602  0.00  0.00    +0.000 A 
ATOM     21  C   UNL     1      -0.548  10.694  21.477  0.00  0.00    +0.000 A 
ATOM     22 CL   UNL     1      -0.024   9.111  21.032  0.00  0.00    +0.000 Cl
ATOM     23  C   UNL     1      -0.990  10.807  22.801  0.00  0.00    +0.000 A 
ATOM     24  C   UNL     1      -1.490  12.006  23.284  0.00  0.00    +0.000 A 
ATOM     25  C   UNL     1      -1.555  13.103  22.440  0.00  0.00    +0.000 A 
ATOM     26  C   UNL     1      -1.131  13.009  21.102  0.00  0.00    +0.000 A 
ATOM     27 CL   UNL     1      -1.409  14.463  20.203  0.00  0.00    +0.000 Cl
ENDBRANCH  17  20
ENDBRANCH  16  17
ENDBRANCH   5  16
TORSDOF 4
ENDMDL
MODEL 8
REMARK VINA RESULT:      -7.4      4.169      9.062
REMARK  Name = 
REMARK  5 active torsions:
REMARK  status: ('A' for Active; 'I' for Inactive)
REMARK    1  A    between atoms: C_1  and  C_2
REMARK    2  A    between atoms: C_6  and  C_8
REMARK    3  A    between atoms: C_12  and  C_13
REMARK    4  A    between atoms: C_13  and  S_14
REMARK    5  A    between atoms: S_14  and  C_17
REMARK                            x       y       z     vdW  Elec       q    Type
REMARK                         _______ _______ _______ _____ _____    ______ ____
ROOT
ATOM      1  C   UNL     1       2.383   7.735  18.906  0.00  0.00    +0.000 A 
ATOM      2  C   UNL     1       2.051   7.201  20.151  0.00  0.00    +0.000 A 
ATOM      3  C   UNL     1       1.168   7.892  20.979  0.00  0.00    +0.000 A 
ATOM      4  C   UNL     1       0.630   9.113  20.573  0.00  0.00    +0.000 A 
ATOM      5  C   UNL     1       0.927   9.649  19.316  0.00  0.00    +0.000 A 
ATOM      6  C   UNL     1       1.781   8.924  18.481  0.00  0.00    +0.000 A 
ENDROOT
BRANCH   1  12
ATOM      7  C   UNL     1       3.457   1.419  18.488  0.00  0.00    +0.000 C 
ATOM      8  C   UNL     1       3.097   2.734  17.801  0.00  0.00    +0.000 C 
ATOM      9  C   UNL     1       4.360   3.555  17.502  0.00  0.00    +0.000 C 
ATOM     10  C   UNL     1       4.019   4.918  16.902  0.00  0.00    +0.000 C 
ATOM     11  N   UNL     1       3.064   5.633  17.742  0.00  0.00    +0.000 N 
ATOM     12  C   UNL     1       3.307   6.983  18.012  0.00  0.00    +0.000 C 
ATOM     13  O   UNL     1       4.273   7.601  17.564  0.00  0.00    +0.000 OA
ATOM     14  C   UNL     1       1.827   4.893  18.001  0.00  0.00    +0.000 C 
ATOM     15  C   UNL     1       2.122   3.551  18.660  0.00  0.00    +0.000 C 
ENDBRANCH   1  12
BRANCH   5  16
ATOM     16  C   UNL     1       0.396  11.016  18.962  0.00  0.00    +0.000 C 
BRANCH  16  17
ATOM     17  S   UNL     1       1.441  12.337  19.535  0.00  0.00    +0.000 S 
ATOM     18  O   UNL     1       1.760  12.071  20.949  0.00  0.00    +0.000 OA
ATOM     19  O   UNL     1       2.512  12.415  18.593  0.00  0.00    +0.000 OA
BRANCH  17  20
ATOM     20  C   UNL     1       0.549  13.876  19.540  0.00  0.00    +0.000 A 
ATOM     21  C   UNL     1      -0.721  13.945  20.153  0.00  0.00    +0.000 A 
ATOM     22 CL   UNL     1      -1.551  12.615  20.874  0.00  0.00    +0.000 Cl
ATOM     23  C   UNL     1      -1.451  15.141  20.131  0.00  0.00    +0.000 A 
ATOM     24  C   UNL     1      -0.933  16.280  19.536  0.00  0.00    +0.000 A 
ATOM     25  C   UNL     1       0.323  16.227  18.951  0.00  0.00    +0.000 A 
ATOM     26  C   UNL     1       1.067  15.035  18.947  0.00  0.00    +0.000 A 
ATOM     27 CL   UNL     1       2.552  15.169  18.064  0.00  0.00    +0.000 Cl
ENDBRANCH  17  20
ENDBRANCH  16  17
ENDBRANCH   5  16
TORSDOF 4
ENDMDL
MODEL 9
REMARK VINA RESULT:      -7.3      2.000      2.938
REMARK  Name = 
REMARK  5 active torsions:
REMARK  status: ('A' for Active; 'I' for Inactive)
REMARK    1  A    between atoms: C_1  and  C_2
REMARK    2  A    between atoms: C_6  and  C_8
REMARK    3  A    between atoms: C_12  and  C_13
REMARK    4  A    between atoms: C_13  and  S_14
REMARK    5  A    between atoms: S_14  and  C_17
REMARK                            x       y       z     vdW  Elec       q    Type
REMARK                         _______ _______ _______ _____ _____    ______ ____
ROOT
ATOM      1  C   UNL     1       1.965   7.482  19.472  0.00  0.00    +0.000 A 
ATOM      2  C   UNL     1       1.548   6.771  20.598  0.00  0.00    +0.000 A 
ATOM      3  C   UNL     1       1.903   5.429  20.730  0.00  0.00    +0.000 A 
ATOM      4  C   UNL     1       2.658   4.799  19.741  0.00  0.00    +0.000 A 
ATOM      5  C   UNL     1       3.110   5.504  18.620  0.00  0.00    +0.000 A 
ATOM      6  C   UNL     1       2.781   6.858  18.524  0.00  0.00    +0.000 A 
ENDROOT
BRANCH   1  12
ATOM      7  C   UNL     1      -1.756  11.133  23.220  0.00  0.00    +0.000 C 
ATOM      8  C   UNL     1      -0.417  10.914  22.521  0.00  0.00    +0.000 C 
ATOM      9  C   UNL     1      -0.499  11.330  21.045  0.00  0.00    +0.000 C 
ATOM     10  C   UNL     1       0.799  11.029  20.298  0.00  0.00    +0.000 C 
ATOM     11  N   UNL     1       1.190   9.635  20.473  0.00  0.00    +0.000 N 
ATOM     12  C   UNL     1       1.606   8.921  19.345  0.00  0.00    +0.000 C 
ATOM     13  O   UNL     1       1.675   9.415  18.219  0.00  0.00    +0.000 OA
ATOM     14  C   UNL     1       1.327   9.225  21.872  0.00  0.00    +0.000 C 
ATOM     15  C   UNL     1       0.028   9.450  22.637  0.00  0.00    +0.000 C 
ENDBRANCH   1  12
BRANCH   5  16
ATOM     16  C   UNL     1       3.841   4.754  17.534  0.00  0.00    +0.000 C 
BRANCH  16  17
ATOM     17  S   UNL     1       5.545   4.437  17.936  0.00  0.00    +0.000 S 
ATOM     18  O   UNL     1       5.593   3.971  19.333  0.00  0.00    +0.000 OA
ATOM     19  O   UNL     1       6.027   3.571  16.908  0.00  0.00    +0.000 OA
BRANCH  17  20
ATOM     20  C   UNL     1       6.479   5.951  17.916  0.00  0.00    +0.000 A 
ATOM     21  C   UNL     1       6.167   6.951  16.969  0.00  0.00    +0.000 A 
ATOM     22 CL   UNL     1       4.960   6.819  15.742  0.00  0.00    +0.000 Cl
ATOM     23  C   UNL     1       6.918   8.132  16.918  0.00  0.00    +0.000 A 
ATOM     24  C   UNL     1       7.958   8.353  17.807  0.00  0.00    +0.000 A 
ATOM     25  C   UNL     1       8.257   7.387  18.755  0.00  0.00    +0.000 A 
ATOM     26  C   UNL     1       7.526   6.187  18.816  0.00  0.00    +0.000 A 
ATOM     27 CL   UNL     1       8.144   5.080  19.996  0.00  0.00    +0.000 Cl
ENDBRANCH  17  20
ENDBRANCH  16  17
ENDBRANCH   5  16
TORSDOF 4
ENDMDL
