MODEL 1
REMARK VINA RESULT:      -6.9      0.000      0.000
REMARK  Name = 
REMARK  3 active torsions:
REMARK  status: ('A' for Active; 'I' for Inactive)
REMARK    1  A    between atoms: C_8  and  C_9
REMARK    2  A    between atoms: C_14  and  C_15
REMARK    3  A    between atoms: C_17  and  O_18
REMARK                            x       y       z     vdW  Elec       q    Type
REMARK                         _______ _______ _______ _____ _____    ______ ____
ROOT
ATOM      1  C   UNL     1       2.538   3.682  21.634  0.00  0.00    +0.000 C 
ATOM      2  C   UNL     1       2.983   3.083  20.520  0.00  0.00    +0.000 C 
ATOM      3  C   UNL     1       4.116   2.122  20.573  0.00  0.00    +0.000 C 
ATOM      4  O   UNL     1       4.611   1.644  21.576  0.00  0.00    +0.000 OA
ATOM      5  O   UNL     1       4.402   1.753  19.292  0.00  0.00    +0.000 OA
ATOM      6  C   UNL     1       3.733   2.633  18.341  0.00  0.00    +0.000 C 
ATOM      7  C   UNL     1       4.866   3.513  17.731  0.00  0.00    +0.000 C 
ATOM      8  C   UNL     1       4.982   4.989  18.005  0.00  0.00    +0.000 C 
ATOM      9  C   UNL     1       4.612   5.906  17.088  0.00  0.00    +0.000 C 
ATOM     10  C   UNL     1       4.331   7.373  17.328  0.00  0.00    +0.000 C 
ATOM     11  C   UNL     1       2.846   7.602  17.705  0.00  0.00    +0.000 C 
ATOM     12  C   UNL     1       2.280   6.483  18.570  0.00  0.00    +0.000 C 
ATOM     13  C   UNL     1       2.467   6.628  20.049  0.00  0.00    +0.000 C 
ATOM     14  C   UNL     1       1.819   5.364  17.972  0.00  0.00    +0.000 C 
ATOM     15  C   UNL     1       1.422   4.059  18.582  0.00  0.00    +0.000 C 
ATOM     16  C   UNL     1       2.480   3.059  19.116  0.00  0.00    +0.000 C 
ENDROOT
BRANCH   8  17
ATOM     17  C   UNL     1       5.552   5.388  19.319  0.00  0.00    +0.000 C 
ATOM     18  O   UNL     1       6.656   5.021  19.698  0.00  0.00    +0.000 OA
ENDBRANCH   8  17
BRANCH  15  19
ATOM     19  O   UNL     1       0.718   3.361  17.532  0.00  0.00    +0.000 OA
ATOM     20  H   UNL     1       0.497   4.018  16.847  0.00  0.00    +0.000 HD
ENDBRANCH  15  19
TORSDOF 2
ENDMDL
MODEL 2
REMARK VINA RESULT:      -6.4      1.779      3.274
REMARK  Name = 
REMARK  3 active torsions:
REMARK  status: ('A' for Active; 'I' for Inactive)
REMARK    1  A    between atoms: C_8  and  C_9
REMARK    2  A    between atoms: C_14  and  C_15
REMARK    3  A    between atoms: C_17  and  O_18
REMARK                            x       y       z     vdW  Elec       q    Type
REMARK                         _______ _______ _______ _____ _____    ______ ____
ROOT
ATOM      1  C   UNL     1       2.822   4.737  21.181  0.00  0.00    +0.000 C 
ATOM      2  C   UNL     1       2.150   4.588  20.031  0.00  0.00    +0.000 C 
ATOM      3  C   UNL     1       1.203   3.458  19.843  0.00  0.00    +0.000 C 
ATOM      4  O   UNL     1       0.800   2.702  20.707  0.00  0.00    +0.000 OA
ATOM      5  O   UNL     1       0.746   3.513  18.560  0.00  0.00    +0.000 OA
ATOM      6  C   UNL     1       1.552   4.432  17.765  0.00  0.00    +0.000 C 
ATOM      7  C   UNL     1       2.395   3.525  16.819  0.00  0.00    +0.000 C 
ATOM      8  C   UNL     1       3.887   3.377  16.955  0.00  0.00    +0.000 C 
ATOM      9  C   UNL     1       4.736   4.001  16.110  0.00  0.00    +0.000 C 
ATOM     10  C   UNL     1       6.213   4.245  16.320  0.00  0.00    +0.000 C 
ATOM     11  C   UNL     1       6.458   5.583  17.062  0.00  0.00    +0.000 C 
ATOM     12  C   UNL     1       5.399   5.870  18.119  0.00  0.00    +0.000 C 
ATOM     13  C   UNL     1       5.649   5.302  19.481  0.00  0.00    +0.000 C 
ATOM     14  C   UNL     1       4.237   6.445  17.740  0.00  0.00    +0.000 C 
ATOM     15  C   UNL     1       2.976   6.632  18.519  0.00  0.00    +0.000 C 
ATOM     16  C   UNL     1       2.023   5.446  18.816  0.00  0.00    +0.000 C 
ENDROOT
BRANCH   8  17
ATOM     17  C   UNL     1       4.383   2.490  18.040  0.00  0.00    +0.000 C 
ATOM     18  O   UNL     1       3.743   1.532  18.451  0.00  0.00    +0.000 OA
ENDBRANCH   8  17
BRANCH  15  19
ATOM     19  O   UNL     1       2.201   7.571  17.742  0.00  0.00    +0.000 OA
ATOM     20  H   UNL     1       1.882   7.098  16.952  0.00  0.00    +0.000 HD
ENDBRANCH  15  19
TORSDOF 2
ENDMDL
MODEL 3
REMARK VINA RESULT:      -6.3      1.934      4.660
REMARK  Name = 
REMARK  3 active torsions:
REMARK  status: ('A' for Active; 'I' for Inactive)
REMARK    1  A    between atoms: C_8  and  C_9
REMARK    2  A    between atoms: C_14  and  C_15
REMARK    3  A    between atoms: C_17  and  O_18
REMARK                            x       y       z     vdW  Elec       q    Type
REMARK                         _______ _______ _______ _____ _____    ______ ____
ROOT
ATOM      1  C   UNL     1       4.884   6.678  15.905  0.00  0.00    +0.000 C 
ATOM      2  C   UNL     1       5.234   5.444  16.293  0.00  0.00    +0.000 C 
ATOM      3  C   UNL     1       5.364   4.343  15.302  0.00  0.00    +0.000 C 
ATOM      4  O   UNL     1       5.365   4.458  14.091  0.00  0.00    +0.000 OA
ATOM      5  O   UNL     1       5.636   3.199  15.992  0.00  0.00    +0.000 OA
ATOM      6  C   UNL     1       5.402   3.390  17.418  0.00  0.00    +0.000 C 
ATOM      7  C   UNL     1       4.103   2.588  17.732  0.00  0.00    +0.000 C 
ATOM      8  C   UNL     1       2.806   3.257  18.102  0.00  0.00    +0.000 C 
ATOM      9  C   UNL     1       2.367   3.284  19.378  0.00  0.00    +0.000 C 
ATOM     10  C   UNL     1       1.309   4.195  19.958  0.00  0.00    +0.000 C 
ATOM     11  C   UNL     1       1.931   5.518  20.470  0.00  0.00    +0.000 C 
ATOM     12  C   UNL     1       3.074   6.008  19.590  0.00  0.00    +0.000 C 
ATOM     13  C   UNL     1       2.694   6.873  18.428  0.00  0.00    +0.000 C 
ATOM     14  C   UNL     1       4.312   5.505  19.785  0.00  0.00    +0.000 C 
ATOM     15  C   UNL     1       5.536   5.648  18.941  0.00  0.00    +0.000 C 
ATOM     16  C   UNL     1       5.690   4.886  17.600  0.00  0.00    +0.000 C 
ENDROOT
BRANCH   8  17
ATOM     17  C   UNL     1       2.017   3.860  16.995  0.00  0.00    +0.000 C 
ATOM     18  O   UNL     1       0.850   4.202  17.129  0.00  0.00    +0.000 OA
ENDBRANCH   8  17
BRANCH  15  19
ATOM     19  O   UNL     1       6.617   5.186  19.780  0.00  0.00    +0.000 OA
ATOM     20  H   UNL     1       7.449   5.418  19.331  0.00  0.00    +0.000 HD
ENDBRANCH  15  19
TORSDOF 2
ENDMDL
MODEL 4
REMARK VINA RESULT:      -6.3      2.376      4.831
REMARK  Name = 
REMARK  3 active torsions:
REMARK  status: ('A' for Active; 'I' for Inactive)
REMARK    1  A    between atoms: C_8  and  C_9
REMARK    2  A    between atoms: C_14  and  C_15
REMARK    3  A    between atoms: C_17  and  O_18
REMARK                            x       y       z     vdW  Elec       q    Type
REMARK                         _______ _______ _______ _____ _____    ______ ____
ROOT
ATOM      1  C   UNL     1       7.661   4.520  18.179  0.00  0.00    +0.000 C 
ATOM      2  C   UNL     1       7.018   5.459  17.471  0.00  0.00    +0.000 C 
ATOM      3  C   UNL     1       7.246   6.904  17.738  0.00  0.00    +0.000 C 
ATOM      4  O   UNL     1       8.121   7.379  18.437  0.00  0.00    +0.000 OA
ATOM      5  O   UNL     1       6.397   7.609  16.938  0.00  0.00    +0.000 OA
ATOM      6  C   UNL     1       5.388   6.731  16.358  0.00  0.00    +0.000 C 
ATOM      7  C   UNL     1       4.063   7.083  17.099  0.00  0.00    +0.000 C 
ATOM      8  C   UNL     1       3.391   6.132  18.054  0.00  0.00    +0.000 C 
ATOM      9  C   UNL     1       2.290   5.437  17.696  0.00  0.00    +0.000 C 
ATOM     10  C   UNL     1       1.724   4.214  18.381  0.00  0.00    +0.000 C 
ATOM     11  C   UNL     1       2.352   2.916  17.811  0.00  0.00    +0.000 C 
ATOM     12  C   UNL     1       3.825   3.080  17.462  0.00  0.00    +0.000 C 
ATOM     13  C   UNL     1       4.802   2.825  18.568  0.00  0.00    +0.000 C 
ATOM     14  C   UNL     1       4.159   3.610  16.266  0.00  0.00    +0.000 C 
ATOM     15  C   UNL     1       5.492   4.070  15.772  0.00  0.00    +0.000 C 
ATOM     16  C   UNL     1       6.130   5.391  16.274  0.00  0.00    +0.000 C 
ENDROOT
BRANCH   8  17
ATOM     17  C   UNL     1       3.975   6.017  19.416  0.00  0.00    +0.000 C 
ATOM     18  O   UNL     1       3.360   5.538  20.358  0.00  0.00    +0.000 OA
ENDBRANCH   8  17
BRANCH  15  19
ATOM     19  O   UNL     1       5.319   4.234  14.348  0.00  0.00    +0.000 OA
ATOM     20  H   UNL     1       4.373   4.400  14.189  0.00  0.00    +0.000 HD
ENDBRANCH  15  19
TORSDOF 2
ENDMDL
MODEL 5
REMARK VINA RESULT:      -6.2      9.357     11.936
REMARK  Name = 
REMARK  3 active torsions:
REMARK  status: ('A' for Active; 'I' for Inactive)
REMARK    1  A    between atoms: C_8  and  C_9
REMARK    2  A    between atoms: C_14  and  C_15
REMARK    3  A    between atoms: C_17  and  O_18
REMARK                            x       y       z     vdW  Elec       q    Type
REMARK                         _______ _______ _______ _____ _____    ______ ____
ROOT
ATOM      1  C   UNL     1       8.368  12.132  17.566  0.00  0.00    +0.000 C 
ATOM      2  C   UNL     1       9.621  11.886  17.974  0.00  0.00    +0.000 C 
ATOM      3  C   UNL     1       9.892  10.878  19.032  0.00  0.00    +0.000 C 
ATOM      4  O   UNL     1       9.099  10.072  19.482  0.00  0.00    +0.000 OA
ATOM      5  O   UNL     1      11.228  10.913  19.301  0.00  0.00    +0.000 OA
ATOM      6  C   UNL     1      11.842  12.095  18.707  0.00  0.00    +0.000 C 
ATOM      7  C   UNL     1      12.160  13.038  19.907  0.00  0.00    +0.000 C 
ATOM      8  C   UNL     1      11.435  14.338  20.130  0.00  0.00    +0.000 C 
ATOM      9  C   UNL     1      12.010  15.524  19.836  0.00  0.00    +0.000 C 
ATOM     10  C   UNL     1      11.313  16.855  19.663  0.00  0.00    +0.000 C 
ATOM     11  C   UNL     1      10.861  17.061  18.195  0.00  0.00    +0.000 C 
ATOM     12  C   UNL     1      10.385  15.770  17.541  0.00  0.00    +0.000 C 
ATOM     13  C   UNL     1       8.939  15.426  17.726  0.00  0.00    +0.000 C 
ATOM     14  C   UNL     1      11.299  14.934  17.003  0.00  0.00    +0.000 C 
ATOM     15  C   UNL     1      11.127  13.536  16.506  0.00  0.00    +0.000 C 
ATOM     16  C   UNL     1      10.953  12.344  17.482  0.00  0.00    +0.000 C 
ENDROOT
BRANCH   8  17
ATOM     17  C   UNL     1      10.071  14.259  20.716  0.00  0.00    +0.000 C 
ATOM     18  O   UNL     1       9.717  13.338  21.440  0.00  0.00    +0.000 OA
ENDBRANCH   8  17
BRANCH  15  19
ATOM     19  O   UNL     1      12.333  13.260  15.761  0.00  0.00    +0.000 OA
ATOM     20  H   UNL     1      12.950  12.813  16.368  0.00  0.00    +0.000 HD
ENDBRANCH  15  19
TORSDOF 2
ENDMDL
MODEL 6
REMARK VINA RESULT:      -6.2      1.717      4.316
REMARK  Name = 
REMARK  3 active torsions:
REMARK  status: ('A' for Active; 'I' for Inactive)
REMARK    1  A    between atoms: C_8  and  C_9
REMARK    2  A    between atoms: C_14  and  C_15
REMARK    3  A    between atoms: C_17  and  O_18
REMARK                            x       y       z     vdW  Elec       q    Type
REMARK                         _______ _______ _______ _____ _____    ______ ____
ROOT
ATOM      1  C   UNL     1       5.687   4.071  15.896  0.00  0.00    +0.000 C 
ATOM      2  C   UNL     1       5.792   4.679  17.086  0.00  0.00    +0.000 C 
ATOM      3  C   UNL     1       7.032   4.554  17.898  0.00  0.00    +0.000 C 
ATOM      4  O   UNL     1       8.093   4.090  17.528  0.00  0.00    +0.000 OA
ATOM      5  O   UNL     1       6.814   5.193  19.082  0.00  0.00    +0.000 OA
ATOM      6  C   UNL     1       5.396   5.487  19.255  0.00  0.00    +0.000 C 
ATOM      7  C   UNL     1       4.902   4.500  20.355  0.00  0.00    +0.000 C 
ATOM      8  C   UNL     1       3.954   3.368  20.061  0.00  0.00    +0.000 C 
ATOM      9  C   UNL     1       2.650   3.438  20.400  0.00  0.00    +0.000 C 
ATOM     10  C   UNL     1       1.525   2.576  19.873  0.00  0.00    +0.000 C 
ATOM     11  C   UNL     1       0.906   3.189  18.591  0.00  0.00    +0.000 C 
ATOM     12  C   UNL     1       1.945   3.857  17.700  0.00  0.00    +0.000 C 
ATOM     13  C   UNL     1       2.630   2.974  16.703  0.00  0.00    +0.000 C 
ATOM     14  C   UNL     1       2.318   5.126  17.968  0.00  0.00    +0.000 C 
ATOM     15  C   UNL     1       3.447   5.922  17.398  0.00  0.00    +0.000 C 
ATOM     16  C   UNL     1       4.917   5.650  17.806  0.00  0.00    +0.000 C 
ENDROOT
BRANCH   8  17
ATOM     17  C   UNL     1       4.525   2.160  19.410  0.00  0.00    +0.000 C 
ATOM     18  O   UNL     1       5.152   1.312  20.030  0.00  0.00    +0.000 OA
ENDBRANCH   8  17
BRANCH  15  19
ATOM     19  O   UNL     1       3.175   7.283  17.798  0.00  0.00    +0.000 OA
ATOM     20  H   UNL     1       3.840   7.524  18.468  0.00  0.00    +0.000 HD
ENDBRANCH  15  19
TORSDOF 2
ENDMDL
MODEL 7
REMARK VINA RESULT:      -5.9     10.029     11.682
REMARK  Name = 
REMARK  3 active torsions:
REMARK  status: ('A' for Active; 'I' for Inactive)
REMARK    1  A    between atoms: C_8  and  C_9
REMARK    2  A    between atoms: C_14  and  C_15
REMARK    3  A    between atoms: C_17  and  O_18
REMARK                            x       y       z     vdW  Elec       q    Type
REMARK                         _______ _______ _______ _____ _____    ______ ____
ROOT
ATOM      1  C   UNL     1       9.607  12.124  20.637  0.00  0.00    +0.000 C 
ATOM      2  C   UNL     1      10.108  12.271  19.403  0.00  0.00    +0.000 C 
ATOM      3  C   UNL     1      11.542  11.994  19.126  0.00  0.00    +0.000 C 
ATOM      4  O   UNL     1      12.331  11.453  19.877  0.00  0.00    +0.000 OA
ATOM      5  O   UNL     1      11.779  12.316  17.823  0.00  0.00    +0.000 OA
ATOM      6  C   UNL     1      10.668  13.082  17.272  0.00  0.00    +0.000 C 
ATOM      7  C   UNL     1      11.203  14.539  17.130  0.00  0.00    +0.000 C 
ATOM      8  C   UNL     1      10.700  15.674  17.981  0.00  0.00    +0.000 C 
ATOM      9  C   UNL     1       9.841  16.593  17.492  0.00  0.00    +0.000 C 
ATOM     10  C   UNL     1       8.984  17.552  18.287  0.00  0.00    +0.000 C 
ATOM     11  C   UNL     1       7.617  16.916  18.642  0.00  0.00    +0.000 C 
ATOM     12  C   UNL     1       7.725  15.428  18.951  0.00  0.00    +0.000 C 
ATOM     13  C   UNL     1       8.033  15.066  20.371  0.00  0.00    +0.000 C 
ATOM     14  C   UNL     1       7.721  14.546  17.929  0.00  0.00    +0.000 C 
ATOM     15  C   UNL     1       8.024  13.083  17.939  0.00  0.00    +0.000 C 
ATOM     16  C   UNL     1       9.476  12.558  18.082  0.00  0.00    +0.000 C 
ENDROOT
BRANCH   8  17
ATOM     17  C   UNL     1      11.214  15.753  19.374  0.00  0.00    +0.000 C 
ATOM     18  O   UNL     1      12.304  15.303  19.700  0.00  0.00    +0.000 OA
ENDBRANCH   8  17
BRANCH  15  19
ATOM     19  O   UNL     1       7.557  12.602  16.660  0.00  0.00    +0.000 OA
ATOM     20  H   UNL     1       6.599  12.450  16.742  0.00  0.00    +0.000 HD
ENDBRANCH  15  19
TORSDOF 2
ENDMDL
MODEL 8
REMARK VINA RESULT:      -5.9      1.583      2.395
REMARK  Name = 
REMARK  3 active torsions:
REMARK  status: ('A' for Active; 'I' for Inactive)
REMARK    1  A    between atoms: C_8  and  C_9
REMARK    2  A    between atoms: C_14  and  C_15
REMARK    3  A    between atoms: C_17  and  O_18
REMARK                            x       y       z     vdW  Elec       q    Type
REMARK                         _______ _______ _______ _____ _____    ______ ____
ROOT
ATOM      1  C   UNL     1       1.791   5.062  21.130  0.00  0.00    +0.000 C 
ATOM      2  C   UNL     1       1.629   3.972  20.368  0.00  0.00    +0.000 C 
ATOM      3  C   UNL     1       1.578   2.617  20.977  0.00  0.00    +0.000 C 
ATOM      4  O   UNL     1       1.484   2.362  22.163  0.00  0.00    +0.000 OA
ATOM      5  O   UNL     1       1.501   1.711  19.961  0.00  0.00    +0.000 OA
ATOM      6  C   UNL     1       1.802   2.345  18.683  0.00  0.00    +0.000 C 
ATOM      7  C   UNL     1       3.211   1.813  18.283  0.00  0.00    +0.000 C 
ATOM      8  C   UNL     1       4.432   2.693  18.255  0.00  0.00    +0.000 C 
ATOM      9  C   UNL     1       4.946   3.147  17.093  0.00  0.00    +0.000 C 
ATOM     10  C   UNL     1       5.914   4.295  16.912  0.00  0.00    +0.000 C 
ATOM     11  C   UNL     1       5.160   5.639  16.747  0.00  0.00    +0.000 C 
ATOM     12  C   UNL     1       3.909   5.721  17.612  0.00  0.00    +0.000 C 
ATOM     13  C   UNL     1       4.098   6.231  19.007  0.00  0.00    +0.000 C 
ATOM     14  C   UNL     1       2.762   5.173  17.155  0.00  0.00    +0.000 C 
ATOM     15  C   UNL     1       1.477   4.929  17.876  0.00  0.00    +0.000 C 
ATOM     16  C   UNL     1       1.336   3.788  18.916  0.00  0.00    +0.000 C 
ENDROOT
BRANCH   8  17
ATOM     17  C   UNL     1       5.063   3.014  19.563  0.00  0.00    +0.000 C 
ATOM     18  O   UNL     1       5.104   2.215  20.488  0.00  0.00    +0.000 OA
ENDBRANCH   8  17
BRANCH  15  19
ATOM     19  O   UNL     1       0.522   4.630  16.835  0.00  0.00    +0.000 OA
ATOM     20  H   UNL     1      -0.218   4.153  17.251  0.00  0.00    +0.000 HD
ENDBRANCH  15  19
TORSDOF 2
ENDMDL
MODEL 9
REMARK VINA RESULT:      -5.8      1.732      4.390
REMARK  Name = 
REMARK  3 active torsions:
REMARK  status: ('A' for Active; 'I' for Inactive)
REMARK    1  A    between atoms: C_8  and  C_9
REMARK    2  A    between atoms: C_14  and  C_15
REMARK    3  A    between atoms: C_17  and  O_18
REMARK                            x       y       z     vdW  Elec       q    Type
REMARK                         _______ _______ _______ _____ _____    ______ ____
ROOT
ATOM      1  C   UNL     1       5.481   5.700  19.408  0.00  0.00    +0.000 C 
ATOM      2  C   UNL     1       5.231   4.738  18.510  0.00  0.00    +0.000 C 
ATOM      3  C   UNL     1       5.282   5.025  17.052  0.00  0.00    +0.000 C 
ATOM      4  O   UNL     1       5.716   6.034  16.530  0.00  0.00    +0.000 OA
ATOM      5  O   UNL     1       4.897   3.894  16.396  0.00  0.00    +0.000 OA
ATOM      6  C   UNL     1       4.293   2.942  17.321  0.00  0.00    +0.000 C 
ATOM      7  C   UNL     1       2.769   2.961  16.994  0.00  0.00    +0.000 C 
ATOM      8  C   UNL     1       1.744   3.524  17.942  0.00  0.00    +0.000 C 
ATOM      9  C   UNL     1       0.953   2.719  18.681  0.00  0.00    +0.000 C 
ATOM     10  C   UNL     1       0.152   3.104  19.905  0.00  0.00    +0.000 C 
ATOM     11  C   UNL     1       0.996   2.945  21.195  0.00  0.00    +0.000 C 
ATOM     12  C   UNL     1       2.457   3.323  20.992  0.00  0.00    +0.000 C 
ATOM     13  C   UNL     1       2.804   4.767  21.186  0.00  0.00    +0.000 C 
ATOM     14  C   UNL     1       3.305   2.404  20.482  0.00  0.00    +0.000 C 
ATOM     15  C   UNL     1       4.706   2.576  19.992  0.00  0.00    +0.000 C 
ATOM     16  C   UNL     1       5.010   3.268  18.638  0.00  0.00    +0.000 C 
ENDROOT
BRANCH   8  17
ATOM     17  C   UNL     1       1.622   5.005  18.002  0.00  0.00    +0.000 C 
ATOM     18  O   UNL     1       2.452   5.755  17.509  0.00  0.00    +0.000 OA
ENDBRANCH   8  17
BRANCH  15  19
ATOM     19  O   UNL     1       5.220   1.232  19.870  0.00  0.00    +0.000 OA
ATOM     20  H   UNL     1       5.445   1.094  18.932  0.00  0.00    +0.000 HD
ENDBRANCH  15  19
TORSDOF 2
ENDMDL
