MODEL 1
REMARK VINA RESULT:      -7.1      0.000      0.000
REMARK  Name = 
REMARK  8 active torsions:
REMARK  status: ('A' for Active; 'I' for Inactive)
REMARK    1  A    between atoms: C_1  and  N_2
REMARK    2  A    between atoms: C_6  and  O_7
REMARK    3  A    between atoms: N_10  and  N_11
REMARK    4  A    between atoms: C_12  and  C_14
REMARK    5  A    between atoms: C_14  and  C_15
REMARK    6  A    between atoms: C_14  and  C_16
REMARK    7  A    between atoms: C_14  and  C_17
REMARK    8  A    between atoms: N_20  and  C_21
REMARK                            x       y       z     vdW  Elec       q    Type
REMARK                         _______ _______ _______ _____ _____    ______ ____
ROOT
ATOM      1  C   UNL     1       3.793   1.280  18.519  0.00  0.00    +0.000 C 
ATOM      2  N   UNL     1       3.415   2.685  18.576  0.00  0.00    +0.000 N 
ATOM      3  C   UNL     1       4.072   3.571  17.748  0.00  0.00    +0.000 A 
ATOM      4  O   UNL     1       4.964   3.256  16.956  0.00  0.00    +0.000 OA
ATOM      5  C   UNL     1       3.682   4.981  17.819  0.00  0.00    +0.000 A 
ATOM      6  C   UNL     1       4.290   5.945  17.024  0.00  0.00    +0.000 A 
ATOM      7  C   UNL     1       3.898   7.276  17.123  0.00  0.00    +0.000 A 
ATOM      8  C   UNL     1       2.897   7.634  18.028  0.00  0.00    +0.000 A 
ATOM      9  N   UNL     1       2.555   8.995  18.133  0.00  0.00    +0.000 N 
ATOM     10  N   UNL     1       2.282   6.688  18.786  0.00  0.00    +0.000 NA
ATOM     11  C   UNL     1       2.687   5.380  18.690  0.00  0.00    +0.000 A 
ATOM     12  N   UNL     1       2.068   4.397  19.503  0.00  0.00    +0.000 N 
ATOM     13  C   UNL     1       1.021   4.796  20.427  0.00  0.00    +0.000 C 
ATOM     14  C   UNL     1       2.416   3.054  19.462  0.00  0.00    +0.000 A 
ATOM     15  O   UNL     1       1.857   2.216  20.188  0.00  0.00    +0.000 OA
ATOM     16  H   UNL     1       3.188   9.718  17.800  0.00  0.00    +0.000 HD
ENDROOT
BRANCH   9  17
ATOM     17  N   UNL     1       1.250   9.380  18.452  0.00  0.00    +0.000 N 
ATOM     18  C   UNL     1       1.002  10.740  18.617  0.00  0.00    +0.000 C 
ATOM     19  O   UNL     1       1.898  11.580  18.479  0.00  0.00    +0.000 OA
ATOM     20  H   UNL     1       0.586   8.635  18.635  0.00  0.00    +0.000 HD
BRANCH  18  21
ATOM     21  C   UNL     1      -0.457  11.143  18.981  0.00  0.00    +0.000 C 
ATOM     22  C   UNL     1      -1.462  10.251  18.239  0.00  0.00    +0.000 C 
ATOM     23  C   UNL     1      -0.690  10.999  20.501  0.00  0.00    +0.000 C 
ATOM     24  C   UNL     1      -0.731  12.605  18.600  0.00  0.00    +0.000 C 
ENDBRANCH  18  21
ENDBRANCH   9  17
BRANCH   6  25
ATOM     25  O   UNL     1       5.287   5.656  16.131  0.00  0.00    +0.000 OA
ATOM     26  H   UNL     1       6.099   6.149  16.386  0.00  0.00    +0.000 HD
ENDBRANCH   6  25
TORSDOF 3
ENDMDL
MODEL 2
REMARK VINA RESULT:      -7.1      2.734      8.188
REMARK  Name = 
REMARK  8 active torsions:
REMARK  status: ('A' for Active; 'I' for Inactive)
REMARK    1  A    between atoms: C_1  and  N_2
REMARK    2  A    between atoms: C_6  and  O_7
REMARK    3  A    between atoms: N_10  and  N_11
REMARK    4  A    between atoms: C_12  and  C_14
REMARK    5  A    between atoms: C_14  and  C_15
REMARK    6  A    between atoms: C_14  and  C_16
REMARK    7  A    between atoms: C_14  and  C_17
REMARK    8  A    between atoms: N_20  and  C_21
REMARK                            x       y       z     vdW  Elec       q    Type
REMARK                         _______ _______ _______ _____ _____    ______ ____
ROOT
ATOM      1  C   UNL     1      -2.629  13.183  20.616  0.00  0.00    +0.000 C 
ATOM      2  N   UNL     1      -1.748  12.037  20.443  0.00  0.00    +0.000 N 
ATOM      3  C   UNL     1      -1.170  11.483  21.566  0.00  0.00    +0.000 A 
ATOM      4  O   UNL     1      -1.351  11.890  22.716  0.00  0.00    +0.000 OA
ATOM      5  C   UNL     1      -0.285  10.332  21.374  0.00  0.00    +0.000 A 
ATOM      6  C   UNL     1       0.342   9.710  22.447  0.00  0.00    +0.000 A 
ATOM      7  C   UNL     1       1.182   8.624  22.226  0.00  0.00    +0.000 A 
ATOM      8  C   UNL     1       1.394   8.170  20.924  0.00  0.00    +0.000 A 
ATOM      9  N   UNL     1       2.284   7.097  20.732  0.00  0.00    +0.000 N 
ATOM     10  N   UNL     1       0.761   8.761  19.876  0.00  0.00    +0.000 NA
ATOM     11  C   UNL     1      -0.055   9.840  20.104  0.00  0.00    +0.000 A 
ATOM     12  N   UNL     1      -0.691  10.477  19.009  0.00  0.00    +0.000 N 
ATOM     13  C   UNL     1      -0.462   9.976  17.665  0.00  0.00    +0.000 C 
ATOM     14  C   UNL     1      -1.535  11.570  19.156  0.00  0.00    +0.000 A 
ATOM     15  O   UNL     1      -2.077  12.107  18.177  0.00  0.00    +0.000 OA
ATOM     16  H   UNL     1       2.963   6.850  21.448  0.00  0.00    +0.000 HD
ENDROOT
BRANCH   9  17
ATOM     17  N   UNL     1       2.093   6.189  19.688  0.00  0.00    +0.000 N 
ATOM     18  C   UNL     1       2.180   4.832  19.989  0.00  0.00    +0.000 C 
ATOM     19  O   UNL     1       2.408   4.442  21.139  0.00  0.00    +0.000 OA
ATOM     20  H   UNL     1       1.995   6.579  18.756  0.00  0.00    +0.000 HD
BRANCH  18  21
ATOM     21  C   UNL     1       1.972   3.841  18.807  0.00  0.00    +0.000 C 
ATOM     22  C   UNL     1       3.289   3.131  18.463  0.00  0.00    +0.000 C 
ATOM     23  C   UNL     1       0.915   2.777  19.179  0.00  0.00    +0.000 C 
ATOM     24  C   UNL     1       1.476   4.579  17.556  0.00  0.00    +0.000 C 
ENDBRANCH  18  21
ENDBRANCH   9  17
BRANCH   6  25
ATOM     25  O   UNL     1       0.184  10.119  23.744  0.00  0.00    +0.000 OA
ATOM     26  H   UNL     1       0.690  10.951  23.882  0.00  0.00    +0.000 HD
ENDBRANCH   6  25
TORSDOF 3
ENDMDL
MODEL 3
REMARK VINA RESULT:      -7.0      2.326      7.571
REMARK  Name = 
REMARK  8 active torsions:
REMARK  status: ('A' for Active; 'I' for Inactive)
REMARK    1  A    between atoms: C_1  and  N_2
REMARK    2  A    between atoms: C_6  and  O_7
REMARK    3  A    between atoms: N_10  and  N_11
REMARK    4  A    between atoms: C_12  and  C_14
REMARK    5  A    between atoms: C_14  and  C_15
REMARK    6  A    between atoms: C_14  and  C_16
REMARK    7  A    between atoms: C_14  and  C_17
REMARK    8  A    between atoms: N_20  and  C_21
REMARK                            x       y       z     vdW  Elec       q    Type
REMARK                         _______ _______ _______ _____ _____    ______ ____
ROOT
ATOM      1  C   UNL     1      -0.063  13.715  21.657  0.00  0.00    +0.000 C 
ATOM      2  N   UNL     1       0.301  12.394  21.163  0.00  0.00    +0.000 N 
ATOM      3  C   UNL     1       0.955  12.308  19.952  0.00  0.00    +0.000 A 
ATOM      4  O   UNL     1       1.258  13.278  19.253  0.00  0.00    +0.000 OA
ATOM      5  C   UNL     1       1.312  10.973  19.469  0.00  0.00    +0.000 A 
ATOM      6  C   UNL     1       1.970  10.789  18.258  0.00  0.00    +0.000 A 
ATOM      7  C   UNL     1       2.287   9.505  17.828  0.00  0.00    +0.000 A 
ATOM      8  C   UNL     1       1.934   8.407  18.614  0.00  0.00    +0.000 A 
ATOM      9  N   UNL     1       2.231   7.120  18.128  0.00  0.00    +0.000 N 
ATOM     10  N   UNL     1       1.314   8.587  19.811  0.00  0.00    +0.000 NA
ATOM     11  C   UNL     1       0.994   9.857  20.219  0.00  0.00    +0.000 A 
ATOM     12  N   UNL     1       0.319  10.044  21.452  0.00  0.00    +0.000 N 
ATOM     13  C   UNL     1      -0.025   8.884  22.256  0.00  0.00    +0.000 C 
ATOM     14  C   UNL     1      -0.035  11.295  21.938  0.00  0.00    +0.000 A 
ATOM     15  O   UNL     1      -0.627  11.427  23.021  0.00  0.00    +0.000 OA
ATOM     16  H   UNL     1       2.419   6.968  17.140  0.00  0.00    +0.000 HD
ENDROOT
BRANCH   9  17
ATOM     17  N   UNL     1       2.530   6.076  19.008  0.00  0.00    +0.000 N 
ATOM     18  C   UNL     1       2.052   4.808  18.689  0.00  0.00    +0.000 C 
ATOM     19  O   UNL     1       1.396   4.607  17.661  0.00  0.00    +0.000 OA
ATOM     20  H   UNL     1       2.997   6.328  19.873  0.00  0.00    +0.000 HD
BRANCH  18  21
ATOM     21  C   UNL     1       2.390   3.664  19.689  0.00  0.00    +0.000 C 
ATOM     22  C   UNL     1       2.139   4.121  21.133  0.00  0.00    +0.000 C 
ATOM     23  C   UNL     1       1.517   2.424  19.399  0.00  0.00    +0.000 C 
ATOM     24  C   UNL     1       3.862   3.244  19.561  0.00  0.00    +0.000 C 
ENDBRANCH  18  21
ENDBRANCH   9  17
BRANCH   6  25
ATOM     25  O   UNL     1       2.329  11.825  17.438  0.00  0.00    +0.000 OA
ATOM     26  H   UNL     1       3.026  12.358  17.881  0.00  0.00    +0.000 HD
ENDBRANCH   6  25
TORSDOF 3
ENDMDL
MODEL 4
REMARK VINA RESULT:      -7.0      0.868      1.226
REMARK  Name = 
REMARK  8 active torsions:
REMARK  status: ('A' for Active; 'I' for Inactive)
REMARK    1  A    between atoms: C_1  and  N_2
REMARK    2  A    between atoms: C_6  and  O_7
REMARK    3  A    between atoms: N_10  and  N_11
REMARK    4  A    between atoms: C_12  and  C_14
REMARK    5  A    between atoms: C_14  and  C_15
REMARK    6  A    between atoms: C_14  and  C_16
REMARK    7  A    between atoms: C_14  and  C_17
REMARK    8  A    between atoms: N_20  and  C_21
REMARK                            x       y       z     vdW  Elec       q    Type
REMARK                         _______ _______ _______ _____ _____    ______ ____
ROOT
ATOM      1  C   UNL     1       4.408   2.154  19.762  0.00  0.00    +0.000 C 
ATOM      2  N   UNL     1       3.887   3.491  19.515  0.00  0.00    +0.000 N 
ATOM      3  C   UNL     1       4.427   4.219  18.475  0.00  0.00    +0.000 A 
ATOM      4  O   UNL     1       5.326   3.814  17.733  0.00  0.00    +0.000 OA
ATOM      5  C   UNL     1       3.895   5.563  18.241  0.00  0.00    +0.000 A 
ATOM      6  C   UNL     1       4.379   6.370  17.218  0.00  0.00    +0.000 A 
ATOM      7  C   UNL     1       3.853   7.643  17.030  0.00  0.00    +0.000 A 
ATOM      8  C   UNL     1       2.846   8.105  17.877  0.00  0.00    +0.000 A 
ATOM      9  N   UNL     1       2.367   9.415  17.686  0.00  0.00    +0.000 N 
ATOM     10  N   UNL     1       2.352   7.307  18.861  0.00  0.00    +0.000 NA
ATOM     11  C   UNL     1       2.887   6.058  19.047  0.00  0.00    +0.000 A 
ATOM     12  N   UNL     1       2.396   5.237  20.093  0.00  0.00    +0.000 N 
ATOM     13  C   UNL     1       1.338   5.739  20.952  0.00  0.00    +0.000 C 
ATOM     14  C   UNL     1       2.879   3.959  20.342  0.00  0.00    +0.000 A 
ATOM     15  O   UNL     1       2.430   3.264  21.267  0.00  0.00    +0.000 OA
ATOM     16  H   UNL     1       2.912  10.097  17.165  0.00  0.00    +0.000 HD
ENDROOT
BRANCH   9  17
ATOM     17  N   UNL     1       1.038   9.738  17.973  0.00  0.00    +0.000 N 
ATOM     18  C   UNL     1       0.796  10.933  18.645  0.00  0.00    +0.000 C 
ATOM     19  O   UNL     1       1.720  11.688  18.970  0.00  0.00    +0.000 OA
ATOM     20  H   UNL     1       0.340   9.035  17.755  0.00  0.00    +0.000 HD
BRANCH  18  21
ATOM     21  C   UNL     1      -0.691  11.266  18.961  0.00  0.00    +0.000 C 
ATOM     22  C   UNL     1      -1.061  12.652  18.412  0.00  0.00    +0.000 C 
ATOM     23  C   UNL     1      -1.624  10.213  18.324  0.00  0.00    +0.000 C 
ATOM     24  C   UNL     1      -0.942  11.262  20.476  0.00  0.00    +0.000 C 
ENDBRANCH  18  21
ENDBRANCH   9  17
BRANCH   6  25
ATOM     25  O   UNL     1       5.376   5.977  16.366  0.00  0.00    +0.000 OA
ATOM     26  H   UNL     1       5.713   5.098  16.651  0.00  0.00    +0.000 HD
ENDBRANCH   6  25
TORSDOF 3
ENDMDL
MODEL 5
REMARK VINA RESULT:      -6.9      2.623      8.429
REMARK  Name = 
REMARK  8 active torsions:
REMARK  status: ('A' for Active; 'I' for Inactive)
REMARK    1  A    between atoms: C_1  and  N_2
REMARK    2  A    between atoms: C_6  and  O_7
REMARK    3  A    between atoms: N_10  and  N_11
REMARK    4  A    between atoms: C_12  and  C_14
REMARK    5  A    between atoms: C_14  and  C_15
REMARK    6  A    between atoms: C_14  and  C_16
REMARK    7  A    between atoms: C_14  and  C_17
REMARK    8  A    between atoms: N_20  and  C_21
REMARK                            x       y       z     vdW  Elec       q    Type
REMARK                         _______ _______ _______ _____ _____    ______ ____
ROOT
ATOM      1  C   UNL     1      -1.220  14.281  20.330  0.00  0.00    +0.000 C 
ATOM      2  N   UNL     1      -0.565  12.981  20.316  0.00  0.00    +0.000 N 
ATOM      3  C   UNL     1      -0.840  12.101  21.343  0.00  0.00    +0.000 A 
ATOM      4  O   UNL     1      -1.609  12.339  22.278  0.00  0.00    +0.000 OA
ATOM      5  C   UNL     1      -0.171  10.799  21.316  0.00  0.00    +0.000 A 
ATOM      6  C   UNL     1      -0.385   9.850  22.308  0.00  0.00    +0.000 A 
ATOM      7  C   UNL     1       0.273   8.626  22.253  0.00  0.00    +0.000 A 
ATOM      8  C   UNL     1       1.151   8.362  21.202  0.00  0.00    +0.000 A 
ATOM      9  N   UNL     1       1.834   7.131  21.200  0.00  0.00    +0.000 N 
ATOM     10  N   UNL     1       1.341   9.279  20.216  0.00  0.00    +0.000 NA
ATOM     11  C   UNL     1       0.698  10.488  20.287  0.00  0.00    +0.000 A 
ATOM     12  N   UNL     1       0.919  11.457  19.276  0.00  0.00    +0.000 N 
ATOM     13  C   UNL     1       1.830  11.151  18.187  0.00  0.00    +0.000 C 
ATOM     14  C   UNL     1       0.303  12.701  19.273  0.00  0.00    +0.000 A 
ATOM     15  O   UNL     1       0.518  13.530  18.374  0.00  0.00    +0.000 OA
ATOM     16  H   UNL     1       1.920   6.584  22.053  0.00  0.00    +0.000 HD
ENDROOT
BRANCH   9  17
ATOM     17  N   UNL     1       2.178   6.508  19.998  0.00  0.00    +0.000 N 
ATOM     18  C   UNL     1       2.328   5.124  20.010  0.00  0.00    +0.000 C 
ATOM     19  O   UNL     1       2.153   4.466  21.042  0.00  0.00    +0.000 OA
ATOM     20  H   UNL     1       2.391   7.115  19.214  0.00  0.00    +0.000 HD
BRANCH  18  21
ATOM     21  C   UNL     1       2.722   4.454  18.661  0.00  0.00    +0.000 C 
ATOM     22  C   UNL     1       1.467   4.009  17.896  0.00  0.00    +0.000 C 
ATOM     23  C   UNL     1       3.517   5.444  17.782  0.00  0.00    +0.000 C 
ATOM     24  C   UNL     1       3.608   3.222  18.901  0.00  0.00    +0.000 C 
ENDBRANCH  18  21
ENDBRANCH   9  17
BRANCH   6  25
ATOM     25  O   UNL     1      -1.223  10.058  23.371  0.00  0.00    +0.000 OA
ATOM     26  H   UNL     1      -0.693  10.356  24.143  0.00  0.00    +0.000 HD
ENDBRANCH   6  25
TORSDOF 3
ENDMDL
MODEL 6
REMARK VINA RESULT:      -6.9      2.384      7.712
REMARK  Name = 
REMARK  8 active torsions:
REMARK  status: ('A' for Active; 'I' for Inactive)
REMARK    1  A    between atoms: C_1  and  N_2
REMARK    2  A    between atoms: C_6  and  O_7
REMARK    3  A    between atoms: N_10  and  N_11
REMARK    4  A    between atoms: C_12  and  C_14
REMARK    5  A    between atoms: C_14  and  C_15
REMARK    6  A    between atoms: C_14  and  C_16
REMARK    7  A    between atoms: C_14  and  C_17
REMARK    8  A    between atoms: N_20  and  C_21
REMARK                            x       y       z     vdW  Elec       q    Type
REMARK                         _______ _______ _______ _____ _____    ______ ____
ROOT
ATOM      1  C   UNL     1      -0.703  13.633  22.525  0.00  0.00    +0.000 C 
ATOM      2  N   UNL     1      -0.229  12.480  21.771  0.00  0.00    +0.000 N 
ATOM      3  C   UNL     1       0.418  12.706  20.574  0.00  0.00    +0.000 A 
ATOM      4  O   UNL     1       0.628  13.823  20.094  0.00  0.00    +0.000 OA
ATOM      5  C   UNL     1       0.887  11.537  19.827  0.00  0.00    +0.000 A 
ATOM      6  C   UNL     1       1.548  11.667  18.611  0.00  0.00    +0.000 A 
ATOM      7  C   UNL     1       1.973  10.534  17.927  0.00  0.00    +0.000 A 
ATOM      8  C   UNL     1       1.726   9.270  18.465  0.00  0.00    +0.000 A 
ATOM      9  N   UNL     1       2.131   8.143  17.725  0.00  0.00    +0.000 N 
ATOM     10  N   UNL     1       1.104   9.142  19.667  0.00  0.00    +0.000 NA
ATOM     11  C   UNL     1       0.677  10.266  20.327  0.00  0.00    +0.000 A 
ATOM     12  N   UNL     1      -0.000  10.133  21.566  0.00  0.00    +0.000 N 
ATOM     13  C   UNL     1      -0.233   8.806  22.108  0.00  0.00    +0.000 C 
ATOM     14  C   UNL     1      -0.459  11.220  22.298  0.00  0.00    +0.000 A 
ATOM     15  O   UNL     1      -1.050  11.071  23.379  0.00  0.00    +0.000 OA
ATOM     16  H   UNL     1       2.323   8.216  16.729  0.00  0.00    +0.000 HD
ENDROOT
BRANCH   9  17
ATOM     17  N   UNL     1       2.529   6.970  18.372  0.00  0.00    +0.000 N 
ATOM     18  C   UNL     1       3.698   6.356  17.930  0.00  0.00    +0.000 C 
ATOM     19  O   UNL     1       4.367   6.834  17.007  0.00  0.00    +0.000 OA
ATOM     20  H   UNL     1       1.889   6.589  19.061  0.00  0.00    +0.000 HD
BRANCH  18  21
ATOM     21  C   UNL     1       4.116   5.047  18.660  0.00  0.00    +0.000 C 
ATOM     22  C   UNL     1       4.030   3.848  17.704  0.00  0.00    +0.000 C 
ATOM     23  C   UNL     1       5.564   5.163  19.184  0.00  0.00    +0.000 C 
ATOM     24  C   UNL     1       3.201   4.776  19.863  0.00  0.00    +0.000 C 
ENDBRANCH  18  21
ENDBRANCH   9  17
BRANCH   6  25
ATOM     25  O   UNL     1       1.805  12.878  18.028  0.00  0.00    +0.000 OA
ATOM     26  H   UNL     1       2.278  13.451  18.672  0.00  0.00    +0.000 HD
ENDBRANCH   6  25
TORSDOF 3
ENDMDL
MODEL 7
REMARK VINA RESULT:      -6.8      2.752      8.628
REMARK  Name = 
REMARK  8 active torsions:
REMARK  status: ('A' for Active; 'I' for Inactive)
REMARK    1  A    between atoms: C_1  and  N_2
REMARK    2  A    between atoms: C_6  and  O_7
REMARK    3  A    between atoms: N_10  and  N_11
REMARK    4  A    between atoms: C_12  and  C_14
REMARK    5  A    between atoms: C_14  and  C_15
REMARK    6  A    between atoms: C_14  and  C_16
REMARK    7  A    between atoms: C_14  and  C_17
REMARK    8  A    between atoms: N_20  and  C_21
REMARK                            x       y       z     vdW  Elec       q    Type
REMARK                         _______ _______ _______ _____ _____    ______ ____
ROOT
ATOM      1  C   UNL     1      -1.066  14.906  20.436  0.00  0.00    +0.000 C 
ATOM      2  N   UNL     1      -0.443  13.590  20.426  0.00  0.00    +0.000 N 
ATOM      3  C   UNL     1      -0.816  12.685  21.397  0.00  0.00    +0.000 A 
ATOM      4  O   UNL     1      -1.647  12.912  22.281  0.00  0.00    +0.000 OA
ATOM      5  C   UNL     1      -0.180  11.366  21.375  0.00  0.00    +0.000 A 
ATOM      6  C   UNL     1      -0.491  10.391  22.315  0.00  0.00    +0.000 A 
ATOM      7  C   UNL     1       0.139   9.153  22.266  0.00  0.00    +0.000 A 
ATOM      8  C   UNL     1       1.087   8.900  21.274  0.00  0.00    +0.000 A 
ATOM      9  N   UNL     1       1.737   7.652  21.280  0.00  0.00    +0.000 N 
ATOM     10  N   UNL     1       1.373   9.843  20.337  0.00  0.00    +0.000 NA
ATOM     11  C   UNL     1       0.756  11.066  20.403  0.00  0.00    +0.000 A 
ATOM     12  N   UNL     1       1.077  12.062  19.446  0.00  0.00    +0.000 N 
ATOM     13  C   UNL     1       2.058  11.767  18.417  0.00  0.00    +0.000 C 
ATOM     14  C   UNL     1       0.493  13.322  19.440  0.00  0.00    +0.000 A 
ATOM     15  O   UNL     1       0.795  14.173  18.590  0.00  0.00    +0.000 OA
ATOM     16  H   UNL     1       1.747   7.074  22.117  0.00  0.00    +0.000 HD
ENDROOT
BRANCH   9  17
ATOM     17  N   UNL     1       2.156   7.059  20.086  0.00  0.00    +0.000 N 
ATOM     18  C   UNL     1       2.311   5.675  20.073  0.00  0.00    +0.000 C 
ATOM     19  O   UNL     1       2.078   4.992  21.076  0.00  0.00    +0.000 OA
ATOM     20  H   UNL     1       2.412   7.686  19.331  0.00  0.00    +0.000 HD
BRANCH  18  21
ATOM     21  C   UNL     1       2.787   5.040  18.734  0.00  0.00    +0.000 C 
ATOM     22  C   UNL     1       3.361   6.117  17.802  0.00  0.00    +0.000 C 
ATOM     23  C   UNL     1       3.878   3.981  19.001  0.00  0.00    +0.000 C 
ATOM     24  C   UNL     1       1.622   4.345  18.015  0.00  0.00    +0.000 C 
ENDBRANCH  18  21
ENDBRANCH   9  17
BRANCH   6  25
ATOM     25  O   UNL     1      -1.401  10.587  23.319  0.00  0.00    +0.000 OA
ATOM     26  H   UNL     1      -1.013  11.192  23.990  0.00  0.00    +0.000 HD
ENDBRANCH   6  25
TORSDOF 3
ENDMDL
MODEL 8
REMARK VINA RESULT:      -6.8      2.714      8.319
REMARK  Name = 
REMARK  8 active torsions:
REMARK  status: ('A' for Active; 'I' for Inactive)
REMARK    1  A    between atoms: C_1  and  N_2
REMARK    2  A    between atoms: C_6  and  O_7
REMARK    3  A    between atoms: N_10  and  N_11
REMARK    4  A    between atoms: C_12  and  C_14
REMARK    5  A    between atoms: C_14  and  C_15
REMARK    6  A    between atoms: C_14  and  C_16
REMARK    7  A    between atoms: C_14  and  C_17
REMARK    8  A    between atoms: N_20  and  C_21
REMARK                            x       y       z     vdW  Elec       q    Type
REMARK                         _______ _______ _______ _____ _____    ______ ____
ROOT
ATOM      1  C   UNL     1      -0.364  14.297  20.030  0.00  0.00    +0.000 C 
ATOM      2  N   UNL     1       0.093  12.916  20.084  0.00  0.00    +0.000 N 
ATOM      3  C   UNL     1      -0.202  12.174  21.209  0.00  0.00    +0.000 A 
ATOM      4  O   UNL     1      -0.833  12.601  22.180  0.00  0.00    +0.000 OA
ATOM      5  C   UNL     1       0.266  10.788  21.248  0.00  0.00    +0.000 A 
ATOM      6  C   UNL     1       0.018   9.966  22.342  0.00  0.00    +0.000 A 
ATOM      7  C   UNL     1       0.485   8.656  22.347  0.00  0.00    +0.000 A 
ATOM      8  C   UNL     1       1.207   8.178  21.253  0.00  0.00    +0.000 A 
ATOM      9  N   UNL     1       1.702   6.861  21.310  0.00  0.00    +0.000 N 
ATOM     10  N   UNL     1       1.428   8.971  20.172  0.00  0.00    +0.000 NA
ATOM     11  C   UNL     1       0.975  10.266  20.183  0.00  0.00    +0.000 A 
ATOM     12  N   UNL     1       1.232  11.105  19.069  0.00  0.00    +0.000 N 
ATOM     13  C   UNL     1       1.976  10.577  17.940  0.00  0.00    +0.000 C 
ATOM     14  C   UNL     1       0.803  12.424  19.001  0.00  0.00    +0.000 A 
ATOM     15  O   UNL     1       1.045  13.134  18.012  0.00  0.00    +0.000 OA
ATOM     16  H   UNL     1       1.794   6.378  22.200  0.00  0.00    +0.000 HD
ENDROOT
BRANCH   9  17
ATOM     17  N   UNL     1       1.833   6.097  20.147  0.00  0.00    +0.000 N 
ATOM     18  C   UNL     1       1.959   4.718  20.293  0.00  0.00    +0.000 C 
ATOM     19  O   UNL     1       1.945   4.185  21.408  0.00  0.00    +0.000 OA
ATOM     20  H   UNL     1       1.923   6.606  19.274  0.00  0.00    +0.000 HD
BRANCH  18  21
ATOM     21  C   UNL     1       2.112   3.890  18.984  0.00  0.00    +0.000 C 
ATOM     22  C   UNL     1       3.512   3.264  18.905  0.00  0.00    +0.000 C 
ATOM     23  C   UNL     1       1.059   2.762  18.937  0.00  0.00    +0.000 C 
ATOM     24  C   UNL     1       1.906   4.778  17.749  0.00  0.00    +0.000 C 
ENDBRANCH  18  21
ENDBRANCH   9  17
BRANCH   6  25
ATOM     25  O   UNL     1      -0.672  10.384  23.448  0.00  0.00    +0.000 OA
ATOM     26  H   UNL     1      -1.033  11.283  23.280  0.00  0.00    +0.000 HD
ENDBRANCH   6  25
TORSDOF 3
ENDMDL
MODEL 9
REMARK VINA RESULT:      -6.7      2.448      7.650
REMARK  Name = 
REMARK  8 active torsions:
REMARK  status: ('A' for Active; 'I' for Inactive)
REMARK    1  A    between atoms: C_1  and  N_2
REMARK    2  A    between atoms: C_6  and  O_7
REMARK    3  A    between atoms: N_10  and  N_11
REMARK    4  A    between atoms: C_12  and  C_14
REMARK    5  A    between atoms: C_14  and  C_15
REMARK    6  A    between atoms: C_14  and  C_16
REMARK    7  A    between atoms: C_14  and  C_17
REMARK    8  A    between atoms: N_20  and  C_21
REMARK                            x       y       z     vdW  Elec       q    Type
REMARK                         _______ _______ _______ _____ _____    ______ ____
ROOT
ATOM      1  C   UNL     1      -0.922  13.187  22.680  0.00  0.00    +0.000 C 
ATOM      2  N   UNL     1      -0.366  12.104  21.882  0.00  0.00    +0.000 N 
ATOM      3  C   UNL     1       0.235  12.420  20.681  0.00  0.00    +0.000 A 
ATOM      4  O   UNL     1       0.337  13.565  20.233  0.00  0.00    +0.000 OA
ATOM      5  C   UNL     1       0.788  11.319  19.889  0.00  0.00    +0.000 A 
ATOM      6  C   UNL     1       1.409  11.542  18.666  0.00  0.00    +0.000 A 
ATOM      7  C   UNL     1       1.916  10.471  17.939  0.00  0.00    +0.000 A 
ATOM      8  C   UNL     1       1.790   9.175  18.442  0.00  0.00    +0.000 A 
ATOM      9  N   UNL     1       2.275   8.110  17.659  0.00  0.00    +0.000 N 
ATOM     10  N   UNL     1       1.206   8.958  19.650  0.00  0.00    +0.000 NA
ATOM     11  C   UNL     1       0.698  10.021  20.353  0.00  0.00    +0.000 A 
ATOM     12  N   UNL     1       0.060   9.792  21.599  0.00  0.00    +0.000 N 
ATOM     13  C   UNL     1      -0.046   8.435  22.103  0.00  0.00    +0.000 C 
ATOM     14  C   UNL     1      -0.475  10.813  22.373  0.00  0.00    +0.000 A 
ATOM     15  O   UNL     1      -1.028  10.581  23.459  0.00  0.00    +0.000 OA
ATOM     16  H   UNL     1       2.439   8.230  16.663  0.00  0.00    +0.000 HD
ENDROOT
BRANCH   9  17
ATOM     17  N   UNL     1       2.786   6.958  18.261  0.00  0.00    +0.000 N 
ATOM     18  C   UNL     1       3.938   6.401  17.712  0.00  0.00    +0.000 C 
ATOM     19  O   UNL     1       4.497   6.910  16.734  0.00  0.00    +0.000 OA
ATOM     20  H   UNL     1       2.231   6.546  19.004  0.00  0.00    +0.000 HD
BRANCH  18  21
ATOM     21  C   UNL     1       4.483   5.113  18.394  0.00  0.00    +0.000 C 
ATOM     22  C   UNL     1       5.867   5.372  19.008  0.00  0.00    +0.000 C 
ATOM     23  C   UNL     1       3.522   4.650  19.511  0.00  0.00    +0.000 C 
ATOM     24  C   UNL     1       4.609   3.968  17.378  0.00  0.00    +0.000 C 
ENDBRANCH  18  21
ENDBRANCH   9  17
BRANCH   6  25
ATOM     25  O   UNL     1       1.549  12.788  18.116  0.00  0.00    +0.000 OA
ATOM     26  H   UNL     1       2.116  12.724  17.316  0.00  0.00    +0.000 HD
ENDBRANCH   6  25
TORSDOF 3
ENDMDL
