MODEL 1
REMARK VINA RESULT:      -8.5      0.000      0.000
REMARK  Name = 
REMARK  6 active torsions:
REMARK  status: ('A' for Active; 'I' for Inactive)
REMARK    1  A    between atoms: C_1  and  C_2
REMARK    2  A    between atoms: N_4  and  C_5
REMARK    3  A    between atoms: C_5  and  C_6
REMARK    4  A    between atoms: C_5  and  C_12
REMARK    5  A    between atoms: C_14  and  C_15
REMARK    6  A    between atoms: C_19  and  C_20
REMARK                            x       y       z     vdW  Elec       q    Type
REMARK                         _______ _______ _______ _____ _____    ______ ____
ROOT
ATOM      1  C   UNL     1       4.809   5.474  17.973  0.00  0.00    +0.000 A 
ATOM      2  N   UNL     1       4.863   5.422  16.653  0.00  0.00    +0.000 NA
ATOM      3  C   UNL     1       6.093   4.940  16.233  0.00  0.00    +0.000 A 
ATOM      4  C   UNL     1       6.995   4.701  17.251  0.00  0.00    +0.000 A 
ATOM      5  S   UNL     1       6.259   4.966  18.773  0.00  0.00    +0.000 S 
ENDROOT
BRANCH   3   6
ATOM      6  C   UNL     1       6.381   4.705  14.822  0.00  0.00    +0.000 A 
ATOM      7  C   UNL     1       7.583   5.157  14.261  0.00  0.00    +0.000 A 
ATOM      8  C   UNL     1       7.849   4.974  12.901  0.00  0.00    +0.000 A 
ATOM      9  C   UNL     1       6.911   4.343  12.082  0.00  0.00    +0.000 A 
ATOM     10  C   UNL     1       5.706   3.891  12.624  0.00  0.00    +0.000 A 
ATOM     11  C   UNL     1       5.446   4.069  13.990  0.00  0.00    +0.000 A 
BRANCH  10  12
ATOM     12  C   UNL     1       4.729   3.255  11.790  0.00  0.00    +0.000 C 
ATOM     13  N   UNL     1       3.929   2.748  11.119  0.00  0.00    +0.000 NA
ENDBRANCH  10  12
ENDBRANCH   3   6
BRANCH   1  14
ATOM     14  C   UNL     1       3.605   5.960  18.779  0.00  0.00    +0.000 C 
BRANCH  14  15
ATOM     15  C   UNL     1       2.582   4.862  19.104  0.00  0.00    +0.000 A 
ATOM     16  C   UNL     1       2.054   4.028  18.100  0.00  0.00    +0.000 A 
ATOM     17  C   UNL     1       1.123   3.032  18.404  0.00  0.00    +0.000 A 
ATOM     18  C   UNL     1       0.726   2.824  19.720  0.00  0.00    +0.000 A 
ATOM     19  C   UNL     1       1.273   3.602  20.737  0.00  0.00    +0.000 A 
ATOM     20  C   UNL     1       2.199   4.603  20.434  0.00  0.00    +0.000 A 
ENDBRANCH  14  15
BRANCH  14  24
ATOM     21  C   UNL     1       1.690   9.055  17.684  0.00  0.00    +0.000 C 
ATOM     22  C   UNL     1       2.230   8.027  18.642  0.00  0.00    +0.000 C 
ATOM     23  O   UNL     1       1.995   8.064  19.844  0.00  0.00    +0.000 OA
ATOM     24  N   UNL     1       2.986   7.059  18.035  0.00  0.00    +0.000 N 
ATOM     25  H   UNL     1       3.155   7.097  17.040  0.00  0.00    +0.000 HD
ENDBRANCH  14  24
ENDBRANCH   1  14
TORSDOF 5
ENDMDL
MODEL 2
REMARK VINA RESULT:      -7.8      1.561      3.293
REMARK  Name = 
REMARK  6 active torsions:
REMARK  status: ('A' for Active; 'I' for Inactive)
REMARK    1  A    between atoms: C_1  and  C_2
REMARK    2  A    between atoms: N_4  and  C_5
REMARK    3  A    between atoms: C_5  and  C_6
REMARK    4  A    between atoms: C_5  and  C_12
REMARK    5  A    between atoms: C_14  and  C_15
REMARK    6  A    between atoms: C_19  and  C_20
REMARK                            x       y       z     vdW  Elec       q    Type
REMARK                         _______ _______ _______ _____ _____    ______ ____
ROOT
ATOM      1  C   UNL     1       4.075   4.953  18.076  0.00  0.00    +0.000 A 
ATOM      2  N   UNL     1       4.246   4.860  16.769  0.00  0.00    +0.000 NA
ATOM      3  C   UNL     1       5.595   4.780  16.457  0.00  0.00    +0.000 A 
ATOM      4  C   UNL     1       6.443   4.892  17.542  0.00  0.00    +0.000 A 
ATOM      5  S   UNL     1       5.544   4.977  18.995  0.00  0.00    +0.000 S 
ENDROOT
BRANCH   3   6
ATOM      6  C   UNL     1       6.053   4.584  15.086  0.00  0.00    +0.000 A 
ATOM      7  C   UNL     1       7.320   5.034  14.692  0.00  0.00    +0.000 A 
ATOM      8  C   UNL     1       7.751   4.888  13.370  0.00  0.00    +0.000 A 
ATOM      9  C   UNL     1       6.914   4.298  12.421  0.00  0.00    +0.000 A 
ATOM     10  C   UNL     1       5.646   3.848  12.797  0.00  0.00    +0.000 A 
ATOM     11  C   UNL     1       5.221   3.988  14.124  0.00  0.00    +0.000 A 
BRANCH  10  12
ATOM     12  C   UNL     1       4.772   3.254  11.828  0.00  0.00    +0.000 C 
ATOM     13  N   UNL     1       4.057   2.781  11.045  0.00  0.00    +0.000 NA
ENDBRANCH  10  12
ENDBRANCH   3   6
BRANCH   1  14
ATOM     14  C   UNL     1       2.719   5.063  18.773  0.00  0.00    +0.000 C 
BRANCH  14  15
ATOM     15  C   UNL     1       2.268   6.505  19.045  0.00  0.00    +0.000 A 
ATOM     16  C   UNL     1       1.896   6.928  20.335  0.00  0.00    +0.000 A 
ATOM     17  C   UNL     1       1.486   8.242  20.574  0.00  0.00    +0.000 A 
ATOM     18  C   UNL     1       1.472   9.170  19.538  0.00  0.00    +0.000 A 
ATOM     19  C   UNL     1       1.885   8.789  18.265  0.00  0.00    +0.000 A 
ATOM     20  C   UNL     1       2.289   7.473  18.022  0.00  0.00    +0.000 A 
ENDBRANCH  14  15
BRANCH  14  24
ATOM     21  C   UNL     1       2.103   2.707  21.690  0.00  0.00    +0.000 C 
ATOM     22  C   UNL     1       1.824   3.387  20.377  0.00  0.00    +0.000 C 
ATOM     23  O   UNL     1       0.818   3.154  19.718  0.00  0.00    +0.000 OA
ATOM     24  N   UNL     1       2.792   4.287  20.012  0.00  0.00    +0.000 N 
ATOM     25  H   UNL     1       3.607   4.418  20.594  0.00  0.00    +0.000 HD
ENDBRANCH  14  24
ENDBRANCH   1  14
TORSDOF 5
ENDMDL
MODEL 3
REMARK VINA RESULT:      -7.7      4.063      8.387
REMARK  Name = 
REMARK  6 active torsions:
REMARK  status: ('A' for Active; 'I' for Inactive)
REMARK    1  A    between atoms: C_1  and  C_2
REMARK    2  A    between atoms: N_4  and  C_5
REMARK    3  A    between atoms: C_5  and  C_6
REMARK    4  A    between atoms: C_5  and  C_12
REMARK    5  A    between atoms: C_14  and  C_15
REMARK    6  A    between atoms: C_19  and  C_20
REMARK                            x       y       z     vdW  Elec       q    Type
REMARK                         _______ _______ _______ _____ _____    ______ ____
ROOT
ATOM      1  C   UNL     1       2.397   7.208  18.967  0.00  0.00    +0.000 A 
ATOM      2  N   UNL     1       1.830   7.637  20.081  0.00  0.00    +0.000 NA
ATOM      3  C   UNL     1       1.321   8.915  19.909  0.00  0.00    +0.000 A 
ATOM      4  C   UNL     1       1.580   9.476  18.673  0.00  0.00    +0.000 A 
ATOM      5  S   UNL     1       2.368   8.345  17.660  0.00  0.00    +0.000 S 
ENDROOT
BRANCH   3   6
ATOM      6  C   UNL     1       0.568   9.587  20.963  0.00  0.00    +0.000 A 
ATOM      7  C   UNL     1       0.534   9.051  22.258  0.00  0.00    +0.000 A 
ATOM      8  C   UNL     1      -0.218   9.664  23.265  0.00  0.00    +0.000 A 
ATOM      9  C   UNL     1      -0.953  10.818  22.987  0.00  0.00    +0.000 A 
ATOM     10  C   UNL     1      -0.932  11.362  21.701  0.00  0.00    +0.000 A 
ATOM     11  C   UNL     1      -0.171  10.750  20.696  0.00  0.00    +0.000 A 
BRANCH  10  12
ATOM     12  C   UNL     1      -1.694  12.538  21.399  0.00  0.00    +0.000 C 
ATOM     13  N   UNL     1      -2.310  13.490  21.144  0.00  0.00    +0.000 NA
ENDBRANCH  10  12
ENDBRANCH   3   6
BRANCH   1  14
ATOM     14  C   UNL     1       3.065   5.844  18.797  0.00  0.00    +0.000 C 
BRANCH  14  15
ATOM     15  C   UNL     1       2.373   4.706  19.560  0.00  0.00    +0.000 A 
ATOM     16  C   UNL     1       1.469   3.835  18.921  0.00  0.00    +0.000 A 
ATOM     17  C   UNL     1       0.842   2.802  19.623  0.00  0.00    +0.000 A 
ATOM     18  C   UNL     1       1.130   2.596  20.968  0.00  0.00    +0.000 A 
ATOM     19  C   UNL     1       2.058   3.411  21.608  0.00  0.00    +0.000 A 
ATOM     20  C   UNL     1       2.681   4.449  20.910  0.00  0.00    +0.000 A 
ENDBRANCH  14  15
BRANCH  14  24
ATOM     21  C   UNL     1       6.835   5.569  19.188  0.00  0.00    +0.000 C 
ATOM     22  C   UNL     1       5.477   5.273  18.609  0.00  0.00    +0.000 C 
ATOM     23  O   UNL     1       5.313   4.465  17.703  0.00  0.00    +0.000 OA
ATOM     24  N   UNL     1       4.465   5.981  19.203  0.00  0.00    +0.000 N 
ATOM     25  H   UNL     1       4.672   6.645  19.935  0.00  0.00    +0.000 HD
ENDBRANCH  14  24
ENDBRANCH   1  14
TORSDOF 5
ENDMDL
MODEL 4
REMARK VINA RESULT:      -7.6      3.354      8.380
REMARK  Name = 
REMARK  6 active torsions:
REMARK  status: ('A' for Active; 'I' for Inactive)
REMARK    1  A    between atoms: C_1  and  C_2
REMARK    2  A    between atoms: N_4  and  C_5
REMARK    3  A    between atoms: C_5  and  C_6
REMARK    4  A    between atoms: C_5  and  C_12
REMARK    5  A    between atoms: C_14  and  C_15
REMARK    6  A    between atoms: C_19  and  C_20
REMARK                            x       y       z     vdW  Elec       q    Type
REMARK                         _______ _______ _______ _____ _____    ______ ____
ROOT
ATOM      1  C   UNL     1       2.800   6.456  19.228  0.00  0.00    +0.000 A 
ATOM      2  N   UNL     1       2.173   7.039  20.235  0.00  0.00    +0.000 NA
ATOM      3  C   UNL     1       1.710   8.292  19.863  0.00  0.00    +0.000 A 
ATOM      4  C   UNL     1       2.063   8.679  18.585  0.00  0.00    +0.000 A 
ATOM      5  S   UNL     1       2.886   7.410  17.784  0.00  0.00    +0.000 S 
ENDROOT
BRANCH   3   6
ATOM      6  C   UNL     1       0.908   9.110  20.767  0.00  0.00    +0.000 A 
ATOM      7  C   UNL     1       0.880   8.827  22.139  0.00  0.00    +0.000 A 
ATOM      8  C   UNL     1       0.083   9.579  23.007  0.00  0.00    +0.000 A 
ATOM      9  C   UNL     1      -0.704  10.620  22.512  0.00  0.00    +0.000 A 
ATOM     10  C   UNL     1      -0.691  10.912  21.146  0.00  0.00    +0.000 A 
ATOM     11  C   UNL     1       0.116  10.162  20.280  0.00  0.00    +0.000 A 
BRANCH  10  12
ATOM     12  C   UNL     1      -1.506  11.969  20.623  0.00  0.00    +0.000 C 
ATOM     13  N   UNL     1      -2.169  12.818  20.190  0.00  0.00    +0.000 NA
ENDBRANCH  10  12
ENDBRANCH   3   6
BRANCH   1  14
ATOM     14  C   UNL     1       3.442   5.070  19.284  0.00  0.00    +0.000 C 
BRANCH  14  15
ATOM     15  C   UNL     1       4.777   4.966  18.534  0.00  0.00    +0.000 A 
ATOM     16  C   UNL     1       5.984   5.398  19.115  0.00  0.00    +0.000 A 
ATOM     17  C   UNL     1       7.195   5.300  18.425  0.00  0.00    +0.000 A 
ATOM     18  C   UNL     1       7.231   4.737  17.154  0.00  0.00    +0.000 A 
ATOM     19  C   UNL     1       6.059   4.255  16.579  0.00  0.00    +0.000 A 
ATOM     20  C   UNL     1       4.846   4.359  17.265  0.00  0.00    +0.000 A 
ENDBRANCH  14  15
BRANCH  14  24
ATOM     21  C   UNL     1       0.689   2.487  18.844  0.00  0.00    +0.000 C 
ATOM     22  C   UNL     1       1.600   3.428  19.587  0.00  0.00    +0.000 C 
ATOM     23  O   UNL     1       1.563   3.551  20.805  0.00  0.00    +0.000 OA
ATOM     24  N   UNL     1       2.466   4.107  18.770  0.00  0.00    +0.000 N 
ATOM     25  H   UNL     1       2.432   3.971  17.770  0.00  0.00    +0.000 HD
ENDBRANCH  14  24
ENDBRANCH   1  14
TORSDOF 5
ENDMDL
MODEL 5
REMARK VINA RESULT:      -7.5      3.510      6.405
REMARK  Name = 
REMARK  6 active torsions:
REMARK  status: ('A' for Active; 'I' for Inactive)
REMARK    1  A    between atoms: C_1  and  C_2
REMARK    2  A    between atoms: N_4  and  C_5
REMARK    3  A    between atoms: C_5  and  C_6
REMARK    4  A    between atoms: C_5  and  C_12
REMARK    5  A    between atoms: C_14  and  C_15
REMARK    6  A    between atoms: C_19  and  C_20
REMARK                            x       y       z     vdW  Elec       q    Type
REMARK                         _______ _______ _______ _____ _____    ______ ____
ROOT
ATOM      1  C   UNL     1       1.098   9.353  19.499  0.00  0.00    +0.000 A 
ATOM      2  N   UNL     1       1.796   8.667  18.611  0.00  0.00    +0.000 NA
ATOM      3  C   UNL     1       2.205   7.453  19.144  0.00  0.00    +0.000 A 
ATOM      4  C   UNL     1       1.874   7.267  20.471  0.00  0.00    +0.000 A 
ATOM      5  S   UNL     1       0.926   8.574  21.038  0.00  0.00    +0.000 S 
ENDROOT
BRANCH   3   6
ATOM      6  C   UNL     1       2.921   6.469  18.339  0.00  0.00    +0.000 A 
ATOM      7  C   UNL     1       2.353   5.212  18.090  0.00  0.00    +0.000 A 
ATOM      8  C   UNL     1       3.048   4.247  17.355  0.00  0.00    +0.000 A 
ATOM      9  C   UNL     1       4.327   4.524  16.868  0.00  0.00    +0.000 A 
ATOM     10  C   UNL     1       4.909   5.770  17.111  0.00  0.00    +0.000 A 
ATOM     11  C   UNL     1       4.206   6.738  17.841  0.00  0.00    +0.000 A 
BRANCH  10  12
ATOM     12  C   UNL     1       6.227   6.061  16.629  0.00  0.00    +0.000 C 
ATOM     13  N   UNL     1       7.290   6.302  16.229  0.00  0.00    +0.000 NA
ENDBRANCH  10  12
ENDBRANCH   3   6
BRANCH   1  14
ATOM     14  C   UNL     1       0.495  10.736  19.256  0.00  0.00    +0.000 C 
BRANCH  14  15
ATOM     15  C   UNL     1      -0.885  10.709  18.585  0.00  0.00    +0.000 A 
ATOM     16  C   UNL     1      -1.918  11.575  18.992  0.00  0.00    +0.000 A 
ATOM     17  C   UNL     1      -3.172  11.545  18.377  0.00  0.00    +0.000 A 
ATOM     18  C   UNL     1      -3.411  10.673  17.319  0.00  0.00    +0.000 A 
ATOM     19  C   UNL     1      -2.390   9.843  16.865  0.00  0.00    +0.000 A 
ATOM     20  C   UNL     1      -1.137   9.868  17.484  0.00  0.00    +0.000 A 
ENDBRANCH  14  15
BRANCH  14  24
ATOM     21  C   UNL     1       2.866  13.363  17.870  0.00  0.00    +0.000 C 
ATOM     22  C   UNL     1       1.881  12.756  18.834  0.00  0.00    +0.000 C 
ATOM     23  O   UNL     1       1.502  13.343  19.840  0.00  0.00    +0.000 OA
ATOM     24  N   UNL     1       1.455  11.507  18.464  0.00  0.00    +0.000 N 
ATOM     25  H   UNL     1       1.822  11.073  17.630  0.00  0.00    +0.000 HD
ENDBRANCH  14  24
ENDBRANCH   1  14
TORSDOF 5
ENDMDL
MODEL 6
REMARK VINA RESULT:      -7.4      3.759      6.861
REMARK  Name = 
REMARK  6 active torsions:
REMARK  status: ('A' for Active; 'I' for Inactive)
REMARK    1  A    between atoms: C_1  and  C_2
REMARK    2  A    between atoms: N_4  and  C_5
REMARK    3  A    between atoms: C_5  and  C_6
REMARK    4  A    between atoms: C_5  and  C_12
REMARK    5  A    between atoms: C_14  and  C_15
REMARK    6  A    between atoms: C_19  and  C_20
REMARK                            x       y       z     vdW  Elec       q    Type
REMARK                         _______ _______ _______ _____ _____    ______ ____
ROOT
ATOM      1  C   UNL     1       0.505   9.899  19.760  0.00  0.00    +0.000 A 
ATOM      2  N   UNL     1       1.321   9.130  19.060  0.00  0.00    +0.000 NA
ATOM      3  C   UNL     1       1.719   8.032  19.809  0.00  0.00    +0.000 A 
ATOM      4  C   UNL     1       1.254   8.024  21.109  0.00  0.00    +0.000 A 
ATOM      5  S   UNL     1       0.200   9.346  21.373  0.00  0.00    +0.000 S 
ENDROOT
BRANCH   3   6
ATOM      6  C   UNL     1       2.555   6.981  19.238  0.00  0.00    +0.000 A 
ATOM      7  C   UNL     1       2.689   5.750  19.895  0.00  0.00    +0.000 A 
ATOM      8  C   UNL     1       3.521   4.752  19.378  0.00  0.00    +0.000 A 
ATOM      9  C   UNL     1       4.236   4.976  18.200  0.00  0.00    +0.000 A 
ATOM     10  C   UNL     1       4.117   6.199  17.536  0.00  0.00    +0.000 A 
ATOM     11  C   UNL     1       3.276   7.194  18.053  0.00  0.00    +0.000 A 
BRANCH  10  12
ATOM     12  C   UNL     1       4.858   6.447  16.334  0.00  0.00    +0.000 C 
ATOM     13  N   UNL     1       5.468   6.649  15.367  0.00  0.00    +0.000 NA
ENDBRANCH  10  12
ENDBRANCH   3   6
BRANCH   1  14
ATOM     14  C   UNL     1      -0.123  11.196  19.250  0.00  0.00    +0.000 C 
BRANCH  14  15
ATOM     15  C   UNL     1      -1.404  10.993  18.430  0.00  0.00    +0.000 A 
ATOM     16  C   UNL     1      -1.464  10.056  17.380  0.00  0.00    +0.000 A 
ATOM     17  C   UNL     1      -2.634   9.878  16.637  0.00  0.00    +0.000 A 
ATOM     18  C   UNL     1      -3.777  10.606  16.948  0.00  0.00    +0.000 A 
ATOM     19  C   UNL     1      -3.757  11.501  18.014  0.00  0.00    +0.000 A 
ATOM     20  C   UNL     1      -2.586  11.685  18.754  0.00  0.00    +0.000 A 
ENDBRANCH  14  15
BRANCH  14  24
ATOM     21  C   UNL     1       2.768  13.366  18.077  0.00  0.00    +0.000 C 
ATOM     22  C   UNL     1       1.821  12.735  19.062  0.00  0.00    +0.000 C 
ATOM     23  O   UNL     1       1.881  12.959  20.265  0.00  0.00    +0.000 OA
ATOM     24  N   UNL     1       0.896  11.910  18.478  0.00  0.00    +0.000 N 
ATOM     25  H   UNL     1       0.913  11.755  17.480  0.00  0.00    +0.000 HD
ENDBRANCH  14  24
ENDBRANCH   1  14
TORSDOF 5
ENDMDL
MODEL 7
REMARK VINA RESULT:      -7.4      3.704      6.389
REMARK  Name = 
REMARK  6 active torsions:
REMARK  status: ('A' for Active; 'I' for Inactive)
REMARK    1  A    between atoms: C_1  and  C_2
REMARK    2  A    between atoms: N_4  and  C_5
REMARK    3  A    between atoms: C_5  and  C_6
REMARK    4  A    between atoms: C_5  and  C_12
REMARK    5  A    between atoms: C_14  and  C_15
REMARK    6  A    between atoms: C_19  and  C_20
REMARK                            x       y       z     vdW  Elec       q    Type
REMARK                         _______ _______ _______ _____ _____    ______ ____
ROOT
ATOM      1  C   UNL     1       1.039   9.455  19.525  0.00  0.00    +0.000 A 
ATOM      2  N   UNL     1       1.817   8.831  18.659  0.00  0.00    +0.000 NA
ATOM      3  C   UNL     1       2.242   7.615  19.172  0.00  0.00    +0.000 A 
ATOM      4  C   UNL     1       1.836   7.364  20.468  0.00  0.00    +0.000 A 
ATOM      5  S   UNL     1       0.804   8.612  21.020  0.00  0.00    +0.000 S 
ENDROOT
BRANCH   3   6
ATOM      6  C   UNL     1       3.045   6.690  18.379  0.00  0.00    +0.000 A 
ATOM      7  C   UNL     1       3.980   7.177  17.457  0.00  0.00    +0.000 A 
ATOM      8  C   UNL     1       4.725   6.300  16.663  0.00  0.00    +0.000 A 
ATOM      9  C   UNL     1       4.537   4.921  16.776  0.00  0.00    +0.000 A 
ATOM     10  C   UNL     1       3.605   4.419  17.688  0.00  0.00    +0.000 A 
ATOM     11  C   UNL     1       2.866   5.301  18.487  0.00  0.00    +0.000 A 
BRANCH  10  12
ATOM     12  C   UNL     1       3.392   3.006  17.802  0.00  0.00    +0.000 C 
ATOM     13  N   UNL     1       3.226   1.860  17.886  0.00  0.00    +0.000 NA
ENDBRANCH  10  12
ENDBRANCH   3   6
BRANCH   1  14
ATOM     14  C   UNL     1       0.396  10.823  19.294  0.00  0.00    +0.000 C 
BRANCH  14  15
ATOM     15  C   UNL     1      -0.981  10.764  18.619  0.00  0.00    +0.000 A 
ATOM     16  C   UNL     1      -2.036  11.604  19.025  0.00  0.00    +0.000 A 
ATOM     17  C   UNL     1      -3.287  11.543  18.407  0.00  0.00    +0.000 A 
ATOM     18  C   UNL     1      -3.502  10.667  17.348  0.00  0.00    +0.000 A 
ATOM     19  C   UNL     1      -2.460   9.864  16.895  0.00  0.00    +0.000 A 
ATOM     20  C   UNL     1      -1.210   9.918  17.517  0.00  0.00    +0.000 A 
ENDBRANCH  14  15
BRANCH  14  24
ATOM     21  C   UNL     1       2.750  13.500  17.976  0.00  0.00    +0.000 C 
ATOM     22  C   UNL     1       1.797  12.847  18.941  0.00  0.00    +0.000 C 
ATOM     23  O   UNL     1       1.468  13.374  19.996  0.00  0.00    +0.000 OA
ATOM     24  N   UNL     1       1.336  11.629  18.512  0.00  0.00    +0.000 N 
ATOM     25  H   UNL     1       1.662  11.243  17.638  0.00  0.00    +0.000 HD
ENDBRANCH  14  24
ENDBRANCH   1  14
TORSDOF 5
ENDMDL
MODEL 8
REMARK VINA RESULT:      -7.4      3.565      7.462
REMARK  Name = 
REMARK  6 active torsions:
REMARK  status: ('A' for Active; 'I' for Inactive)
REMARK    1  A    between atoms: C_1  and  C_2
REMARK    2  A    between atoms: N_4  and  C_5
REMARK    3  A    between atoms: C_5  and  C_6
REMARK    4  A    between atoms: C_5  and  C_12
REMARK    5  A    between atoms: C_14  and  C_15
REMARK    6  A    between atoms: C_19  and  C_20
REMARK                            x       y       z     vdW  Elec       q    Type
REMARK                         _______ _______ _______ _____ _____    ______ ____
ROOT
ATOM      1  C   UNL     1       2.591   7.279  18.394  0.00  0.00    +0.000 A 
ATOM      2  N   UNL     1       1.975   8.345  17.914  0.00  0.00    +0.000 NA
ATOM      3  C   UNL     1       1.328   9.033  18.930  0.00  0.00    +0.000 A 
ATOM      4  C   UNL     1       1.400   8.429  20.170  0.00  0.00    +0.000 A 
ATOM      5  S   UNL     1       2.395   7.039  20.098  0.00  0.00    +0.000 S 
ENDROOT
BRANCH   3   6
ATOM      6  C   UNL     1       0.642  10.296  18.680  0.00  0.00    +0.000 A 
ATOM      7  C   UNL     1       1.317  11.513  18.848  0.00  0.00    +0.000 A 
ATOM      8  C   UNL     1       0.657  12.730  18.652  0.00  0.00    +0.000 A 
ATOM      9  C   UNL     1      -0.692  12.745  18.292  0.00  0.00    +0.000 A 
ATOM     10  C   UNL     1      -1.381  11.541  18.125  0.00  0.00    +0.000 A 
ATOM     11  C   UNL     1      -0.713  10.323  18.315  0.00  0.00    +0.000 A 
BRANCH  10  12
ATOM     12  C   UNL     1      -2.770  11.543  17.771  0.00  0.00    +0.000 C 
ATOM     13  N   UNL     1      -3.896  11.535  17.488  0.00  0.00    +0.000 NA
ENDBRANCH  10  12
ENDBRANCH   3   6
BRANCH   1  14
ATOM     14  C   UNL     1       3.400   6.288  17.557  0.00  0.00    +0.000 C 
BRANCH  14  15
ATOM     15  C   UNL     1       3.010   4.819  17.774  0.00  0.00    +0.000 A 
ATOM     16  C   UNL     1       1.667   4.431  17.943  0.00  0.00    +0.000 A 
ATOM     17  C   UNL     1       1.321   3.092  18.141  0.00  0.00    +0.000 A 
ATOM     18  C   UNL     1       2.304   2.109  18.139  0.00  0.00    +0.000 A 
ATOM     19  C   UNL     1       3.632   2.461  17.921  0.00  0.00    +0.000 A 
ATOM     20  C   UNL     1       3.982   3.800  17.730  0.00  0.00    +0.000 A 
ENDBRANCH  14  15
BRANCH  14  24
ATOM     21  C   UNL     1       7.140   6.944  17.398  0.00  0.00    +0.000 C 
ATOM     22  C   UNL     1       5.744   6.747  16.869  0.00  0.00    +0.000 C 
ATOM     23  O   UNL     1       5.486   6.788  15.672  0.00  0.00    +0.000 OA
ATOM     24  N   UNL     1       4.817   6.511  17.850  0.00  0.00    +0.000 N 
ATOM     25  H   UNL     1       5.095   6.508  18.821  0.00  0.00    +0.000 HD
ENDBRANCH  14  24
ENDBRANCH   1  14
TORSDOF 5
ENDMDL
MODEL 9
REMARK VINA RESULT:      -7.3      5.147      7.804
REMARK  Name = 
REMARK  6 active torsions:
REMARK  status: ('A' for Active; 'I' for Inactive)
REMARK    1  A    between atoms: C_1  and  C_2
REMARK    2  A    between atoms: N_4  and  C_5
REMARK    3  A    between atoms: C_5  and  C_6
REMARK    4  A    between atoms: C_5  and  C_12
REMARK    5  A    between atoms: C_14  and  C_15
REMARK    6  A    between atoms: C_19  and  C_20
REMARK                            x       y       z     vdW  Elec       q    Type
REMARK                         _______ _______ _______ _____ _____    ______ ____
ROOT
ATOM      1  C   UNL     1       0.335  10.226  20.130  0.00  0.00    +0.000 A 
ATOM      2  N   UNL     1       0.922   9.187  19.562  0.00  0.00    +0.000 NA
ATOM      3  C   UNL     1       1.343   8.279  20.522  0.00  0.00    +0.000 A 
ATOM      4  C   UNL     1       1.135   8.684  21.826  0.00  0.00    +0.000 A 
ATOM      5  S   UNL     1       0.289  10.170  21.861  0.00  0.00    +0.000 S 
ENDROOT
BRANCH   3   6
ATOM      6  C   UNL     1       1.945   7.002  20.154  0.00  0.00    +0.000 A 
ATOM      7  C   UNL     1       2.713   6.893  18.986  0.00  0.00    +0.000 A 
ATOM      8  C   UNL     1       3.260   5.665  18.603  0.00  0.00    +0.000 A 
ATOM      9  C   UNL     1       3.039   4.527  19.380  0.00  0.00    +0.000 A 
ATOM     10  C   UNL     1       2.273   4.617  20.545  0.00  0.00    +0.000 A 
ATOM     11  C   UNL     1       1.733   5.851  20.930  0.00  0.00    +0.000 A 
BRANCH  10  12
ATOM     12  C   UNL     1       2.027   3.452  21.343  0.00  0.00    +0.000 C 
ATOM     13  N   UNL     1       1.818   2.513  21.992  0.00  0.00    +0.000 NA
ENDBRANCH  10  12
ENDBRANCH   3   6
BRANCH   1  14
ATOM     14  C   UNL     1      -0.245  11.421  19.374  0.00  0.00    +0.000 C 
BRANCH  14  15
ATOM     15  C   UNL     1      -1.477  11.087  18.522  0.00  0.00    +0.000 A 
ATOM     16  C   UNL     1      -2.701  11.760  18.703  0.00  0.00    +0.000 A 
ATOM     17  C   UNL     1      -3.819  11.450  17.924  0.00  0.00    +0.000 A 
ATOM     18  C   UNL     1      -3.728  10.486  16.925  0.00  0.00    +0.000 A 
ATOM     19  C   UNL     1      -2.516   9.844  16.693  0.00  0.00    +0.000 A 
ATOM     20  C   UNL     1      -1.399  10.148  17.476  0.00  0.00    +0.000 A 
ENDBRANCH  14  15
BRANCH  14  24
ATOM     21  C   UNL     1       2.620  13.485  17.970  0.00  0.00    +0.000 C 
ATOM     22  C   UNL     1       1.579  13.062  18.971  0.00  0.00    +0.000 C 
ATOM     23  O   UNL     1       1.427  13.638  20.041  0.00  0.00    +0.000 OA
ATOM     24  N   UNL     1       0.826  11.994  18.557  0.00  0.00    +0.000 N 
ATOM     25  H   UNL     1       1.016  11.554  17.668  0.00  0.00    +0.000 HD
ENDBRANCH  14  24
ENDBRANCH   1  14
TORSDOF 5
ENDMDL
