MODEL 1
REMARK VINA RESULT:      -6.7      0.000      0.000
REMARK  Name = 
REMARK  3 active torsions:
REMARK  status: ('A' for Active; 'I' for Inactive)
REMARK    1  A    between atoms: C_2  and  O_3
REMARK    2  A    between atoms: C_2  and  C_4
REMARK    3  A    between atoms: C_7  and  C_8
REMARK                            x       y       z     vdW  Elec       q    Type
REMARK                         _______ _______ _______ _____ _____    ______ ____
ROOT
ATOM      1  C   UNK     1       6.848   5.344  18.378  0.00  0.00    +0.000 A 
ATOM      2  C   UNK     1       6.910   4.864  17.087  0.00  0.00    +0.000 A 
ATOM      3  S   UNK     1       5.452   4.070  16.687  0.00  0.00    +0.000 S 
ATOM      4  C   UNK     1       4.833   4.389  18.268  0.00  0.00    +0.000 A 
ATOM      5  N   UNK     1       5.646   5.083  19.048  0.00  0.00    +0.000 NA
ENDROOT
BRANCH   4   6
ATOM      6  C   UNK     1       3.482   3.939  18.652  0.00  0.00    +0.000 A 
ATOM      7  C   UNK     1       2.443   3.978  17.707  0.00  0.00    +0.000 A 
ATOM      8  C   UNK     1       1.151   3.553  18.037  0.00  0.00    +0.000 A 
ATOM      9  C   UNK     1       0.877   3.089  19.322  0.00  0.00    +0.000 A 
ATOM     10  C   UNK     1       1.894   3.058  20.272  0.00  0.00    +0.000 A 
ATOM     11 CL   UNK     1       1.557   2.498  21.864  0.00  0.00    +0.000 Cl
ATOM     12  C   UNK     1       3.185   3.481  19.947  0.00  0.00    +0.000 A 
ENDBRANCH   4   6
BRANCH   1  14
ATOM     13  O   UNK     1       8.319   7.179  18.721  0.00  0.00    +0.000 OA
ATOM     14  C   UNK     1       7.928   6.069  19.043  0.00  0.00    +0.000 C 
BRANCH  14  15
ATOM     15  O   UNK     1       8.461   5.362  20.075  0.00  0.00    +0.000 OA
ATOM     16  H   UNK     1       9.103   5.947  20.536  0.00  0.00    +0.000 HD
ENDBRANCH  14  15
ENDBRANCH   1  14
TORSDOF 3
ENDMDL
MODEL 2
REMARK VINA RESULT:      -6.7      3.930      5.864
REMARK  Name = 
REMARK  3 active torsions:
REMARK  status: ('A' for Active; 'I' for Inactive)
REMARK    1  A    between atoms: C_2  and  O_3
REMARK    2  A    between atoms: C_2  and  C_4
REMARK    3  A    between atoms: C_7  and  C_8
REMARK                            x       y       z     vdW  Elec       q    Type
REMARK                         _______ _______ _______ _____ _____    ______ ____
ROOT
ATOM      1  C   UNK     1       6.925   5.180  18.239  0.00  0.00    +0.000 A 
ATOM      2  C   UNK     1       5.691   4.582  18.387  0.00  0.00    +0.000 A 
ATOM      3  S   UNK     1       5.114   4.049  16.871  0.00  0.00    +0.000 S 
ATOM      4  C   UNK     1       6.532   4.669  16.102  0.00  0.00    +0.000 A 
ATOM      5  N   UNK     1       7.412   5.212  16.926  0.00  0.00    +0.000 NA
ENDROOT
BRANCH   4   6
ATOM      6  C   UNK     1       6.715   4.538  14.644  0.00  0.00    +0.000 A 
ATOM      7  C   UNK     1       7.663   5.342  13.989  0.00  0.00    +0.000 A 
ATOM      8  C   UNK     1       7.866   5.239  12.608  0.00  0.00    +0.000 A 
ATOM      9  C   UNK     1       7.118   4.333  11.860  0.00  0.00    +0.000 A 
ATOM     10  C   UNK     1       6.166   3.539  12.494  0.00  0.00    +0.000 A 
ATOM     11 CL   UNK     1       5.231   2.427  11.572  0.00  0.00    +0.000 Cl
ATOM     12  C   UNK     1       5.961   3.639  13.872  0.00  0.00    +0.000 A 
ENDBRANCH   4   6
BRANCH   1  14
ATOM     13  O   UNK     1       7.744   5.300  20.467  0.00  0.00    +0.000 OA
ATOM     14  C   UNK     1       7.702   5.754  19.335  0.00  0.00    +0.000 C 
BRANCH  14  15
ATOM     15  O   UNK     1       8.383   6.867  18.953  0.00  0.00    +0.000 OA
ATOM     16  H   UNK     1       8.143   7.591  19.574  0.00  0.00    +0.000 HD
ENDBRANCH  14  15
ENDBRANCH   1  14
TORSDOF 3
ENDMDL
MODEL 3
REMARK VINA RESULT:      -6.7      2.386      2.810
REMARK  Name = 
REMARK  3 active torsions:
REMARK  status: ('A' for Active; 'I' for Inactive)
REMARK    1  A    between atoms: C_2  and  O_3
REMARK    2  A    between atoms: C_2  and  C_4
REMARK    3  A    between atoms: C_7  and  C_8
REMARK                            x       y       z     vdW  Elec       q    Type
REMARK                         _______ _______ _______ _____ _____    ______ ____
ROOT
ATOM      1  C   UNK     1       6.348   4.569  15.970  0.00  0.00    +0.000 A 
ATOM      2  C   UNK     1       7.109   4.971  17.047  0.00  0.00    +0.000 A 
ATOM      3  S   UNK     1       6.201   4.840  18.488  0.00  0.00    +0.000 S 
ATOM      4  C   UNK     1       4.836   4.279  17.588  0.00  0.00    +0.000 A 
ATOM      5  N   UNK     1       5.047   4.155  16.288  0.00  0.00    +0.000 NA
ENDROOT
BRANCH   4   6
ATOM      6  C   UNK     1       3.574   3.937  18.270  0.00  0.00    +0.000 A 
ATOM      7  C   UNK     1       2.357   4.055  17.578  0.00  0.00    +0.000 A 
ATOM      8  C   UNK     1       1.142   3.734  18.193  0.00  0.00    +0.000 A 
ATOM      9  C   UNK     1       1.126   3.296  19.516  0.00  0.00    +0.000 A 
ATOM     10  C   UNK     1       2.323   3.187  20.218  0.00  0.00    +0.000 A 
ATOM     11 CL   UNK     1       2.307   2.658  21.855  0.00  0.00    +0.000 Cl
ATOM     12  C   UNK     1       3.538   3.506  19.607  0.00  0.00    +0.000 A 
ENDBRANCH   4   6
BRANCH   1  14
ATOM     13  O   UNK     1       6.411   3.796  13.723  0.00  0.00    +0.000 OA
ATOM     14  C   UNK     1       6.814   4.560  14.586  0.00  0.00    +0.000 C 
BRANCH  14  15
ATOM     15  O   UNK     1       7.761   5.508  14.358  0.00  0.00    +0.000 OA
ATOM     16  H   UNK     1       8.547   5.281  14.904  0.00  0.00    +0.000 HD
ENDBRANCH  14  15
ENDBRANCH   1  14
TORSDOF 3
ENDMDL
MODEL 4
REMARK VINA RESULT:      -6.7      2.574      2.984
REMARK  Name = 
REMARK  3 active torsions:
REMARK  status: ('A' for Active; 'I' for Inactive)
REMARK    1  A    between atoms: C_2  and  O_3
REMARK    2  A    between atoms: C_2  and  C_4
REMARK    3  A    between atoms: C_7  and  C_8
REMARK                            x       y       z     vdW  Elec       q    Type
REMARK                         _______ _______ _______ _____ _____    ______ ____
ROOT
ATOM      1  C   UNK     1       6.456   4.793  16.405  0.00  0.00    +0.000 A 
ATOM      2  C   UNK     1       7.256   5.222  17.443  0.00  0.00    +0.000 A 
ATOM      3  S   UNK     1       6.352   5.292  18.889  0.00  0.00    +0.000 S 
ATOM      4  C   UNK     1       4.939   4.770  18.042  0.00  0.00    +0.000 A 
ATOM      5  N   UNK     1       5.129   4.517  16.758  0.00  0.00    +0.000 NA
ENDROOT
BRANCH   4   6
ATOM      6  C   UNK     1       3.658   4.593  18.753  0.00  0.00    +0.000 A 
ATOM      7  C   UNK     1       3.306   5.485  19.780  0.00  0.00    +0.000 A 
ATOM      8  C   UNK     1       2.096   5.350  20.470  0.00  0.00    +0.000 A 
ATOM      9  C   UNK     1       1.222   4.314  20.147  0.00  0.00    +0.000 A 
ATOM     10  C   UNK     1       1.564   3.415  19.140  0.00  0.00    +0.000 A 
ATOM     11 CL   UNK     1       0.493   2.127  18.746  0.00  0.00    +0.000 Cl
ATOM     12  C   UNK     1       2.770   3.547  18.449  0.00  0.00    +0.000 A 
ENDBRANCH   4   6
BRANCH   1  14
ATOM     13  O   UNK     1       7.683   5.378  14.455  0.00  0.00    +0.000 OA
ATOM     14  C   UNK     1       6.909   4.626  15.026  0.00  0.00    +0.000 C 
BRANCH  14  15
ATOM     15  O   UNK     1       6.365   3.528  14.437  0.00  0.00    +0.000 OA
ATOM     16  H   UNK     1       6.704   3.487  13.515  0.00  0.00    +0.000 HD
ENDBRANCH  14  15
ENDBRANCH   1  14
TORSDOF 3
ENDMDL
MODEL 5
REMARK VINA RESULT:      -6.6      2.817      3.181
REMARK  Name = 
REMARK  3 active torsions:
REMARK  status: ('A' for Active; 'I' for Inactive)
REMARK    1  A    between atoms: C_2  and  O_3
REMARK    2  A    between atoms: C_2  and  C_4
REMARK    3  A    between atoms: C_7  and  C_8
REMARK                            x       y       z     vdW  Elec       q    Type
REMARK                         _______ _______ _______ _____ _____    ______ ____
ROOT
ATOM      1  C   UNK     1       6.372   4.462  15.590  0.00  0.00    +0.000 A 
ATOM      2  C   UNK     1       7.180   4.798  16.655  0.00  0.00    +0.000 A 
ATOM      3  S   UNK     1       6.303   4.679  18.116  0.00  0.00    +0.000 S 
ATOM      4  C   UNK     1       4.890   4.209  17.239  0.00  0.00    +0.000 A 
ATOM      5  N   UNK     1       5.061   4.107  15.932  0.00  0.00    +0.000 NA
ENDROOT
BRANCH   4   6
ATOM      6  C   UNK     1       3.629   3.915  17.947  0.00  0.00    +0.000 A 
ATOM      7  C   UNK     1       2.900   2.761  17.614  0.00  0.00    +0.000 A 
ATOM      8  C   UNK     1       1.703   2.449  18.269  0.00  0.00    +0.000 A 
ATOM      9  C   UNK     1       1.214   3.293  19.264  0.00  0.00    +0.000 A 
ATOM     10  C   UNK     1       1.920   4.446  19.595  0.00  0.00    +0.000 A 
ATOM     11 CL   UNK     1       1.314   5.497  20.815  0.00  0.00    +0.000 Cl
ATOM     12  C   UNK     1       3.115   4.760  18.944  0.00  0.00    +0.000 A 
ENDBRANCH   4   6
BRANCH   1  14
ATOM     13  O   UNK     1       7.498   5.328  13.684  0.00  0.00    +0.000 OA
ATOM     14  C   UNK     1       6.802   4.464  14.194  0.00  0.00    +0.000 C 
BRANCH  14  15
ATOM     15  O   UNK     1       6.334   3.385  13.511  0.00  0.00    +0.000 OA
ATOM     16  H   UNK     1       7.097   2.791  13.335  0.00  0.00    +0.000 HD
ENDBRANCH  14  15
ENDBRANCH   1  14
TORSDOF 3
ENDMDL
MODEL 6
REMARK VINA RESULT:      -6.5      4.060      5.903
REMARK  Name = 
REMARK  3 active torsions:
REMARK  status: ('A' for Active; 'I' for Inactive)
REMARK    1  A    between atoms: C_2  and  O_3
REMARK    2  A    between atoms: C_2  and  C_4
REMARK    3  A    between atoms: C_7  and  C_8
REMARK                            x       y       z     vdW  Elec       q    Type
REMARK                         _______ _______ _______ _____ _____    ______ ____
ROOT
ATOM      1  C   UNK     1       2.409   4.235  20.295  0.00  0.00    +0.000 A 
ATOM      2  C   UNK     1       2.082   5.565  20.134  0.00  0.00    +0.000 A 
ATOM      3  S   UNK     1       3.103   6.282  18.968  0.00  0.00    +0.000 S 
ATOM      4  C   UNK     1       3.938   4.783  18.763  0.00  0.00    +0.000 A 
ATOM      5  N   UNK     1       3.465   3.786  19.492  0.00  0.00    +0.000 NA
ENDROOT
BRANCH   4   6
ATOM      6  C   UNK     1       5.054   4.668  17.806  0.00  0.00    +0.000 A 
ATOM      7  C   UNK     1       6.376   4.815  18.260  0.00  0.00    +0.000 A 
ATOM      8  C   UNK     1       7.458   4.707  17.380  0.00  0.00    +0.000 A 
ATOM      9  C   UNK     1       7.233   4.457  16.028  0.00  0.00    +0.000 A 
ATOM     10  C   UNK     1       5.929   4.323  15.561  0.00  0.00    +0.000 A 
ATOM     11 CL   UNK     1       5.646   4.026  13.890  0.00  0.00    +0.000 Cl
ATOM     12  C   UNK     1       4.846   4.429  16.437  0.00  0.00    +0.000 A 
ENDBRANCH   4   6
BRANCH   1  14
ATOM     13  O   UNK     1       2.210   2.943  22.280  0.00  0.00    +0.000 OA
ATOM     14  C   UNK     1       1.739   3.326  21.221  0.00  0.00    +0.000 C 
BRANCH  14  15
ATOM     15  O   UNK     1       0.516   2.942  20.768  0.00  0.00    +0.000 OA
ATOM     16  H   UNK     1      -0.161   3.403  21.312  0.00  0.00    +0.000 HD
ENDBRANCH  14  15
ENDBRANCH   1  14
TORSDOF 3
ENDMDL
MODEL 7
REMARK VINA RESULT:      -6.5      3.894      5.848
REMARK  Name = 
REMARK  3 active torsions:
REMARK  status: ('A' for Active; 'I' for Inactive)
REMARK    1  A    between atoms: C_2  and  O_3
REMARK    2  A    between atoms: C_2  and  C_4
REMARK    3  A    between atoms: C_7  and  C_8
REMARK                            x       y       z     vdW  Elec       q    Type
REMARK                         _______ _______ _______ _____ _____    ______ ____
ROOT
ATOM      1  C   UNK     1       2.423   3.295  20.174  0.00  0.00    +0.000 A 
ATOM      2  C   UNK     1       1.442   3.845  19.376  0.00  0.00    +0.000 A 
ATOM      3  S   UNK     1       2.127   4.429  17.925  0.00  0.00    +0.000 S 
ATOM      4  C   UNK     1       3.696   3.937  18.456  0.00  0.00    +0.000 A 
ATOM      5  N   UNK     1       3.715   3.335  19.633  0.00  0.00    +0.000 NA
ENDROOT
BRANCH   4   6
ATOM      6  C   UNK     1       4.882   4.156  17.606  0.00  0.00    +0.000 A 
ATOM      7  C   UNK     1       6.091   4.567  18.193  0.00  0.00    +0.000 A 
ATOM      8  C   UNK     1       7.235   4.778  17.416  0.00  0.00    +0.000 A 
ATOM      9  C   UNK     1       7.185   4.589  16.036  0.00  0.00    +0.000 A 
ATOM     10  C   UNK     1       5.991   4.195  15.440  0.00  0.00    +0.000 A 
ATOM     11 CL   UNK     1       5.921   3.971  13.735  0.00  0.00    +0.000 Cl
ATOM     12  C   UNK     1       4.846   3.982  16.212  0.00  0.00    +0.000 A 
ENDBRANCH   4   6
BRANCH   1  14
ATOM     13  O   UNK     1       1.118   2.741  22.081  0.00  0.00    +0.000 OA
ATOM     14  C   UNK     1       2.186   2.708  21.490  0.00  0.00    +0.000 C 
BRANCH  14  15
ATOM     15  O   UNK     1       3.300   2.115  21.996  0.00  0.00    +0.000 OA
ATOM     16  H   UNK     1       3.381   2.388  22.938  0.00  0.00    +0.000 HD
ENDBRANCH  14  15
ENDBRANCH   1  14
TORSDOF 3
ENDMDL
MODEL 8
REMARK VINA RESULT:      -6.4      2.270      2.610
REMARK  Name = 
REMARK  3 active torsions:
REMARK  status: ('A' for Active; 'I' for Inactive)
REMARK    1  A    between atoms: C_2  and  O_3
REMARK    2  A    between atoms: C_2  and  C_4
REMARK    3  A    between atoms: C_7  and  C_8
REMARK                            x       y       z     vdW  Elec       q    Type
REMARK                         _______ _______ _______ _____ _____    ______ ____
ROOT
ATOM      1  C   UNK     1       6.068   5.519  16.669  0.00  0.00    +0.000 A 
ATOM      2  C   UNK     1       5.629   6.808  16.453  0.00  0.00    +0.000 A 
ATOM      3  S   UNK     1       4.157   7.071  17.277  0.00  0.00    +0.000 S 
ATOM      4  C   UNK     1       4.178   5.442  17.854  0.00  0.00    +0.000 A 
ATOM      5  N   UNK     1       5.239   4.742  17.489  0.00  0.00    +0.000 NA
ENDROOT
BRANCH   4   6
ATOM      6  C   UNK     1       3.094   4.936  18.718  0.00  0.00    +0.000 A 
ATOM      7  C   UNK     1       2.817   5.582  19.934  0.00  0.00    +0.000 A 
ATOM      8  C   UNK     1       1.793   5.131  20.774  0.00  0.00    +0.000 A 
ATOM      9  C   UNK     1       1.034   4.020  20.412  0.00  0.00    +0.000 A 
ATOM     10  C   UNK     1       1.305   3.363  19.216  0.00  0.00    +0.000 A 
ATOM     11 CL   UNK     1       0.378   1.984  18.770  0.00  0.00    +0.000 Cl
ATOM     12  C   UNK     1       2.327   3.810  18.375  0.00  0.00    +0.000 A 
ENDBRANCH   4   6
BRANCH   1  14
ATOM     13  O   UNK     1       7.713   5.196  14.984  0.00  0.00    +0.000 OA
ATOM     14  C   UNK     1       7.293   4.957  16.105  0.00  0.00    +0.000 C 
BRANCH  14  15
ATOM     15  O   UNK     1       7.924   4.125  16.976  0.00  0.00    +0.000 OA
ATOM     16  H   UNK     1       8.611   4.650  17.444  0.00  0.00    +0.000 HD
ENDBRANCH  14  15
ENDBRANCH   1  14
TORSDOF 3
ENDMDL
MODEL 9
REMARK VINA RESULT:      -6.4      2.108      2.347
REMARK  Name = 
REMARK  3 active torsions:
REMARK  status: ('A' for Active; 'I' for Inactive)
REMARK    1  A    between atoms: C_2  and  O_3
REMARK    2  A    between atoms: C_2  and  C_4
REMARK    3  A    between atoms: C_7  and  C_8
REMARK                            x       y       z     vdW  Elec       q    Type
REMARK                         _______ _______ _______ _____ _____    ______ ____
ROOT
ATOM      1  C   UNK     1       5.804   5.461  16.401  0.00  0.00    +0.000 A 
ATOM      2  C   UNK     1       5.376   6.757  16.598  0.00  0.00    +0.000 A 
ATOM      3  S   UNK     1       3.964   6.766  17.559  0.00  0.00    +0.000 S 
ATOM      4  C   UNK     1       3.992   5.040  17.635  0.00  0.00    +0.000 A 
ATOM      5  N   UNK     1       5.015   4.478  17.013  0.00  0.00    +0.000 NA
ENDROOT
BRANCH   4   6
ATOM      6  C   UNK     1       2.957   4.303  18.384  0.00  0.00    +0.000 A 
ATOM      7  C   UNK     1       1.835   3.799  17.705  0.00  0.00    +0.000 A 
ATOM      8  C   UNK     1       0.838   3.091  18.384  0.00  0.00    +0.000 A 
ATOM      9  C   UNK     1       0.945   2.882  19.757  0.00  0.00    +0.000 A 
ATOM     10  C   UNK     1       2.044   3.387  20.445  0.00  0.00    +0.000 A 
ATOM     11 CL   UNK     1       2.175   3.141  22.144  0.00  0.00    +0.000 Cl
ATOM     12  C   UNK     1       3.042   4.094  19.771  0.00  0.00    +0.000 A 
ENDBRANCH   4   6
BRANCH   1  14
ATOM     13  O   UNK     1       7.122   5.320  14.428  0.00  0.00    +0.000 OA
ATOM     14  C   UNK     1       6.980   5.090  15.618  0.00  0.00    +0.000 C 
BRANCH  14  15
ATOM     15  O   UNK     1       7.914   4.447  16.369  0.00  0.00    +0.000 OA
ATOM     16  H   UNK     1       8.657   4.201  15.773  0.00  0.00    +0.000 HD
ENDBRANCH  14  15
ENDBRANCH   1  14
TORSDOF 3
ENDMDL
