MODEL 1
REMARK VINA RESULT:      -6.6      0.000      0.000
REMARK  Name = 
REMARK  4 active torsions:
REMARK  status: ('A' for Active; 'I' for Inactive)
REMARK    1  A    between atoms: N_1  and  S_2
REMARK    2  A    between atoms: S_2  and  C_5
REMARK    3  A    between atoms: N_10  and  C_11
REMARK    4  A    between atoms: C_11  and  C_12
REMARK                            x       y       z     vdW  Elec       q    Type
REMARK                         _______ _______ _______ _____ _____    ______ ____
ROOT
ATOM      1  C   UNL     1       3.108   3.586  19.445  0.00  0.00    +0.000 A 
ATOM      2  N   UNL     1       4.237   4.094  19.876  0.00  0.00    +0.000 NA
ATOM      3  N   UNL     1       4.841   4.796  18.813  0.00  0.00    +0.000 N 
ATOM      4  C   UNL     1       6.069   5.452  18.883  0.00  0.00    +0.000 A 
ATOM      5  O   UNL     1       6.791   5.447  19.878  0.00  0.00    +0.000 OA
ATOM      6  N   UNL     1       6.436   6.099  17.687  0.00  0.00    +0.000 N 
ATOM      7  C   UNL     1       5.723   5.955  16.509  0.00  0.00    +0.000 A 
ATOM      8  O   UNL     1       6.160   6.361  15.438  0.00  0.00    +0.000 OA
ATOM      9  N   UNL     1       4.521   5.311  16.538  0.00  0.00    +0.000 NA
ATOM     10  C   UNL     1       4.163   4.782  17.640  0.00  0.00    +0.000 A 
ATOM     11  S   UNL     1       2.691   3.906  17.765  0.00  0.00    +0.000 S 
ENDROOT
BRANCH   1  12
ATOM     12  S   UNL     1       1.933   2.640  20.399  0.00  0.00    +0.000 S 
ATOM     13  O   UNL     1       2.445   2.585  21.754  0.00  0.00    +0.000 OA
ATOM     14  O   UNL     1       1.694   1.430  19.636  0.00  0.00    +0.000 OA
BRANCH  12  15
ATOM     15  N   UNL     1       0.416   3.359  20.521  0.00  0.00    +0.000 NA
ATOM     16  H   UNL     1      -0.030   3.261  19.601  0.00  0.00    +0.000 HD
ATOM     17  H   UNL     1       0.509   4.350  20.745  0.00  0.00    +0.000 HD
ENDBRANCH  12  15
ENDBRANCH   1  12
BRANCH   6  18
ATOM     18  C   UNL     1       7.724   6.793  17.566  0.00  0.00    +0.000 C 
BRANCH  18  19
ATOM     19  C   UNL     1       7.636   8.330  17.588  0.00  0.00    +0.000 C 
ATOM     20 CL   UNL     1       8.790   9.027  18.752  0.00  0.00    +0.000 Cl
ENDBRANCH  18  19
ENDBRANCH   6  18
TORSDOF 4
ENDMDL
MODEL 2
REMARK VINA RESULT:      -6.5      3.548      6.228
REMARK  Name = 
REMARK  4 active torsions:
REMARK  status: ('A' for Active; 'I' for Inactive)
REMARK    1  A    between atoms: N_1  and  S_2
REMARK    2  A    between atoms: S_2  and  C_5
REMARK    3  A    between atoms: N_10  and  C_11
REMARK    4  A    between atoms: C_11  and  C_12
REMARK                            x       y       z     vdW  Elec       q    Type
REMARK                         _______ _______ _______ _____ _____    ______ ____
ROOT
ATOM      1  C   UNL     1       5.251   4.693  16.525  0.00  0.00    +0.000 A 
ATOM      2  N   UNL     1       4.450   3.706  16.840  0.00  0.00    +0.000 NA
ATOM      3  N   UNL     1       3.572   4.153  17.849  0.00  0.00    +0.000 N 
ATOM      4  C   UNL     1       2.589   3.374  18.457  0.00  0.00    +0.000 A 
ATOM      5  O   UNL     1       2.412   2.182  18.212  0.00  0.00    +0.000 OA
ATOM      6  N   UNL     1       1.829   4.067  19.420  0.00  0.00    +0.000 N 
ATOM      7  C   UNL     1       2.141   5.350  19.836  0.00  0.00    +0.000 A 
ATOM      8  O   UNL     1       1.595   5.863  20.807  0.00  0.00    +0.000 OA
ATOM      9  N   UNL     1       3.107   6.046  19.170  0.00  0.00    +0.000 NA
ATOM     10  C   UNL     1       3.749   5.433  18.256  0.00  0.00    +0.000 A 
ATOM     11  S   UNL     1       5.018   6.206  17.396  0.00  0.00    +0.000 S 
ENDROOT
BRANCH   1  12
ATOM     12  S   UNL     1       6.525   4.673  15.275  0.00  0.00    +0.000 S 
ATOM     13  O   UNL     1       7.779   4.434  15.961  0.00  0.00    +0.000 OA
ATOM     14  O   UNL     1       6.317   5.873  14.486  0.00  0.00    +0.000 OA
BRANCH  12  15
ATOM     15  N   UNL     1       6.373   3.417  14.164  0.00  0.00    +0.000 NA
ATOM     16  H   UNL     1       7.137   3.530  13.487  0.00  0.00    +0.000 HD
ATOM     17  H   UNL     1       5.479   3.480  13.676  0.00  0.00    +0.000 HD
ENDBRANCH  12  15
ENDBRANCH   1  12
BRANCH   6  18
ATOM     18  C   UNL     1       0.788   3.385  20.196  0.00  0.00    +0.000 C 
BRANCH  18  19
ATOM     19  C   UNL     1       1.257   2.815  21.548  0.00  0.00    +0.000 C 
ATOM     20 CL   UNL     1       2.997   2.436  21.521  0.00  0.00    +0.000 Cl
ENDBRANCH  18  19
ENDBRANCH   6  18
TORSDOF 4
ENDMDL
MODEL 3
REMARK VINA RESULT:      -6.5      3.602      6.118
REMARK  Name = 
REMARK  4 active torsions:
REMARK  status: ('A' for Active; 'I' for Inactive)
REMARK    1  A    between atoms: N_1  and  S_2
REMARK    2  A    between atoms: S_2  and  C_5
REMARK    3  A    between atoms: N_10  and  C_11
REMARK    4  A    between atoms: C_11  and  C_12
REMARK                            x       y       z     vdW  Elec       q    Type
REMARK                         _______ _______ _______ _____ _____    ______ ____
ROOT
ATOM      1  C   UNL     1       5.456   4.833  16.818  0.00  0.00    +0.000 A 
ATOM      2  N   UNL     1       5.269   3.903  17.723  0.00  0.00    +0.000 NA
ATOM      3  N   UNL     1       4.271   4.348  18.615  0.00  0.00    +0.000 N 
ATOM      4  C   UNL     1       3.818   3.639  19.726  0.00  0.00    +0.000 A 
ATOM      5  O   UNL     1       4.280   2.558  20.082  0.00  0.00    +0.000 OA
ATOM      6  N   UNL     1       2.795   4.295  20.440  0.00  0.00    +0.000 N 
ATOM      7  C   UNL     1       2.399   5.591  20.157  0.00  0.00    +0.000 A 
ATOM      8  O   UNL     1       1.653   6.214  20.905  0.00  0.00    +0.000 OA
ATOM      9  N   UNL     1       2.882   6.202  19.038  0.00  0.00    +0.000 NA
ATOM     10  C   UNL     1       3.761   5.577  18.359  0.00  0.00    +0.000 A 
ATOM     11  S   UNL     1       4.467   6.283  16.962  0.00  0.00    +0.000 S 
ENDROOT
BRANCH   1  12
ATOM     12  S   UNL     1       6.578   4.759  15.432  0.00  0.00    +0.000 S 
ATOM     13  O   UNL     1       7.891   4.469  15.974  0.00  0.00    +0.000 OA
ATOM     14  O   UNL     1       6.332   5.965  14.665  0.00  0.00    +0.000 OA
BRANCH  12  15
ATOM     15  N   UNL     1       6.251   3.509  14.354  0.00  0.00    +0.000 NA
ATOM     16  H   UNL     1       7.158   3.183  13.999  0.00  0.00    +0.000 HD
ATOM     17  H   UNL     1       5.689   3.850  13.573  0.00  0.00    +0.000 HD
ENDBRANCH  12  15
ENDBRANCH   1  12
BRANCH   6  18
ATOM     18  C   UNL     1       2.239   3.716  21.668  0.00  0.00    +0.000 C 
BRANCH  18  19
ATOM     19  C   UNL     1       1.066   2.742  21.452  0.00  0.00    +0.000 C 
ATOM     20 CL   UNL     1       0.672   2.578  19.723  0.00  0.00    +0.000 Cl
ENDBRANCH  18  19
ENDBRANCH   6  18
TORSDOF 4
ENDMDL
MODEL 4
REMARK VINA RESULT:      -6.5      3.341      6.162
REMARK  Name = 
REMARK  4 active torsions:
REMARK  status: ('A' for Active; 'I' for Inactive)
REMARK    1  A    between atoms: N_1  and  S_2
REMARK    2  A    between atoms: S_2  and  C_5
REMARK    3  A    between atoms: N_10  and  C_11
REMARK    4  A    between atoms: C_11  and  C_12
REMARK                            x       y       z     vdW  Elec       q    Type
REMARK                         _______ _______ _______ _____ _____    ______ ____
ROOT
ATOM      1  C   UNL     1       5.565   4.824  16.946  0.00  0.00    +0.000 A 
ATOM      2  N   UNL     1       5.061   5.208  18.093  0.00  0.00    +0.000 NA
ATOM      3  N   UNL     1       3.867   4.492  18.314  0.00  0.00    +0.000 N 
ATOM      4  C   UNL     1       3.034   4.647  19.421  0.00  0.00    +0.000 A 
ATOM      5  O   UNL     1       3.227   5.471  20.312  0.00  0.00    +0.000 OA
ATOM      6  N   UNL     1       1.914   3.792  19.414  0.00  0.00    +0.000 N 
ATOM      7  C   UNL     1       1.588   2.995  18.329  0.00  0.00    +0.000 A 
ATOM      8  O   UNL     1       0.513   2.411  18.259  0.00  0.00    +0.000 OA
ATOM      9  N   UNL     1       2.472   2.891  17.296  0.00  0.00    +0.000 NA
ATOM     10  C   UNL     1       3.516   3.619  17.338  0.00  0.00    +0.000 A 
ATOM     11  S   UNL     1       4.664   3.596  16.061  0.00  0.00    +0.000 S 
ENDROOT
BRANCH   1  12
ATOM     12  S   UNL     1       7.091   5.387  16.212  0.00  0.00    +0.000 S 
ATOM     13  O   UNL     1       6.840   5.540  14.793  0.00  0.00    +0.000 OA
ATOM     14  O   UNL     1       8.116   4.483  16.700  0.00  0.00    +0.000 OA
BRANCH  12  15
ATOM     15  N   UNL     1       7.588   6.903  16.747  0.00  0.00    +0.000 NA
ATOM     16  H   UNL     1       8.368   7.187  16.141  0.00  0.00    +0.000 HD
ATOM     17  H   UNL     1       7.916   6.851  17.712  0.00  0.00    +0.000 HD
ENDBRANCH  12  15
ENDBRANCH   1  12
BRANCH   6  18
ATOM     18  C   UNL     1       0.903   3.860  20.475  0.00  0.00    +0.000 C 
BRANCH  18  19
ATOM     19  C   UNL     1       1.121   2.876  21.641  0.00  0.00    +0.000 C 
ATOM     20 CL   UNL     1       2.805   2.300  21.694  0.00  0.00    +0.000 Cl
ENDBRANCH  18  19
ENDBRANCH   6  18
TORSDOF 4
ENDMDL
MODEL 5
REMARK VINA RESULT:      -6.4      1.748      2.701
REMARK  Name = 
REMARK  4 active torsions:
REMARK  status: ('A' for Active; 'I' for Inactive)
REMARK    1  A    between atoms: N_1  and  S_2
REMARK    2  A    between atoms: S_2  and  C_5
REMARK    3  A    between atoms: N_10  and  C_11
REMARK    4  A    between atoms: C_11  and  C_12
REMARK                            x       y       z     vdW  Elec       q    Type
REMARK                         _______ _______ _______ _____ _____    ______ ____
ROOT
ATOM      1  C   UNL     1       3.095   4.270  18.420  0.00  0.00    +0.000 A 
ATOM      2  N   UNL     1       3.560   5.161  17.579  0.00  0.00    +0.000 NA
ATOM      3  N   UNL     1       4.886   5.469  17.948  0.00  0.00    +0.000 N 
ATOM      4  C   UNL     1       5.701   6.397  17.301  0.00  0.00    +0.000 A 
ATOM      5  O   UNL     1       5.330   7.092  16.358  0.00  0.00    +0.000 OA
ATOM      6  N   UNL     1       6.993   6.500  17.853  0.00  0.00    +0.000 N 
ATOM      7  C   UNL     1       7.358   5.861  19.025  0.00  0.00    +0.000 A 
ATOM      8  O   UNL     1       8.414   6.115  19.595  0.00  0.00    +0.000 OA
ATOM      9  N   UNL     1       6.503   4.956  19.580  0.00  0.00    +0.000 NA
ATOM     10  C   UNL     1       5.358   4.819  19.039  0.00  0.00    +0.000 A 
ATOM     11  S   UNL     1       4.192   3.741  19.693  0.00  0.00    +0.000 S 
ENDROOT
BRANCH   1  12
ATOM     12  S   UNL     1       1.482   3.507  18.381  0.00  0.00    +0.000 S 
ATOM     13  O   UNL     1       0.775   4.088  17.257  0.00  0.00    +0.000 OA
ATOM     14  O   UNL     1       0.965   3.617  19.732  0.00  0.00    +0.000 OA
BRANCH  12  15
ATOM     15  N   UNL     1       1.516   1.851  18.084  0.00  0.00    +0.000 NA
ATOM     16  H   UNL     1       2.328   1.479  18.591  0.00  0.00    +0.000 HD
ATOM     17  H   UNL     1       1.633   1.670  17.086  0.00  0.00    +0.000 HD
ENDBRANCH  12  15
ENDBRANCH   1  12
BRANCH   6  18
ATOM     18  C   UNL     1       7.963   7.468  17.330  0.00  0.00    +0.000 C 
BRANCH  18  19
ATOM     19  C   UNL     1       7.719   8.927  17.758  0.00  0.00    +0.000 C 
ATOM     20 CL   UNL     1       8.994   9.498  18.864  0.00  0.00    +0.000 Cl
ENDBRANCH  18  19
ENDBRANCH   6  18
TORSDOF 4
ENDMDL
MODEL 6
REMARK VINA RESULT:      -6.4      3.359      6.144
REMARK  Name = 
REMARK  4 active torsions:
REMARK  status: ('A' for Active; 'I' for Inactive)
REMARK    1  A    between atoms: N_1  and  S_2
REMARK    2  A    between atoms: S_2  and  C_5
REMARK    3  A    between atoms: N_10  and  C_11
REMARK    4  A    between atoms: C_11  and  C_12
REMARK                            x       y       z     vdW  Elec       q    Type
REMARK                         _______ _______ _______ _____ _____    ______ ____
ROOT
ATOM      1  C   UNL     1       5.704   4.746  17.000  0.00  0.00    +0.000 A 
ATOM      2  N   UNL     1       5.194   5.135  18.143  0.00  0.00    +0.000 NA
ATOM      3  N   UNL     1       3.961   4.476  18.325  0.00  0.00    +0.000 N 
ATOM      4  C   UNL     1       3.112   4.652  19.417  0.00  0.00    +0.000 A 
ATOM      5  O   UNL     1       3.327   5.450  20.326  0.00  0.00    +0.000 OA
ATOM      6  N   UNL     1       1.951   3.856  19.368  0.00  0.00    +0.000 N 
ATOM      7  C   UNL     1       1.611   3.096  18.262  0.00  0.00    +0.000 A 
ATOM      8  O   UNL     1       0.509   2.568  18.158  0.00  0.00    +0.000 OA
ATOM      9  N   UNL     1       2.511   2.965  17.246  0.00  0.00    +0.000 NA
ATOM     10  C   UNL     1       3.589   3.640  17.325  0.00  0.00    +0.000 A 
ATOM     11  S   UNL     1       4.763   3.582  16.073  0.00  0.00    +0.000 S 
ENDROOT
BRANCH   1  12
ATOM     12  S   UNL     1       7.273   5.245  16.310  0.00  0.00    +0.000 S 
ATOM     13  O   UNL     1       8.249   4.266  16.744  0.00  0.00    +0.000 OA
ATOM     14  O   UNL     1       7.418   6.649  16.644  0.00  0.00    +0.000 OA
BRANCH  12  15
ATOM     15  N   UNL     1       7.320   5.212  14.628  0.00  0.00    +0.000 NA
ATOM     16  H   UNL     1       8.299   5.048  14.365  0.00  0.00    +0.000 HD
ATOM     17  H   UNL     1       7.016   6.109  14.246  0.00  0.00    +0.000 HD
ENDBRANCH  12  15
ENDBRANCH   1  12
BRANCH   6  18
ATOM     18  C   UNL     1       0.922   3.955  20.409  0.00  0.00    +0.000 C 
BRANCH  18  19
ATOM     19  C   UNL     1       1.061   2.938  21.557  0.00  0.00    +0.000 C 
ATOM     20 CL   UNL     1       2.740   2.365  21.713  0.00  0.00    +0.000 Cl
ENDBRANCH  18  19
ENDBRANCH   6  18
TORSDOF 4
ENDMDL
MODEL 7
REMARK VINA RESULT:      -6.4      1.472      2.439
REMARK  Name = 
REMARK  4 active torsions:
REMARK  status: ('A' for Active; 'I' for Inactive)
REMARK    1  A    between atoms: N_1  and  S_2
REMARK    2  A    between atoms: S_2  and  C_5
REMARK    3  A    between atoms: N_10  and  C_11
REMARK    4  A    between atoms: C_11  and  C_12
REMARK                            x       y       z     vdW  Elec       q    Type
REMARK                         _______ _______ _______ _____ _____    ______ ____
ROOT
ATOM      1  C   UNL     1       3.057   4.005  18.609  0.00  0.00    +0.000 A 
ATOM      2  N   UNL     1       3.444   4.909  17.741  0.00  0.00    +0.000 NA
ATOM      3  N   UNL     1       4.777   5.262  18.034  0.00  0.00    +0.000 N 
ATOM      4  C   UNL     1       5.523   6.213  17.341  0.00  0.00    +0.000 A 
ATOM      5  O   UNL     1       5.077   6.892  16.419  0.00  0.00    +0.000 OA
ATOM      6  N   UNL     1       6.840   6.361  17.819  0.00  0.00    +0.000 N 
ATOM      7  C   UNL     1       7.292   5.739  18.970  0.00  0.00    +0.000 A 
ATOM      8  O   UNL     1       8.370   6.029  19.478  0.00  0.00    +0.000 OA
ATOM      9  N   UNL     1       6.500   4.808  19.574  0.00  0.00    +0.000 NA
ATOM     10  C   UNL     1       5.331   4.631  19.098  0.00  0.00    +0.000 A 
ATOM     11  S   UNL     1       4.241   3.518  19.819  0.00  0.00    +0.000 S 
ENDROOT
BRANCH   1  12
ATOM     12  S   UNL     1       1.470   3.190  18.662  0.00  0.00    +0.000 S 
ATOM     13  O   UNL     1       1.735   1.768  18.755  0.00  0.00    +0.000 OA
ATOM     14  O   UNL     1       0.711   3.741  17.555  0.00  0.00    +0.000 OA
BRANCH  12  15
ATOM     15  N   UNL     1       0.553   3.567  20.022  0.00  0.00    +0.000 NA
ATOM     16  H   UNL     1       0.401   2.686  20.527  0.00  0.00    +0.000 HD
ATOM     17  H   UNL     1      -0.349   3.956  19.746  0.00  0.00    +0.000 HD
ENDBRANCH  12  15
ENDBRANCH   1  12
BRANCH   6  18
ATOM     18  C   UNL     1       7.747   7.358  17.240  0.00  0.00    +0.000 C 
BRANCH  18  19
ATOM     19  C   UNL     1       7.497   8.807  17.700  0.00  0.00    +0.000 C 
ATOM     20 CL   UNL     1       8.830   9.399  18.723  0.00  0.00    +0.000 Cl
ENDBRANCH  18  19
ENDBRANCH   6  18
TORSDOF 4
ENDMDL
MODEL 8
REMARK VINA RESULT:      -6.3      4.506      5.073
REMARK  Name = 
REMARK  4 active torsions:
REMARK  status: ('A' for Active; 'I' for Inactive)
REMARK    1  A    between atoms: N_1  and  S_2
REMARK    2  A    between atoms: S_2  and  C_5
REMARK    3  A    between atoms: N_10  and  C_11
REMARK    4  A    between atoms: C_11  and  C_12
REMARK                            x       y       z     vdW  Elec       q    Type
REMARK                         _______ _______ _______ _____ _____    ______ ____
ROOT
ATOM      1  C   UNL     1       2.924   4.448  19.737  0.00  0.00    +0.000 A 
ATOM      2  N   UNL     1       2.334   5.315  20.523  0.00  0.00    +0.000 NA
ATOM      3  N   UNL     1       2.166   6.518  19.807  0.00  0.00    +0.000 N 
ATOM      4  C   UNL     1       1.596   7.682  20.321  0.00  0.00    +0.000 A 
ATOM      5  O   UNL     1       1.218   7.802  21.485  0.00  0.00    +0.000 OA
ATOM      6  N   UNL     1       1.523   8.738  19.391  0.00  0.00    +0.000 N 
ATOM      7  C   UNL     1       2.112   8.674  18.140  0.00  0.00    +0.000 A 
ATOM      8  O   UNL     1       2.210   9.664  17.423  0.00  0.00    +0.000 OA
ATOM      9  N   UNL     1       2.632   7.488  17.713  0.00  0.00    +0.000 NA
ATOM     10  C   UNL     1       2.637   6.516  18.537  0.00  0.00    +0.000 A 
ATOM     11  S   UNL     1       3.314   4.997  18.110  0.00  0.00    +0.000 S 
ENDROOT
BRANCH   1  12
ATOM     12  S   UNL     1       3.333   2.757  20.135  0.00  0.00    +0.000 S 
ATOM     13  O   UNL     1       2.614   1.922  19.193  0.00  0.00    +0.000 OA
ATOM     14  O   UNL     1       3.122   2.629  21.565  0.00  0.00    +0.000 OA
BRANCH  12  15
ATOM     15  N   UNL     1       4.959   2.378  19.921  0.00  0.00    +0.000 NA
ATOM     16  H   UNL     1       5.325   3.039  19.226  0.00  0.00    +0.000 HD
ATOM     17  H   UNL     1       5.059   1.426  19.565  0.00  0.00    +0.000 HD
ENDBRANCH  12  15
ENDBRANCH   1  12
BRANCH   6  18
ATOM     18  C   UNL     1       1.001  10.053  19.780  0.00  0.00    +0.000 C 
BRANCH  18  19
ATOM     19  C   UNL     1      -0.534  10.175  19.749  0.00  0.00    +0.000 C 
ATOM     20 CL   UNL     1      -1.144  10.245  18.077  0.00  0.00    +0.000 Cl
ENDBRANCH  18  19
ENDBRANCH   6  18
TORSDOF 4
ENDMDL
MODEL 9
REMARK VINA RESULT:      -6.2      1.043      1.203
REMARK  Name = 
REMARK  4 active torsions:
REMARK  status: ('A' for Active; 'I' for Inactive)
REMARK    1  A    between atoms: N_1  and  S_2
REMARK    2  A    between atoms: S_2  and  C_5
REMARK    3  A    between atoms: N_10  and  C_11
REMARK    4  A    between atoms: C_11  and  C_12
REMARK                            x       y       z     vdW  Elec       q    Type
REMARK                         _______ _______ _______ _____ _____    ______ ____
ROOT
ATOM      1  C   UNL     1       2.806   3.969  19.514  0.00  0.00    +0.000 A 
ATOM      2  N   UNL     1       4.053   4.160  19.870  0.00  0.00    +0.000 NA
ATOM      3  N   UNL     1       4.679   4.952  18.885  0.00  0.00    +0.000 N 
ATOM      4  C   UNL     1       6.016   5.344  18.905  0.00  0.00    +0.000 A 
ATOM      5  O   UNL     1       6.817   4.996  19.769  0.00  0.00    +0.000 OA
ATOM      6  N   UNL     1       6.387   6.154  17.813  0.00  0.00    +0.000 N 
ATOM      7  C   UNL     1       5.544   6.396  16.742  0.00  0.00    +0.000 A 
ATOM      8  O   UNL     1       5.946   6.934  15.716  0.00  0.00    +0.000 OA
ATOM      9  N   UNL     1       4.245   5.989  16.816  0.00  0.00    +0.000 NA
ATOM     10  C   UNL     1       3.898   5.311  17.838  0.00  0.00    +0.000 A 
ATOM     11  S   UNL     1       2.297   4.711  17.999  0.00  0.00    +0.000 S 
ENDROOT
BRANCH   1  12
ATOM     12  S   UNL     1       1.563   3.071  20.427  0.00  0.00    +0.000 S 
ATOM     13  O   UNL     1       1.458   1.763  19.811  0.00  0.00    +0.000 OA
ATOM     14  O   UNL     1       0.418   3.959  20.506  0.00  0.00    +0.000 OA
BRANCH  12  15
ATOM     15  N   UNL     1       1.972   2.780  22.033  0.00  0.00    +0.000 NA
ATOM     16  H   UNL     1       1.680   3.608  22.565  0.00  0.00    +0.000 HD
ATOM     17  H   UNL     1       2.982   2.660  22.127  0.00  0.00    +0.000 HD
ENDBRANCH  12  15
ENDBRANCH   1  12
BRANCH   6  18
ATOM     18  C   UNL     1       7.771   6.612  17.647  0.00  0.00    +0.000 C 
BRANCH  18  19
ATOM     19  C   UNL     1       8.190   7.760  18.583  0.00  0.00    +0.000 C 
ATOM     20 CL   UNL     1       8.042   9.340  17.774  0.00  0.00    +0.000 Cl
ENDBRANCH  18  19
ENDBRANCH   6  18
TORSDOF 4
ENDMDL
