MODEL 1
REMARK VINA RESULT:      -8.2      0.000      0.000
REMARK  Name = 
REMARK  15 active torsions:
REMARK  status: ('A' for Active; 'I' for Inactive)
REMARK    1  A    between atoms: C_1  and  C_2
REMARK    2  A    between atoms: C_2  and  N_3
REMARK    3  A    between atoms: C_4  and  C_5
REMARK    4  A    between atoms: C_5  and  N_6
REMARK    5  A    between atoms: C_7  and  C_9
REMARK    6  A    between atoms: C_9  and  O_10
REMARK    7  A    between atoms: O_10  and  C_11
REMARK    8  A    between atoms: C_14  and  C_15
REMARK    9  A    between atoms: C_15  and  C_16
REMARK   10  A    between atoms: C_15  and  C_17
REMARK   11  A    between atoms: C_22  and  S_23
REMARK   12  A    between atoms: S_23  and  C_24
REMARK   13  A    between atoms: C_24  and  C_25
REMARK   14  A    between atoms: N_27  and  C_28
REMARK   15  A    between atoms: C_34  and  C_35
REMARK                            x       y       z     vdW  Elec       q    Type
REMARK                         _______ _______ _______ _____ _____    ______ ____
ROOT
ATOM      1  N   UNL     1       1.659   4.376  19.764  0.00  0.00    +0.000 N 
ATOM      2  C   UNL     1       1.810   5.748  19.907  0.00  0.00    +0.000 A 
ATOM      3  N   UNL     1       2.352   6.226  18.806  0.00  0.00    +0.000 NA
ATOM      4  N   UNL     1       2.548   5.188  17.925  0.00  0.00    +0.000 NA
ATOM      5  C   UNL     1       2.112   4.095  18.502  0.00  0.00    +0.000 A 
ENDROOT
BRANCH   1   7
ATOM      6  C   UNL     1       2.101   3.034  21.804  0.00  0.00    +0.000 C 
ATOM      7  C   UNL     1       1.107   3.445  20.726  0.00  0.00    +0.000 C 
ENDBRANCH   1   7
BRANCH   2   8
ATOM      8  C   UNL     1       1.480   6.545  21.126  0.00  0.00    +0.000 C 
BRANCH   8   9
ATOM      9  N   UNL     1       1.511   8.002  20.980  0.00  0.00    +0.000 N 
ATOM     10  C   UNL     1       0.615   8.896  21.505  0.00  0.00    +0.000 C 
ATOM     11  O   UNL     1      -0.387   8.578  22.152  0.00  0.00    +0.000 OA
ATOM     12  H   UNL     1       2.254   8.374  20.403  0.00  0.00    +0.000 HD
BRANCH  10  13
ATOM     13  C   UNL     1       0.989  10.373  21.342  0.00  0.00    +0.000 C 
BRANCH  13  14
ATOM     14  O   UNL     1      -0.145  11.206  21.165  0.00  0.00    +0.000 OA
BRANCH  14  15
ATOM     15  C   UNL     1      -0.774  11.098  19.951  0.00  0.00    +0.000 A 
ATOM     16  C   UNL     1      -2.009  11.738  19.862  0.00  0.00    +0.000 A 
ATOM     17  C   UNL     1      -2.755  11.696  18.676  0.00  0.00    +0.000 A 
ATOM     18  C   UNL     1      -2.264  11.036  17.540  0.00  0.00    +0.000 A 
ATOM     19  C   UNL     1      -1.016  10.405  17.634  0.00  0.00    +0.000 A 
ATOM     20  C   UNL     1      -0.275  10.440  18.825  0.00  0.00    +0.000 A 
BRANCH  18  21
ATOM     21  C   UNL     1      -3.059  11.058  16.245  0.00  0.00    +0.000 C 
ATOM     22  C   UNL     1      -2.977   9.714  15.513  0.00  0.00    +0.000 C 
ATOM     23  C   UNL     1      -4.517  11.458  16.461  0.00  0.00    +0.000 C 
ENDBRANCH  18  21
ENDBRANCH  14  15
ENDBRANCH  13  14
ENDBRANCH  10  13
ENDBRANCH   8   9
ENDBRANCH   2   8
BRANCH   5  24
ATOM     24  S   UNL     1       2.113   2.512  17.797  0.00  0.00    +0.000 S 
BRANCH  24  25
ATOM     25  C   UNL     1       3.649   1.797  18.459  0.00  0.00    +0.000 C 
BRANCH  25  26
ATOM     26  C   UNL     1       4.656   2.888  18.783  0.00  0.00    +0.000 C 
ATOM     27  O   UNL     1       4.960   3.129  19.951  0.00  0.00    +0.000 OA
ATOM     28  N   UNL     1       5.151   3.543  17.661  0.00  0.00    +0.000 N 
ATOM     29  H   UNL     1       4.642   3.389  16.798  0.00  0.00    +0.000 HD
BRANCH  28  30
ATOM     30  C   UNL     1       6.052   4.635  17.681  0.00  0.00    +0.000 A 
ATOM     31  C   UNL     1       6.947   4.824  18.742  0.00  0.00    +0.000 A 
ATOM     32  C   UNL     1       7.756   5.949  18.793  0.00  0.00    +0.000 A 
ATOM     33  F   UNL     1       8.576   6.125  19.838  0.00  0.00    +0.000 F 
ATOM     34  C   UNL     1       7.728   6.895  17.782  0.00  0.00    +0.000 A 
ATOM     35  C   UNL     1       6.883   6.698  16.690  0.00  0.00    +0.000 A 
ATOM     36  C   UNL     1       6.036   5.574  16.624  0.00  0.00    +0.000 A 
ATOM     37  C   UNL     1       5.145   5.437  15.417  0.00  0.00    +0.000 C 
ENDBRANCH  28  30
ENDBRANCH  25  26
ENDBRANCH  24  25
ENDBRANCH   5  24
TORSDOF 11
ENDMDL
MODEL 2
REMARK VINA RESULT:      -8.1      1.115      1.468
REMARK  Name = 
REMARK  15 active torsions:
REMARK  status: ('A' for Active; 'I' for Inactive)
REMARK    1  A    between atoms: C_1  and  C_2
REMARK    2  A    between atoms: C_2  and  N_3
REMARK    3  A    between atoms: C_4  and  C_5
REMARK    4  A    between atoms: C_5  and  N_6
REMARK    5  A    between atoms: C_7  and  C_9
REMARK    6  A    between atoms: C_9  and  O_10
REMARK    7  A    between atoms: O_10  and  C_11
REMARK    8  A    between atoms: C_14  and  C_15
REMARK    9  A    between atoms: C_15  and  C_16
REMARK   10  A    between atoms: C_15  and  C_17
REMARK   11  A    between atoms: C_22  and  S_23
REMARK   12  A    between atoms: S_23  and  C_24
REMARK   13  A    between atoms: C_24  and  C_25
REMARK   14  A    between atoms: N_27  and  C_28
REMARK   15  A    between atoms: C_34  and  C_35
REMARK                            x       y       z     vdW  Elec       q    Type
REMARK                         _______ _______ _______ _____ _____    ______ ____
ROOT
ATOM      1  N   UNL     1       1.756   4.752  19.833  0.00  0.00    +0.000 N 
ATOM      2  C   UNL     1       2.002   6.111  19.699  0.00  0.00    +0.000 A 
ATOM      3  N   UNL     1       2.438   6.339  18.477  0.00  0.00    +0.000 NA
ATOM      4  N   UNL     1       2.468   5.146  17.792  0.00  0.00    +0.000 NA
ATOM      5  C   UNL     1       2.040   4.213  18.606  0.00  0.00    +0.000 A 
ENDROOT
BRANCH   1   7
ATOM      6  C   UNL     1       2.312   3.157  21.651  0.00  0.00    +0.000 C 
ATOM      7  C   UNL     1       1.266   4.056  21.006  0.00  0.00    +0.000 C 
ENDBRANCH   1   7
BRANCH   2   8
ATOM      8  C   UNL     1       1.865   7.138  20.775  0.00  0.00    +0.000 C 
BRANCH   8   9
ATOM      9  N   UNL     1       1.355   8.448  20.363  0.00  0.00    +0.000 N 
ATOM     10  C   UNL     1       1.136   9.532  21.173  0.00  0.00    +0.000 C 
ATOM     11  O   UNL     1       1.305   9.532  22.395  0.00  0.00    +0.000 OA
ATOM     12  H   UNL     1       1.112   8.542  19.386  0.00  0.00    +0.000 HD
BRANCH  10  13
ATOM     13  C   UNL     1       0.766  10.829  20.446  0.00  0.00    +0.000 C 
BRANCH  13  14
ATOM     14  O   UNL     1       0.257  10.598  19.144  0.00  0.00    +0.000 OA
BRANCH  14  15
ATOM     15  C   UNL     1      -1.063  10.925  18.959  0.00  0.00    +0.000 A 
ATOM     16  C   UNL     1      -1.566  11.886  19.834  0.00  0.00    +0.000 A 
ATOM     17  C   UNL     1      -2.902  12.301  19.753  0.00  0.00    +0.000 A 
ATOM     18  C   UNL     1      -3.758  11.784  18.770  0.00  0.00    +0.000 A 
ATOM     19  C   UNL     1      -3.241  10.827  17.886  0.00  0.00    +0.000 A 
ATOM     20  C   UNL     1      -1.906  10.405  17.974  0.00  0.00    +0.000 A 
BRANCH  18  21
ATOM     21  C   UNL     1      -5.185  12.295  18.657  0.00  0.00    +0.000 C 
ATOM     22  C   UNL     1      -5.863  11.791  17.379  0.00  0.00    +0.000 C 
ATOM     23  C   UNL     1      -6.029  11.945  19.882  0.00  0.00    +0.000 C 
ENDBRANCH  18  21
ENDBRANCH  14  15
ENDBRANCH  13  14
ENDBRANCH  10  13
ENDBRANCH   8   9
ENDBRANCH   2   8
BRANCH   5  24
ATOM     24  S   UNL     1       1.865   2.535  18.216  0.00  0.00    +0.000 S 
BRANCH  24  25
ATOM     25  C   UNL     1       3.540   2.092  17.661  0.00  0.00    +0.000 C 
BRANCH  25  26
ATOM     26  C   UNL     1       4.574   3.023  18.272  0.00  0.00    +0.000 C 
ATOM     27  O   UNL     1       4.809   2.987  19.479  0.00  0.00    +0.000 OA
ATOM     28  N   UNL     1       5.175   3.873  17.351  0.00  0.00    +0.000 N 
ATOM     29  H   UNL     1       4.718   3.941  16.448  0.00  0.00    +0.000 HD
BRANCH  28  30
ATOM     30  C   UNL     1       6.123   4.878  17.660  0.00  0.00    +0.000 A 
ATOM     31  C   UNL     1       7.080   4.693  18.666  0.00  0.00    +0.000 A 
ATOM     32  C   UNL     1       7.940   5.721  19.022  0.00  0.00    +0.000 A 
ATOM     33  F   UNL     1       8.821   5.532  20.013  0.00  0.00    +0.000 F 
ATOM     34  C   UNL     1       7.902   6.942  18.369  0.00  0.00    +0.000 A 
ATOM     35  C   UNL     1       6.993   7.128  17.328  0.00  0.00    +0.000 A 
ATOM     36  C   UNL     1       6.094   6.107  16.961  0.00  0.00    +0.000 A 
ATOM     37  C   UNL     1       5.136   6.387  15.833  0.00  0.00    +0.000 C 
ENDBRANCH  28  30
ENDBRANCH  25  26
ENDBRANCH  24  25
ENDBRANCH   5  24
TORSDOF 11
ENDMDL
MODEL 3
REMARK VINA RESULT:      -7.7      5.229      8.330
REMARK  Name = 
REMARK  15 active torsions:
REMARK  status: ('A' for Active; 'I' for Inactive)
REMARK    1  A    between atoms: C_1  and  C_2
REMARK    2  A    between atoms: C_2  and  N_3
REMARK    3  A    between atoms: C_4  and  C_5
REMARK    4  A    between atoms: C_5  and  N_6
REMARK    5  A    between atoms: C_7  and  C_9
REMARK    6  A    between atoms: C_9  and  O_10
REMARK    7  A    between atoms: O_10  and  C_11
REMARK    8  A    between atoms: C_14  and  C_15
REMARK    9  A    between atoms: C_15  and  C_16
REMARK   10  A    between atoms: C_15  and  C_17
REMARK   11  A    between atoms: C_22  and  S_23
REMARK   12  A    between atoms: S_23  and  C_24
REMARK   13  A    between atoms: C_24  and  C_25
REMARK   14  A    between atoms: N_27  and  C_28
REMARK   15  A    between atoms: C_34  and  C_35
REMARK                            x       y       z     vdW  Elec       q    Type
REMARK                         _______ _______ _______ _____ _____    ______ ____
ROOT
ATOM      1  N   UNL     1       6.042   5.832  17.458  0.00  0.00    +0.000 N 
ATOM      2  C   UNL     1       7.090   6.489  18.086  0.00  0.00    +0.000 A 
ATOM      3  N   UNL     1       7.286   5.932  19.264  0.00  0.00    +0.000 NA
ATOM      4  N   UNL     1       6.390   4.900  19.417  0.00  0.00    +0.000 NA
ATOM      5  C   UNL     1       5.668   4.840  18.325  0.00  0.00    +0.000 A 
ENDROOT
BRANCH   1   7
ATOM      6  C   UNL     1       6.047   5.211  15.054  0.00  0.00    +0.000 C 
ATOM      7  C   UNL     1       5.486   6.109  16.149  0.00  0.00    +0.000 C 
ENDBRANCH   1   7
BRANCH   2   8
ATOM      8  C   UNL     1       7.829   7.672  17.553  0.00  0.00    +0.000 C 
BRANCH   8   9
ATOM      9  N   UNL     1       8.643   8.419  18.516  0.00  0.00    +0.000 N 
ATOM     10  C   UNL     1       8.807   9.778  18.567  0.00  0.00    +0.000 C 
ATOM     11  O   UNL     1       8.309  10.570  17.762  0.00  0.00    +0.000 OA
ATOM     12  H   UNL     1       9.160   7.864  19.185  0.00  0.00    +0.000 HD
BRANCH  10  13
ATOM     13  C   UNL     1       9.573  10.301  19.787  0.00  0.00    +0.000 C 
BRANCH  13  14
ATOM     14  O   UNL     1       9.977  11.652  19.638  0.00  0.00    +0.000 OA
BRANCH  14  15
ATOM     15  C   UNL     1       9.275  12.564  20.384  0.00  0.00    +0.000 A 
ATOM     16  C   UNL     1       9.338  12.379  21.764  0.00  0.00    +0.000 A 
ATOM     17  C   UNL     1       8.658  13.240  22.636  0.00  0.00    +0.000 A 
ATOM     18  C   UNL     1       7.921  14.327  22.144  0.00  0.00    +0.000 A 
ATOM     19  C   UNL     1       7.871  14.513  20.756  0.00  0.00    +0.000 A 
ATOM     20  C   UNL     1       8.545  13.645  19.884  0.00  0.00    +0.000 A 
BRANCH  18  21
ATOM     21  C   UNL     1       7.244  15.286  23.109  0.00  0.00    +0.000 C 
ATOM     22  C   UNL     1       6.437  14.536  24.175  0.00  0.00    +0.000 C 
ATOM     23  C   UNL     1       8.234  16.245  23.768  0.00  0.00    +0.000 C 
ENDBRANCH  18  21
ENDBRANCH  14  15
ENDBRANCH  13  14
ENDBRANCH  10  13
ENDBRANCH   8   9
ENDBRANCH   2   8
BRANCH   5  24
ATOM     24  S   UNL     1       4.410   3.692  18.009  0.00  0.00    +0.000 S 
BRANCH  24  25
ATOM     25  C   UNL     1       3.520   3.649  19.594  0.00  0.00    +0.000 C 
BRANCH  25  26
ATOM     26  C   UNL     1       2.451   4.729  19.642  0.00  0.00    +0.000 C 
ATOM     27  O   UNL     1       1.274   4.451  19.413  0.00  0.00    +0.000 OA
ATOM     28  N   UNL     1       2.944   5.992  19.948  0.00  0.00    +0.000 N 
ATOM     29  H   UNL     1       3.951   6.101  19.885  0.00  0.00    +0.000 HD
BRANCH  28  30
ATOM     30  C   UNL     1       2.178   7.182  19.997  0.00  0.00    +0.000 A 
ATOM     31  C   UNL     1       1.431   7.522  21.132  0.00  0.00    +0.000 A 
ATOM     32  C   UNL     1       0.612   8.641  21.129  0.00  0.00    +0.000 A 
ATOM     33  F   UNL     1      -0.122   8.924  22.214  0.00  0.00    +0.000 F 
ATOM     34  C   UNL     1       0.539   9.470  20.023  0.00  0.00    +0.000 A 
ATOM     35  C   UNL     1       1.317   9.179  18.902  0.00  0.00    +0.000 A 
ATOM     36  C   UNL     1       2.142   8.037  18.871  0.00  0.00    +0.000 A 
ATOM     37  C   UNL     1       2.944   7.784  17.621  0.00  0.00    +0.000 C 
ENDBRANCH  28  30
ENDBRANCH  25  26
ENDBRANCH  24  25
ENDBRANCH   5  24
TORSDOF 11
ENDMDL
MODEL 4
REMARK VINA RESULT:      -7.6      5.817      9.147
REMARK  Name = 
REMARK  15 active torsions:
REMARK  status: ('A' for Active; 'I' for Inactive)
REMARK    1  A    between atoms: C_1  and  C_2
REMARK    2  A    between atoms: C_2  and  N_3
REMARK    3  A    between atoms: C_4  and  C_5
REMARK    4  A    between atoms: C_5  and  N_6
REMARK    5  A    between atoms: C_7  and  C_9
REMARK    6  A    between atoms: C_9  and  O_10
REMARK    7  A    between atoms: O_10  and  C_11
REMARK    8  A    between atoms: C_14  and  C_15
REMARK    9  A    between atoms: C_15  and  C_16
REMARK   10  A    between atoms: C_15  and  C_17
REMARK   11  A    between atoms: C_22  and  S_23
REMARK   12  A    between atoms: S_23  and  C_24
REMARK   13  A    between atoms: C_24  and  C_25
REMARK   14  A    between atoms: N_27  and  C_28
REMARK   15  A    between atoms: C_34  and  C_35
REMARK                            x       y       z     vdW  Elec       q    Type
REMARK                         _______ _______ _______ _____ _____    ______ ____
ROOT
ATOM      1  N   UNL     1       3.348  14.525  19.690  0.00  0.00    +0.000 N 
ATOM      2  C   UNL     1       2.399  13.559  19.993  0.00  0.00    +0.000 A 
ATOM      3  N   UNL     1       2.512  13.249  21.268  0.00  0.00    +0.000 NA
ATOM      4  N   UNL     1       3.515  14.012  21.820  0.00  0.00    +0.000 NA
ATOM      5  C   UNL     1       3.991  14.781  20.872  0.00  0.00    +0.000 A 
ENDROOT
BRANCH   1   7
ATOM      6  C   UNL     1       2.715  16.385  18.172  0.00  0.00    +0.000 C 
ATOM      7  C   UNL     1       3.585  15.157  18.407  0.00  0.00    +0.000 C 
ENDBRANCH   1   7
BRANCH   2   8
ATOM      8  C   UNL     1       1.453  12.925  19.027  0.00  0.00    +0.000 C 
BRANCH   8   9
ATOM      9  N   UNL     1       1.272  11.476  19.150  0.00  0.00    +0.000 N 
ATOM     10  C   UNL     1       1.803  10.513  18.333  0.00  0.00    +0.000 C 
ATOM     11  O   UNL     1       2.490  10.749  17.335  0.00  0.00    +0.000 OA
ATOM     12  H   UNL     1       0.662  11.167  19.897  0.00  0.00    +0.000 HD
BRANCH  10  13
ATOM     13  C   UNL     1       1.593   9.069  18.799  0.00  0.00    +0.000 C 
BRANCH  13  14
ATOM     14  O   UNL     1       2.682   8.225  18.465  0.00  0.00    +0.000 OA
BRANCH  14  15
ATOM     15  C   UNL     1       2.503   6.893  18.740  0.00  0.00    +0.000 A 
ATOM     16  C   UNL     1       2.106   6.602  20.044  0.00  0.00    +0.000 A 
ATOM     17  C   UNL     1       1.896   5.278  20.452  0.00  0.00    +0.000 A 
ATOM     18  C   UNL     1       2.052   4.214  19.551  0.00  0.00    +0.000 A 
ATOM     19  C   UNL     1       2.441   4.515  18.239  0.00  0.00    +0.000 A 
ATOM     20  C   UNL     1       2.659   5.841  17.834  0.00  0.00    +0.000 A 
BRANCH  18  21
ATOM     21  C   UNL     1       1.756   2.791  19.996  0.00  0.00    +0.000 C 
ATOM     22  C   UNL     1       1.380   2.734  21.481  0.00  0.00    +0.000 C 
ATOM     23  C   UNL     1       0.674   2.127  19.147  0.00  0.00    +0.000 C 
ENDBRANCH  18  21
ENDBRANCH  14  15
ENDBRANCH  13  14
ENDBRANCH  10  13
ENDBRANCH   8   9
ENDBRANCH   2   8
BRANCH   5  24
ATOM     24  S   UNL     1       5.258  15.948  21.059  0.00  0.00    +0.000 S 
BRANCH  24  25
ATOM     25  C   UNL     1       6.662  14.913  21.577  0.00  0.00    +0.000 C 
BRANCH  25  26
ATOM     26  C   UNL     1       7.530  14.546  20.385  0.00  0.00    +0.000 C 
ATOM     27  O   UNL     1       7.237  14.938  19.256  0.00  0.00    +0.000 OA
ATOM     28  N   UNL     1       8.624  13.753  20.713  0.00  0.00    +0.000 N 
ATOM     29  H   UNL     1       8.603  13.330  21.634  0.00  0.00    +0.000 HD
BRANCH  28  30
ATOM     30  C   UNL     1       9.556  13.220  19.789  0.00  0.00    +0.000 A 
ATOM     31  C   UNL     1       9.263  12.078  19.034  0.00  0.00    +0.000 A 
ATOM     32  C   UNL     1      10.221  11.514  18.205  0.00  0.00    +0.000 A 
ATOM     33  F   UNL     1       9.929  10.398  17.523  0.00  0.00    +0.000 F 
ATOM     34  C   UNL     1      11.476  12.083  18.074  0.00  0.00    +0.000 A 
ATOM     35  C   UNL     1      11.770  13.253  18.775  0.00  0.00    +0.000 A 
ATOM     36  C   UNL     1      10.821  13.834  19.640  0.00  0.00    +0.000 A 
ATOM     37  C   UNL     1      11.216  15.091  20.371  0.00  0.00    +0.000 C 
ENDBRANCH  28  30
ENDBRANCH  25  26
ENDBRANCH  24  25
ENDBRANCH   5  24
TORSDOF 11
ENDMDL
MODEL 5
REMARK VINA RESULT:      -7.6      2.207      2.996
REMARK  Name = 
REMARK  15 active torsions:
REMARK  status: ('A' for Active; 'I' for Inactive)
REMARK    1  A    between atoms: C_1  and  C_2
REMARK    2  A    between atoms: C_2  and  N_3
REMARK    3  A    between atoms: C_4  and  C_5
REMARK    4  A    between atoms: C_5  and  N_6
REMARK    5  A    between atoms: C_7  and  C_9
REMARK    6  A    between atoms: C_9  and  O_10
REMARK    7  A    between atoms: O_10  and  C_11
REMARK    8  A    between atoms: C_14  and  C_15
REMARK    9  A    between atoms: C_15  and  C_16
REMARK   10  A    between atoms: C_15  and  C_17
REMARK   11  A    between atoms: C_22  and  S_23
REMARK   12  A    between atoms: S_23  and  C_24
REMARK   13  A    between atoms: C_24  and  C_25
REMARK   14  A    between atoms: N_27  and  C_28
REMARK   15  A    between atoms: C_34  and  C_35
REMARK                            x       y       z     vdW  Elec       q    Type
REMARK                         _______ _______ _______ _____ _____    ______ ____
ROOT
ATOM      1  N   UNL     1       1.975   5.061  19.140  0.00  0.00    +0.000 N 
ATOM      2  C   UNL     1       2.051   5.784  20.322  0.00  0.00    +0.000 A 
ATOM      3  N   UNL     1       1.864   4.958  21.331  0.00  0.00    +0.000 NA
ATOM      4  N   UNL     1       1.681   3.689  20.832  0.00  0.00    +0.000 NA
ATOM      5  C   UNL     1       1.769   3.763  19.527  0.00  0.00    +0.000 A 
ENDROOT
BRANCH   1   7
ATOM      6  C   UNL     1       3.194   6.633  17.657  0.00  0.00    +0.000 C 
ATOM      7  C   UNL     1       2.119   5.562  17.789  0.00  0.00    +0.000 C 
ENDBRANCH   1   7
BRANCH   2   8
ATOM      8  C   UNL     1       2.243   7.261  20.436  0.00  0.00    +0.000 C 
BRANCH   8   9
ATOM      9  N   UNL     1       1.442   7.945  21.454  0.00  0.00    +0.000 N 
ATOM     10  C   UNL     1       0.836   9.168  21.332  0.00  0.00    +0.000 C 
ATOM     11  O   UNL     1       0.923   9.891  20.335  0.00  0.00    +0.000 OA
ATOM     12  H   UNL     1       1.362   7.475  22.346  0.00  0.00    +0.000 HD
BRANCH  10  13
ATOM     13  C   UNL     1      -0.085   9.563  22.490  0.00  0.00    +0.000 C 
BRANCH  13  14
ATOM     14  O   UNL     1      -0.084  10.959  22.736  0.00  0.00    +0.000 OA
BRANCH  14  15
ATOM     15  C   UNL     1      -1.285  11.594  22.544  0.00  0.00    +0.000 A 
ATOM     16  C   UNL     1      -1.503  12.078  21.255  0.00  0.00    +0.000 A 
ATOM     17  C   UNL     1      -2.688  12.752  20.932  0.00  0.00    +0.000 A 
ATOM     18  C   UNL     1      -3.698  12.929  21.889  0.00  0.00    +0.000 A 
ATOM     19  C   UNL     1      -3.477  12.429  23.179  0.00  0.00    +0.000 A 
ATOM     20  C   UNL     1      -2.286  11.763  23.503  0.00  0.00    +0.000 A 
BRANCH  18  21
ATOM     21  C   UNL     1      -5.003  13.605  21.501  0.00  0.00    +0.000 C 
ATOM     22  C   UNL     1      -4.757  14.853  20.645  0.00  0.00    +0.000 C 
ATOM     23  C   UNL     1      -5.965  12.654  20.790  0.00  0.00    +0.000 C 
ENDBRANCH  18  21
ENDBRANCH  14  15
ENDBRANCH  13  14
ENDBRANCH  10  13
ENDBRANCH   8   9
ENDBRANCH   2   8
BRANCH   5  24
ATOM     24  S   UNL     1       1.634   2.430  18.429  0.00  0.00    +0.000 S 
BRANCH  24  25
ATOM     25  C   UNL     1       3.213   1.562  18.679  0.00  0.00    +0.000 C 
BRANCH  25  26
ATOM     26  C   UNL     1       4.352   2.555  18.846  0.00  0.00    +0.000 C 
ATOM     27  O   UNL     1       4.882   2.714  19.945  0.00  0.00    +0.000 OA
ATOM     28  N   UNL     1       4.689   3.222  17.675  0.00  0.00    +0.000 N 
ATOM     29  H   UNL     1       4.020   3.150  16.916  0.00  0.00    +0.000 HD
BRANCH  28  30
ATOM     30  C   UNL     1       5.669   4.239  17.564  0.00  0.00    +0.000 A 
ATOM     31  C   UNL     1       6.326   4.745  18.692  0.00  0.00    +0.000 A 
ATOM     32  C   UNL     1       7.213   5.805  18.577  0.00  0.00    +0.000 A 
ATOM     33  F   UNL     1       7.800   6.296  19.677  0.00  0.00    +0.000 F 
ATOM     34  C   UNL     1       7.500   6.365  17.344  0.00  0.00    +0.000 A 
ATOM     35  C   UNL     1       6.898   5.840  16.201  0.00  0.00    +0.000 A 
ATOM     36  C   UNL     1       5.977   4.777  16.293  0.00  0.00    +0.000 A 
ATOM     37  C   UNL     1       5.360   4.271  15.015  0.00  0.00    +0.000 C 
ENDBRANCH  28  30
ENDBRANCH  25  26
ENDBRANCH  24  25
ENDBRANCH   5  24
TORSDOF 11
ENDMDL
MODEL 6
REMARK VINA RESULT:      -7.5      4.903      9.882
REMARK  Name = 
REMARK  15 active torsions:
REMARK  status: ('A' for Active; 'I' for Inactive)
REMARK    1  A    between atoms: C_1  and  C_2
REMARK    2  A    between atoms: C_2  and  N_3
REMARK    3  A    between atoms: C_4  and  C_5
REMARK    4  A    between atoms: C_5  and  N_6
REMARK    5  A    between atoms: C_7  and  C_9
REMARK    6  A    between atoms: C_9  and  O_10
REMARK    7  A    between atoms: O_10  and  C_11
REMARK    8  A    between atoms: C_14  and  C_15
REMARK    9  A    between atoms: C_15  and  C_16
REMARK   10  A    between atoms: C_15  and  C_17
REMARK   11  A    between atoms: C_22  and  S_23
REMARK   12  A    between atoms: S_23  and  C_24
REMARK   13  A    between atoms: C_24  and  C_25
REMARK   14  A    between atoms: N_27  and  C_28
REMARK   15  A    between atoms: C_34  and  C_35
REMARK                            x       y       z     vdW  Elec       q    Type
REMARK                         _______ _______ _______ _____ _____    ______ ____
ROOT
ATOM      1  N   UNL     1      -2.470  12.601  21.512  0.00  0.00    +0.000 N 
ATOM      2  C   UNL     1      -2.201  11.813  22.621  0.00  0.00    +0.000 A 
ATOM      3  N   UNL     1      -3.299  11.718  23.343  0.00  0.00    +0.000 NA
ATOM      4  N   UNL     1      -4.300  12.422  22.715  0.00  0.00    +0.000 NA
ATOM      5  C   UNL     1      -3.797  12.926  21.616  0.00  0.00    +0.000 A 
ENDROOT
BRANCH   1   7
ATOM      6  C   UNL     1      -0.681  14.166  20.799  0.00  0.00    +0.000 C 
ATOM      7  C   UNL     1      -1.556  12.970  20.450  0.00  0.00    +0.000 C 
ENDBRANCH   1   7
BRANCH   2   8
ATOM      8  C   UNL     1      -0.876  11.224  22.979  0.00  0.00    +0.000 C 
BRANCH   8   9
ATOM      9  N   UNL     1      -0.477  10.022  22.243  0.00  0.00    +0.000 N 
ATOM     10  C   UNL     1       0.769   9.451  22.223  0.00  0.00    +0.000 C 
ATOM     11  O   UNL     1       1.755   9.912  22.805  0.00  0.00    +0.000 OA
ATOM     12  H   UNL     1      -1.192   9.597  21.667  0.00  0.00    +0.000 HD
BRANCH  10  13
ATOM     13  C   UNL     1       0.859   8.099  21.509  0.00  0.00    +0.000 C 
BRANCH  13  14
ATOM     14  O   UNL     1       1.947   8.033  20.602  0.00  0.00    +0.000 OA
BRANCH  14  15
ATOM     15  C   UNL     1       2.057   6.863  19.896  0.00  0.00    +0.000 A 
ATOM     16  C   UNL     1       1.574   5.728  20.545  0.00  0.00    +0.000 A 
ATOM     17  C   UNL     1       1.635   4.469  19.932  0.00  0.00    +0.000 A 
ATOM     18  C   UNL     1       2.157   4.323  18.638  0.00  0.00    +0.000 A 
ATOM     19  C   UNL     1       2.631   5.471  17.987  0.00  0.00    +0.000 A 
ATOM     20  C   UNL     1       2.577   6.728  18.606  0.00  0.00    +0.000 A 
BRANCH  18  21
ATOM     21  C   UNL     1       2.155   2.960  17.966  0.00  0.00    +0.000 C 
ATOM     22  C   UNL     1       3.577   2.495  17.635  0.00  0.00    +0.000 C 
ATOM     23  C   UNL     1       1.428   1.902  18.795  0.00  0.00    +0.000 C 
ENDBRANCH  18  21
ENDBRANCH  14  15
ENDBRANCH  13  14
ENDBRANCH  10  13
ENDBRANCH   8   9
ENDBRANCH   2   8
BRANCH   5  24
ATOM     24  S   UNL     1      -4.660  13.880  20.455  0.00  0.00    +0.000 S 
BRANCH  24  25
ATOM     25  C   UNL     1      -6.048  12.791  20.017  0.00  0.00    +0.000 C 
BRANCH  25  26
ATOM     26  C   UNL     1      -5.651  11.830  18.907  0.00  0.00    +0.000 C 
ATOM     27  O   UNL     1      -6.400  10.909  18.583  0.00  0.00    +0.000 OA
ATOM     28  N   UNL     1      -4.408  12.104  18.350  0.00  0.00    +0.000 N 
ATOM     29  H   UNL     1      -3.820  12.745  18.871  0.00  0.00    +0.000 HD
BRANCH  28  30
ATOM     30  C   UNL     1      -3.772  11.333  17.346  0.00  0.00    +0.000 A 
ATOM     31  C   UNL     1      -4.211  11.363  16.016  0.00  0.00    +0.000 A 
ATOM     32  C   UNL     1      -3.640  10.532  15.064  0.00  0.00    +0.000 A 
ATOM     33  F   UNL     1      -4.103  10.551  13.807  0.00  0.00    +0.000 F 
ATOM     34  C   UNL     1      -2.599   9.680  15.393  0.00  0.00    +0.000 A 
ATOM     35  C   UNL     1      -2.110   9.675  16.699  0.00  0.00    +0.000 A 
ATOM     36  C   UNL     1      -2.687  10.495  17.690  0.00  0.00    +0.000 A 
ATOM     37  C   UNL     1      -2.110  10.426  19.080  0.00  0.00    +0.000 C 
ENDBRANCH  28  30
ENDBRANCH  25  26
ENDBRANCH  24  25
ENDBRANCH   5  24
TORSDOF 11
ENDMDL
MODEL 7
REMARK VINA RESULT:      -7.5      4.424      9.558
REMARK  Name = 
REMARK  15 active torsions:
REMARK  status: ('A' for Active; 'I' for Inactive)
REMARK    1  A    between atoms: C_1  and  C_2
REMARK    2  A    between atoms: C_2  and  N_3
REMARK    3  A    between atoms: C_4  and  C_5
REMARK    4  A    between atoms: C_5  and  N_6
REMARK    5  A    between atoms: C_7  and  C_9
REMARK    6  A    between atoms: C_9  and  O_10
REMARK    7  A    between atoms: O_10  and  C_11
REMARK    8  A    between atoms: C_14  and  C_15
REMARK    9  A    between atoms: C_15  and  C_16
REMARK   10  A    between atoms: C_15  and  C_17
REMARK   11  A    between atoms: C_22  and  S_23
REMARK   12  A    between atoms: S_23  and  C_24
REMARK   13  A    between atoms: C_24  and  C_25
REMARK   14  A    between atoms: N_27  and  C_28
REMARK   15  A    between atoms: C_34  and  C_35
REMARK                            x       y       z     vdW  Elec       q    Type
REMARK                         _______ _______ _______ _____ _____    ______ ____
ROOT
ATOM      1  N   UNL     1       0.737   8.642  20.588  0.00  0.00    +0.000 N 
ATOM      2  C   UNL     1       1.504   7.512  20.341  0.00  0.00    +0.000 A 
ATOM      3  N   UNL     1       2.212   7.718  19.250  0.00  0.00    +0.000 NA
ATOM      4  N   UNL     1       1.936   8.979  18.777  0.00  0.00    +0.000 NA
ATOM      5  C   UNL     1       1.070   9.525  19.595  0.00  0.00    +0.000 A 
ENDROOT
BRANCH   1   7
ATOM      6  C   UNL     1       0.483   9.376  22.945  0.00  0.00    +0.000 C 
ATOM      7  C   UNL     1      -0.189   8.858  21.681  0.00  0.00    +0.000 C 
ENDBRANCH   1   7
BRANCH   2   8
ATOM      8  C   UNL     1       1.485   6.248  21.136  0.00  0.00    +0.000 C 
BRANCH   8   9
ATOM      9  N   UNL     1       1.827   5.020  20.415  0.00  0.00    +0.000 N 
ATOM     10  C   UNL     1       2.056   3.786  20.964  0.00  0.00    +0.000 C 
ATOM     11  O   UNL     1       2.044   3.550  22.175  0.00  0.00    +0.000 OA
ATOM     12  H   UNL     1       1.935   5.110  19.413  0.00  0.00    +0.000 HD
BRANCH  10  13
ATOM     13  C   UNL     1       2.220   2.641  19.959  0.00  0.00    +0.000 C 
BRANCH  13  14
ATOM     14  O   UNL     1       3.578   2.292  19.749  0.00  0.00    +0.000 OA
BRANCH  14  15
ATOM     15  C   UNL     1       4.251   3.061  18.834  0.00  0.00    +0.000 A 
ATOM     16  C   UNL     1       3.719   3.057  17.546  0.00  0.00    +0.000 A 
ATOM     17  C   UNL     1       4.318   3.798  16.519  0.00  0.00    +0.000 A 
ATOM     18  C   UNL     1       5.452   4.586  16.767  0.00  0.00    +0.000 A 
ATOM     19  C   UNL     1       5.975   4.594  18.067  0.00  0.00    +0.000 A 
ATOM     20  C   UNL     1       5.378   3.845  19.092  0.00  0.00    +0.000 A 
BRANCH  18  21
ATOM     21  C   UNL     1       6.048   5.433  15.655  0.00  0.00    +0.000 C 
ATOM     22  C   UNL     1       6.316   4.600  14.397  0.00  0.00    +0.000 C 
ATOM     23  C   UNL     1       5.182   6.645  15.316  0.00  0.00    +0.000 C 
ENDBRANCH  18  21
ENDBRANCH  14  15
ENDBRANCH  13  14
ENDBRANCH  10  13
ENDBRANCH   8   9
ENDBRANCH   2   8
BRANCH   5  24
ATOM     24  S   UNL     1       0.416  11.124  19.454  0.00  0.00    +0.000 S 
BRANCH  24  25
ATOM     25  C   UNL     1       1.304  12.020  20.764  0.00  0.00    +0.000 C 
BRANCH  25  26
ATOM     26  C   UNL     1       1.167  13.523  20.578  0.00  0.00    +0.000 C 
ATOM     27  O   UNL     1       1.111  14.269  21.555  0.00  0.00    +0.000 OA
ATOM     28  N   UNL     1       1.107  13.918  19.247  0.00  0.00    +0.000 N 
ATOM     29  H   UNL     1       0.937  13.179  18.573  0.00  0.00    +0.000 HD
BRANCH  28  30
ATOM     30  C   UNL     1       0.919  15.246  18.794  0.00  0.00    +0.000 A 
ATOM     31  C   UNL     1      -0.354  15.829  18.752  0.00  0.00    +0.000 A 
ATOM     32  C   UNL     1      -0.534  17.096  18.217  0.00  0.00    +0.000 A 
ATOM     33  F   UNL     1      -1.767  17.616  18.154  0.00  0.00    +0.000 F 
ATOM     34  C   UNL     1       0.540  17.831  17.746  0.00  0.00    +0.000 A 
ATOM     35  C   UNL     1       1.823  17.291  17.829  0.00  0.00    +0.000 A 
ATOM     36  C   UNL     1       2.031  15.998  18.348  0.00  0.00    +0.000 A 
ATOM     37  C   UNL     1       3.445  15.479  18.395  0.00  0.00    +0.000 C 
ENDBRANCH  28  30
ENDBRANCH  25  26
ENDBRANCH  24  25
ENDBRANCH   5  24
TORSDOF 11
ENDMDL
MODEL 8
REMARK VINA RESULT:      -7.4      4.208     10.497
REMARK  Name = 
REMARK  15 active torsions:
REMARK  status: ('A' for Active; 'I' for Inactive)
REMARK    1  A    between atoms: C_1  and  C_2
REMARK    2  A    between atoms: C_2  and  N_3
REMARK    3  A    between atoms: C_4  and  C_5
REMARK    4  A    between atoms: C_5  and  N_6
REMARK    5  A    between atoms: C_7  and  C_9
REMARK    6  A    between atoms: C_9  and  O_10
REMARK    7  A    between atoms: O_10  and  C_11
REMARK    8  A    between atoms: C_14  and  C_15
REMARK    9  A    between atoms: C_15  and  C_16
REMARK   10  A    between atoms: C_15  and  C_17
REMARK   11  A    between atoms: C_22  and  S_23
REMARK   12  A    between atoms: S_23  and  C_24
REMARK   13  A    between atoms: C_24  and  C_25
REMARK   14  A    between atoms: N_27  and  C_28
REMARK   15  A    between atoms: C_34  and  C_35
REMARK                            x       y       z     vdW  Elec       q    Type
REMARK                         _______ _______ _______ _____ _____    ______ ____
ROOT
ATOM      1  N   UNL     1       1.330   9.320  20.059  0.00  0.00    +0.000 N 
ATOM      2  C   UNL     1       1.863   8.424  19.143  0.00  0.00    +0.000 A 
ATOM      3  N   UNL     1       1.960   9.028  17.976  0.00  0.00    +0.000 NA
ATOM      4  N   UNL     1       1.511  10.321  18.111  0.00  0.00    +0.000 NA
ATOM      5  C   UNL     1       1.157  10.486  19.362  0.00  0.00    +0.000 A 
ENDROOT
BRANCH   1   7
ATOM      6  C   UNL     1      -0.368   8.589  21.716  0.00  0.00    +0.000 C 
ATOM      7  C   UNL     1       1.049   9.085  21.461  0.00  0.00    +0.000 C 
ENDBRANCH   1   7
BRANCH   2   8
ATOM      8  C   UNL     1       2.209   6.996  19.411  0.00  0.00    +0.000 C 
BRANCH   8   9
ATOM      9  N   UNL     1       3.230   6.400  18.547  0.00  0.00    +0.000 N 
ATOM     10  C   UNL     1       3.884   5.213  18.752  0.00  0.00    +0.000 C 
ATOM     11  O   UNL     1       3.722   4.492  19.740  0.00  0.00    +0.000 OA
ATOM     12  H   UNL     1       3.499   6.944  17.737  0.00  0.00    +0.000 HD
BRANCH  10  13
ATOM     13  C   UNL     1       4.776   4.748  17.597  0.00  0.00    +0.000 C 
BRANCH  13  14
ATOM     14  O   UNL     1       6.133   4.600  17.982  0.00  0.00    +0.000 OA
BRANCH  14  15
ATOM     15  C   UNL     1       6.845   5.766  18.095  0.00  0.00    +0.000 A 
ATOM     16  C   UNL     1       6.523   6.754  17.166  0.00  0.00    +0.000 A 
ATOM     17  C   UNL     1       7.184   7.989  17.172  0.00  0.00    +0.000 A 
ATOM     18  C   UNL     1       8.166   8.275  18.132  0.00  0.00    +0.000 A 
ATOM     19  C   UNL     1       8.477   7.281  19.070  0.00  0.00    +0.000 A 
ATOM     20  C   UNL     1       7.820   6.042  19.057  0.00  0.00    +0.000 A 
BRANCH  18  21
ATOM     21  C   UNL     1       8.825   9.644  18.162  0.00  0.00    +0.000 C 
ATOM     22  C   UNL     1       7.916  10.718  17.554  0.00  0.00    +0.000 C 
ATOM     23  C   UNL     1       9.263  10.050  19.568  0.00  0.00    +0.000 C 
ENDBRANCH  18  21
ENDBRANCH  14  15
ENDBRANCH  13  14
ENDBRANCH  10  13
ENDBRANCH   8   9
ENDBRANCH   2   8
BRANCH   5  24
ATOM     24  S   UNL     1       0.544  11.952  20.053  0.00  0.00    +0.000 S 
BRANCH  24  25
ATOM     25  C   UNL     1      -0.599  12.537  18.764  0.00  0.00    +0.000 C 
BRANCH  25  26
ATOM     26  C   UNL     1      -1.966  11.891  18.922  0.00  0.00    +0.000 C 
ATOM     27  O   UNL     1      -2.132  10.705  18.639  0.00  0.00    +0.000 OA
ATOM     28  N   UNL     1      -2.944  12.761  19.388  0.00  0.00    +0.000 N 
ATOM     29  H   UNL     1      -2.711  13.748  19.358  0.00  0.00    +0.000 HD
BRANCH  28  30
ATOM     30  C   UNL     1      -4.311  12.438  19.567  0.00  0.00    +0.000 A 
ATOM     31  C   UNL     1      -5.132  12.113  18.480  0.00  0.00    +0.000 A 
ATOM     32  C   UNL     1      -6.489  11.892  18.660  0.00  0.00    +0.000 A 
ATOM     33  F   UNL     1      -7.260  11.620  17.598  0.00  0.00    +0.000 F 
ATOM     34  C   UNL     1      -7.061  11.949  19.919  0.00  0.00    +0.000 A 
ATOM     35  C   UNL     1      -6.251  12.217  21.022  0.00  0.00    +0.000 A 
ATOM     36  C   UNL     1      -4.873  12.466  20.865  0.00  0.00    +0.000 A 
ATOM     37  C   UNL     1      -4.066  12.758  22.103  0.00  0.00    +0.000 C 
ENDBRANCH  28  30
ENDBRANCH  25  26
ENDBRANCH  24  25
ENDBRANCH   5  24
TORSDOF 11
ENDMDL
MODEL 9
REMARK VINA RESULT:      -7.4      4.051     10.181
REMARK  Name = 
REMARK  15 active torsions:
REMARK  status: ('A' for Active; 'I' for Inactive)
REMARK    1  A    between atoms: C_1  and  C_2
REMARK    2  A    between atoms: C_2  and  N_3
REMARK    3  A    between atoms: C_4  and  C_5
REMARK    4  A    between atoms: C_5  and  N_6
REMARK    5  A    between atoms: C_7  and  C_9
REMARK    6  A    between atoms: C_9  and  O_10
REMARK    7  A    between atoms: O_10  and  C_11
REMARK    8  A    between atoms: C_14  and  C_15
REMARK    9  A    between atoms: C_15  and  C_16
REMARK   10  A    between atoms: C_15  and  C_17
REMARK   11  A    between atoms: C_22  and  S_23
REMARK   12  A    between atoms: S_23  and  C_24
REMARK   13  A    between atoms: C_24  and  C_25
REMARK   14  A    between atoms: N_27  and  C_28
REMARK   15  A    between atoms: C_34  and  C_35
REMARK                            x       y       z     vdW  Elec       q    Type
REMARK                         _______ _______ _______ _____ _____    ______ ____
ROOT
ATOM      1  N   UNL     1       2.154   7.890  19.454  0.00  0.00    +0.000 N 
ATOM      2  C   UNL     1       3.108   7.257  18.669  0.00  0.00    +0.000 A 
ATOM      3  N   UNL     1       3.151   7.858  17.498  0.00  0.00    +0.000 NA
ATOM      4  N   UNL     1       2.247   8.894  17.501  0.00  0.00    +0.000 NA
ATOM      5  C   UNL     1       1.674   8.913  18.680  0.00  0.00    +0.000 A 
ENDROOT
BRANCH   1   7
ATOM      6  C   UNL     1       0.887   6.329  20.909  0.00  0.00    +0.000 C 
ATOM      7  C   UNL     1       1.773   7.564  20.813  0.00  0.00    +0.000 C 
ENDBRANCH   1   7
BRANCH   2   8
ATOM      8  C   UNL     1       3.906   6.056  19.057  0.00  0.00    +0.000 C 
BRANCH   8   9
ATOM      9  N   UNL     1       5.010   5.692  18.165  0.00  0.00    +0.000 N 
ATOM     10  C   UNL     1       6.293   5.383  18.536  0.00  0.00    +0.000 C 
ATOM     11  O   UNL     1       6.707   5.411  19.698  0.00  0.00    +0.000 OA
ATOM     12  H   UNL     1       4.804   5.707  17.175  0.00  0.00    +0.000 HD
BRANCH  10  13
ATOM     13  C   UNL     1       7.195   4.869  17.410  0.00  0.00    +0.000 C 
BRANCH  13  14
ATOM     14  O   UNL     1       7.184   5.717  16.273  0.00  0.00    +0.000 OA
BRANCH  14  15
ATOM     15  C   UNL     1       6.880   5.105  15.083  0.00  0.00    +0.000 A 
ATOM     16  C   UNL     1       5.691   4.377  15.075  0.00  0.00    +0.000 A 
ATOM     17  C   UNL     1       5.272   3.700  13.922  0.00  0.00    +0.000 A 
ATOM     18  C   UNL     1       6.022   3.762  12.738  0.00  0.00    +0.000 A 
ATOM     19  C   UNL     1       7.210   4.506  12.751  0.00  0.00    +0.000 A 
ATOM     20  C   UNL     1       7.633   5.176  13.909  0.00  0.00    +0.000 A 
BRANCH  18  21
ATOM     21  C   UNL     1       5.517   3.075  11.480  0.00  0.00    +0.000 C 
ATOM     22  C   UNL     1       5.954   1.606  11.429  0.00  0.00    +0.000 C 
ATOM     23  C   UNL     1       4.001   3.185  11.324  0.00  0.00    +0.000 C 
ENDBRANCH  18  21
ENDBRANCH  14  15
ENDBRANCH  13  14
ENDBRANCH  10  13
ENDBRANCH   8   9
ENDBRANCH   2   8
BRANCH   5  24
ATOM     24  S   UNL     1       0.472  10.047  19.200  0.00  0.00    +0.000 S 
BRANCH  24  25
ATOM     25  C   UNL     1       1.280  10.837  20.625  0.00  0.00    +0.000 C 
BRANCH  25  26
ATOM     26  C   UNL     1       0.356  11.857  21.272  0.00  0.00    +0.000 C 
ATOM     27  O   UNL     1       0.805  12.920  21.701  0.00  0.00    +0.000 OA
ATOM     28  N   UNL     1      -0.973  11.456  21.320  0.00  0.00    +0.000 N 
ATOM     29  H   UNL     1      -1.146  10.474  21.136  0.00  0.00    +0.000 HD
BRANCH  28  30
ATOM     30  C   UNL     1      -2.029  12.185  21.920  0.00  0.00    +0.000 A 
ATOM     31  C   UNL     1      -2.509  11.856  23.194  0.00  0.00    +0.000 A 
ATOM     32  C   UNL     1      -3.605  12.518  23.729  0.00  0.00    +0.000 A 
ATOM     33  F   UNL     1      -4.069  12.158  24.933  0.00  0.00    +0.000 F 
ATOM     34  C   UNL     1      -4.228  13.542  23.037  0.00  0.00    +0.000 A 
ATOM     35  C   UNL     1      -3.730  13.922  21.790  0.00  0.00    +0.000 A 
ATOM     36  C   UNL     1      -2.632  13.252  21.215  0.00  0.00    +0.000 A 
ATOM     37  C   UNL     1      -2.159  13.713  19.861  0.00  0.00    +0.000 C 
ENDBRANCH  28  30
ENDBRANCH  25  26
ENDBRANCH  24  25
ENDBRANCH   5  24
TORSDOF 11
ENDMDL
