MODEL 1
REMARK VINA RESULT:      -7.0      0.000      0.000
REMARK  Name = 
REMARK  6 active torsions:
REMARK  status: ('A' for Active; 'I' for Inactive)
REMARK    1  A    between atoms: C_1  and  C_2
REMARK    2  A    between atoms: C_3  and  O_4
REMARK    3  A    between atoms: C_6  and  S_7
REMARK    4  A    between atoms: C_9  and  C_10
REMARK    5  A    between atoms: C_10  and  O_11
REMARK    6  A    between atoms: O_11  and  C_12
REMARK                            x       y       z     vdW  Elec       q    Type
REMARK                         _______ _______ _______ _____ _____    ______ ____
ROOT
ATOM      1  C   UNL     1       6.390   5.500  19.443  0.00  0.00    +0.000 C 
ATOM      2  C   UNL     1       6.323   5.148  17.989  0.00  0.00    +0.000 A 
ATOM      3  C   UNL     1       7.328   4.491  17.296  0.00  0.00    +0.000 A 
ATOM      4  N   UNL     1       7.270   4.167  15.999  0.00  0.00    +0.000 NA
ATOM      5  C   UNL     1       6.161   4.523  15.351  0.00  0.00    +0.000 A 
ATOM      6  N   UNL     1       5.123   5.161  15.900  0.00  0.00    +0.000 NA
ATOM      7  C   UNL     1       5.211   5.479  17.213  0.00  0.00    +0.000 A 
ENDROOT
BRANCH   3   8
ATOM      8  O   UNL     1       8.495   4.081  17.868  0.00  0.00    +0.000 OA
ATOM      9  H   UNL     1       8.962   3.468  17.288  0.00  0.00    +0.000 HD
ENDBRANCH   3   8
BRANCH   5  10
ATOM     10  S   UNL     1       6.067   4.107  13.637  0.00  0.00    +0.000 S 
ATOM     11  H   UNL     1       5.651   2.859  13.884  0.00  0.00    +0.000 HD
ENDBRANCH   5  10
BRANCH   7  12
ATOM     12  C   UNL     1       3.999   6.203  17.774  0.00  0.00    +0.000 C 
BRANCH  12  13
ATOM     13  O   UNL     1       2.833   5.402  17.585  0.00  0.00    +0.000 OA
BRANCH  13  14
ATOM     14  C   UNL     1       2.334   4.784  18.699  0.00  0.00    +0.000 A 
ATOM     15  C   UNL     1       1.502   3.693  18.443  0.00  0.00    +0.000 A 
ATOM     16  C   UNL     1       0.947   2.957  19.493  0.00  0.00    +0.000 A 
ATOM     17  C   UNL     1       1.242   3.301  20.809  0.00  0.00    +0.000 A 
ATOM     18  C   UNL     1       2.085   4.378  21.073  0.00  0.00    +0.000 A 
ATOM     19  C   UNL     1       2.633   5.122  20.020  0.00  0.00    +0.000 A 
ENDBRANCH  13  14
ENDBRANCH  12  13
ENDBRANCH   7  12
TORSDOF 5
ENDMDL
MODEL 2
REMARK VINA RESULT:      -6.8      2.313      3.009
REMARK  Name = 
REMARK  6 active torsions:
REMARK  status: ('A' for Active; 'I' for Inactive)
REMARK    1  A    between atoms: C_1  and  C_2
REMARK    2  A    between atoms: C_3  and  O_4
REMARK    3  A    between atoms: C_6  and  S_7
REMARK    4  A    between atoms: C_9  and  C_10
REMARK    5  A    between atoms: C_10  and  O_11
REMARK    6  A    between atoms: O_11  and  C_12
REMARK                            x       y       z     vdW  Elec       q    Type
REMARK                         _______ _______ _______ _____ _____    ______ ____
ROOT
ATOM      1  C   UNL     1       5.161   4.005  14.172  0.00  0.00    +0.000 C 
ATOM      2  C   UNL     1       5.818   4.442  15.444  0.00  0.00    +0.000 A 
ATOM      3  C   UNL     1       7.047   5.082  15.510  0.00  0.00    +0.000 A 
ATOM      4  N   UNL     1       7.636   5.482  16.643  0.00  0.00    +0.000 NA
ATOM      5  C   UNL     1       6.976   5.225  17.772  0.00  0.00    +0.000 A 
ATOM      6  N   UNL     1       5.789   4.616  17.847  0.00  0.00    +0.000 NA
ATOM      7  C   UNL     1       5.219   4.219  16.685  0.00  0.00    +0.000 A 
ENDROOT
BRANCH   3   8
ATOM      8  O   UNL     1       7.795   5.393  14.415  0.00  0.00    +0.000 OA
ATOM      9  H   UNL     1       8.098   4.592  13.971  0.00  0.00    +0.000 HD
ENDBRANCH   3   8
BRANCH   5  10
ATOM     10  S   UNL     1       7.738   5.743  19.280  0.00  0.00    +0.000 S 
ATOM     11  H   UNL     1       7.239   6.983  19.196  0.00  0.00    +0.000 HD
ENDBRANCH   5  10
BRANCH   7  12
ATOM     12  C   UNL     1       3.873   3.533  16.839  0.00  0.00    +0.000 C 
BRANCH  12  13
ATOM     13  O   UNL     1       3.911   2.649  17.960  0.00  0.00    +0.000 OA
BRANCH  13  14
ATOM     14  C   UNL     1       2.977   2.865  18.935  0.00  0.00    +0.000 A 
ATOM     15  C   UNL     1       3.405   2.580  20.233  0.00  0.00    +0.000 A 
ATOM     16  C   UNL     1       2.555   2.781  21.323  0.00  0.00    +0.000 A 
ATOM     17  C   UNL     1       1.276   3.291  21.120  0.00  0.00    +0.000 A 
ATOM     18  C   UNL     1       0.848   3.593  19.829  0.00  0.00    +0.000 A 
ATOM     19  C   UNL     1       1.696   3.381  18.735  0.00  0.00    +0.000 A 
ENDBRANCH  13  14
ENDBRANCH  12  13
ENDBRANCH   7  12
TORSDOF 5
ENDMDL
MODEL 3
REMARK VINA RESULT:      -6.7      0.528      1.218
REMARK  Name = 
REMARK  6 active torsions:
REMARK  status: ('A' for Active; 'I' for Inactive)
REMARK    1  A    between atoms: C_1  and  C_2
REMARK    2  A    between atoms: C_3  and  O_4
REMARK    3  A    between atoms: C_6  and  S_7
REMARK    4  A    between atoms: C_9  and  C_10
REMARK    5  A    between atoms: C_10  and  O_11
REMARK    6  A    between atoms: O_11  and  C_12
REMARK                            x       y       z     vdW  Elec       q    Type
REMARK                         _______ _______ _______ _____ _____    ______ ____
ROOT
ATOM      1  C   UNL     1       6.001   4.994  19.328  0.00  0.00    +0.000 C 
ATOM      2  C   UNL     1       6.154   4.840  17.847  0.00  0.00    +0.000 A 
ATOM      3  C   UNL     1       7.304   4.382  17.222  0.00  0.00    +0.000 A 
ATOM      4  N   UNL     1       7.444   4.235  15.899  0.00  0.00    +0.000 NA
ATOM      5  C   UNL     1       6.391   4.570  15.154  0.00  0.00    +0.000 A 
ATOM      6  N   UNL     1       5.227   5.025  15.630  0.00  0.00    +0.000 NA
ATOM      7  C   UNL     1       5.116   5.168  16.972  0.00  0.00    +0.000 A 
ENDROOT
BRANCH   3   8
ATOM      8  O   UNL     1       8.429   4.010  17.894  0.00  0.00    +0.000 OA
ATOM      9  H   UNL     1       8.215   3.739  18.794  0.00  0.00    +0.000 HD
ENDBRANCH   3   8
BRANCH   5  10
ATOM     10  S   UNL     1       6.556   4.385  13.406  0.00  0.00    +0.000 S 
ATOM     11  H   UNL     1       5.470   3.608  13.307  0.00  0.00    +0.000 HD
ENDBRANCH   5  10
BRANCH   7  12
ATOM     12  C   UNL     1       3.771   5.690  17.446  0.00  0.00    +0.000 C 
BRANCH  12  13
ATOM     13  O   UNL     1       2.792   4.656  17.343  0.00  0.00    +0.000 OA
BRANCH  13  14
ATOM     14  C   UNL     1       2.316   4.152  18.523  0.00  0.00    +0.000 A 
ATOM     15  C   UNL     1       2.332   5.048  19.593  0.00  0.00    +0.000 A 
ATOM     16  C   UNL     1       1.849   4.667  20.848  0.00  0.00    +0.000 A 
ATOM     17  C   UNL     1       1.326   3.391  21.030  0.00  0.00    +0.000 A 
ATOM     18  C   UNL     1       1.292   2.497  19.962  0.00  0.00    +0.000 A 
ATOM     19  C   UNL     1       1.786   2.874  18.707  0.00  0.00    +0.000 A 
ENDBRANCH  13  14
ENDBRANCH  12  13
ENDBRANCH   7  12
TORSDOF 5
ENDMDL
MODEL 4
REMARK VINA RESULT:      -6.7      2.102      2.669
REMARK  Name = 
REMARK  6 active torsions:
REMARK  status: ('A' for Active; 'I' for Inactive)
REMARK    1  A    between atoms: C_1  and  C_2
REMARK    2  A    between atoms: C_3  and  O_4
REMARK    3  A    between atoms: C_6  and  S_7
REMARK    4  A    between atoms: C_9  and  C_10
REMARK    5  A    between atoms: C_10  and  O_11
REMARK    6  A    between atoms: O_11  and  C_12
REMARK                            x       y       z     vdW  Elec       q    Type
REMARK                         _______ _______ _______ _____ _____    ______ ____
ROOT
ATOM      1  C   UNL     1       5.256   3.979  14.196  0.00  0.00    +0.000 C 
ATOM      2  C   UNL     1       5.892   4.426  15.476  0.00  0.00    +0.000 A 
ATOM      3  C   UNL     1       7.106   5.090  15.556  0.00  0.00    +0.000 A 
ATOM      4  N   UNL     1       7.676   5.499  16.696  0.00  0.00    +0.000 NA
ATOM      5  C   UNL     1       7.010   5.226  17.818  0.00  0.00    +0.000 A 
ATOM      6  N   UNL     1       5.834   4.594  17.879  0.00  0.00    +0.000 NA
ATOM      7  C   UNL     1       5.284   4.188  16.710  0.00  0.00    +0.000 A 
ENDROOT
BRANCH   3   8
ATOM      8  O   UNL     1       7.859   5.418  14.469  0.00  0.00    +0.000 OA
ATOM      9  H   UNL     1       8.021   4.642  13.919  0.00  0.00    +0.000 HD
ENDBRANCH   3   8
BRANCH   5  10
ATOM     10  S   UNL     1       7.746   5.756  19.334  0.00  0.00    +0.000 S 
ATOM     11  H   UNL     1       8.905   6.082  18.747  0.00  0.00    +0.000 HD
ENDBRANCH   5  10
BRANCH   7  12
ATOM     12  C   UNL     1       3.951   3.475  16.850  0.00  0.00    +0.000 C 
BRANCH  12  13
ATOM     13  O   UNL     1       2.933   4.421  17.177  0.00  0.00    +0.000 OA
BRANCH  13  14
ATOM     14  C   UNL     1       2.319   4.257  18.388  0.00  0.00    +0.000 A 
ATOM     15  C   UNL     1       1.625   3.055  18.537  0.00  0.00    +0.000 A 
ATOM     16  C   UNL     1       0.974   2.752  19.736  0.00  0.00    +0.000 A 
ATOM     17  C   UNL     1       1.034   3.645  20.801  0.00  0.00    +0.000 A 
ATOM     18  C   UNL     1       1.739   4.840  20.666  0.00  0.00    +0.000 A 
ATOM     19  C   UNL     1       2.382   5.148  19.461  0.00  0.00    +0.000 A 
ENDBRANCH  13  14
ENDBRANCH  12  13
ENDBRANCH   7  12
TORSDOF 5
ENDMDL
MODEL 5
REMARK VINA RESULT:      -6.7      2.096      2.904
REMARK  Name = 
REMARK  6 active torsions:
REMARK  status: ('A' for Active; 'I' for Inactive)
REMARK    1  A    between atoms: C_1  and  C_2
REMARK    2  A    between atoms: C_3  and  O_4
REMARK    3  A    between atoms: C_6  and  S_7
REMARK    4  A    between atoms: C_9  and  C_10
REMARK    5  A    between atoms: C_10  and  O_11
REMARK    6  A    between atoms: O_11  and  C_12
REMARK                            x       y       z     vdW  Elec       q    Type
REMARK                         _______ _______ _______ _____ _____    ______ ____
ROOT
ATOM      1  C   UNL     1       5.245   4.062  14.100  0.00  0.00    +0.000 C 
ATOM      2  C   UNL     1       5.888   4.487  15.383  0.00  0.00    +0.000 A 
ATOM      3  C   UNL     1       7.106   5.145  15.468  0.00  0.00    +0.000 A 
ATOM      4  N   UNL     1       7.682   5.534  16.611  0.00  0.00    +0.000 NA
ATOM      5  C   UNL     1       7.020   5.247  17.732  0.00  0.00    +0.000 A 
ATOM      6  N   UNL     1       5.842   4.618  17.788  0.00  0.00    +0.000 NA
ATOM      7  C   UNL     1       5.285   4.232  16.616  0.00  0.00    +0.000 A 
ENDROOT
BRANCH   3   8
ATOM      8  O   UNL     1       7.855   5.487  14.382  0.00  0.00    +0.000 OA
ATOM      9  H   UNL     1       7.418   6.176  13.870  0.00  0.00    +0.000 HD
ENDBRANCH   3   8
BRANCH   5  10
ATOM     10  S   UNL     1       7.765   5.750  19.252  0.00  0.00    +0.000 S 
ATOM     11  H   UNL     1       8.081   4.497  19.602  0.00  0.00    +0.000 HD
ENDBRANCH   5  10
BRANCH   7  12
ATOM     12  C   UNL     1       3.950   3.522  16.751  0.00  0.00    +0.000 C 
BRANCH  12  13
ATOM     13  O   UNL     1       2.959   4.447  17.199  0.00  0.00    +0.000 OA
BRANCH  13  14
ATOM     14  C   UNL     1       2.322   4.134  18.369  0.00  0.00    +0.000 A 
ATOM     15  C   UNL     1       2.511   5.051  19.405  0.00  0.00    +0.000 A 
ATOM     16  C   UNL     1       1.894   4.862  20.644  0.00  0.00    +0.000 A 
ATOM     17  C   UNL     1       1.066   3.762  20.845  0.00  0.00    +0.000 A 
ATOM     18  C   UNL     1       0.859   2.852  19.811  0.00  0.00    +0.000 A 
ATOM     19  C   UNL     1       1.486   3.035  18.571  0.00  0.00    +0.000 A 
ENDBRANCH  13  14
ENDBRANCH  12  13
ENDBRANCH   7  12
TORSDOF 5
ENDMDL
MODEL 6
REMARK VINA RESULT:      -6.6      2.319      2.821
REMARK  Name = 
REMARK  6 active torsions:
REMARK  status: ('A' for Active; 'I' for Inactive)
REMARK    1  A    between atoms: C_1  and  C_2
REMARK    2  A    between atoms: C_3  and  O_4
REMARK    3  A    between atoms: C_6  and  S_7
REMARK    4  A    between atoms: C_9  and  C_10
REMARK    5  A    between atoms: C_10  and  O_11
REMARK    6  A    between atoms: O_11  and  C_12
REMARK                            x       y       z     vdW  Elec       q    Type
REMARK                         _______ _______ _______ _____ _____    ______ ____
ROOT
ATOM      1  C   UNL     1       5.012   4.373  14.262  0.00  0.00    +0.000 C 
ATOM      2  C   UNL     1       5.730   4.651  15.546  0.00  0.00    +0.000 A 
ATOM      3  C   UNL     1       7.025   5.140  15.629  0.00  0.00    +0.000 A 
ATOM      4  N   UNL     1       7.669   5.398  16.773  0.00  0.00    +0.000 NA
ATOM      5  C   UNL     1       6.996   5.150  17.897  0.00  0.00    +0.000 A 
ATOM      6  N   UNL     1       5.747   4.679  17.955  0.00  0.00    +0.000 NA
ATOM      7  C   UNL     1       5.122   4.422  16.782  0.00  0.00    +0.000 A 
ENDROOT
BRANCH   3   8
ATOM      8  O   UNL     1       7.792   5.429  14.541  0.00  0.00    +0.000 OA
ATOM      9  H   UNL     1       8.390   4.700  14.342  0.00  0.00    +0.000 HD
ENDBRANCH   3   8
BRANCH   5  10
ATOM     10  S   UNL     1       7.829   5.482  19.418  0.00  0.00    +0.000 S 
ATOM     11  H   UNL     1       6.714   5.906  20.026  0.00  0.00    +0.000 HD
ENDBRANCH   5  10
BRANCH   7  12
ATOM     12  C   UNL     1       3.707   3.888  16.920  0.00  0.00    +0.000 C 
BRANCH  12  13
ATOM     13  O   UNL     1       3.706   2.751  17.783  0.00  0.00    +0.000 OA
BRANCH  13  14
ATOM     14  C   UNL     1       2.937   2.845  18.910  0.00  0.00    +0.000 A 
ATOM     15  C   UNL     1       1.564   2.938  18.680  0.00  0.00    +0.000 A 
ATOM     16  C   UNL     1       0.666   3.014  19.747  0.00  0.00    +0.000 A 
ATOM     17  C   UNL     1       1.140   2.977  21.055  0.00  0.00    +0.000 A 
ATOM     18  C   UNL     1       2.509   2.869  21.293  0.00  0.00    +0.000 A 
ATOM     19  C   UNL     1       3.410   2.803  20.223  0.00  0.00    +0.000 A 
ENDBRANCH  13  14
ENDBRANCH  12  13
ENDBRANCH   7  12
TORSDOF 5
ENDMDL
MODEL 7
REMARK VINA RESULT:      -6.5      1.590      1.796
REMARK  Name = 
REMARK  6 active torsions:
REMARK  status: ('A' for Active; 'I' for Inactive)
REMARK    1  A    between atoms: C_1  and  C_2
REMARK    2  A    between atoms: C_3  and  O_4
REMARK    3  A    between atoms: C_6  and  S_7
REMARK    4  A    between atoms: C_9  and  C_10
REMARK    5  A    between atoms: C_10  and  O_11
REMARK    6  A    between atoms: O_11  and  C_12
REMARK                            x       y       z     vdW  Elec       q    Type
REMARK                         _______ _______ _______ _____ _____    ______ ____
ROOT
ATOM      1  C   UNL     1       6.003   5.439  18.720  0.00  0.00    +0.000 C 
ATOM      2  C   UNL     1       6.174   5.088  17.274  0.00  0.00    +0.000 A 
ATOM      3  C   UNL     1       6.990   5.779  16.392  0.00  0.00    +0.000 A 
ATOM      4  N   UNL     1       7.153   5.466  15.101  0.00  0.00    +0.000 NA
ATOM      5  C   UNL     1       6.463   4.416  14.659  0.00  0.00    +0.000 A 
ATOM      6  N   UNL     1       5.643   3.667  15.403  0.00  0.00    +0.000 NA
ATOM      7  C   UNL     1       5.494   4.010  16.704  0.00  0.00    +0.000 A 
ENDROOT
BRANCH   3   8
ATOM      8  O   UNL     1       7.738   6.861  16.748  0.00  0.00    +0.000 OA
ATOM      9  H   UNL     1       8.078   7.313  15.967  0.00  0.00    +0.000 HD
ENDBRANCH   3   8
BRANCH   5  10
ATOM     10  S   UNL     1       6.662   3.986  12.957  0.00  0.00    +0.000 S 
ATOM     11  H   UNL     1       7.976   3.764  13.087  0.00  0.00    +0.000 HD
ENDBRANCH   5  10
BRANCH   7  12
ATOM     12  C   UNL     1       4.549   3.120  17.491  0.00  0.00    +0.000 C 
BRANCH  12  13
ATOM     13  O   UNL     1       3.277   3.759  17.612  0.00  0.00    +0.000 OA
BRANCH  13  14
ATOM     14  C   UNL     1       2.628   3.598  18.805  0.00  0.00    +0.000 A 
ATOM     15  C   UNL     1       3.355   2.918  19.783  0.00  0.00    +0.000 A 
ATOM     16  C   UNL     1       2.817   2.709  21.055  0.00  0.00    +0.000 A 
ATOM     17  C   UNL     1       1.551   3.202  21.360  0.00  0.00    +0.000 A 
ATOM     18  C   UNL     1       0.826   3.896  20.394  0.00  0.00    +0.000 A 
ATOM     19  C   UNL     1       1.361   4.096  19.116  0.00  0.00    +0.000 A 
ENDBRANCH  13  14
ENDBRANCH  12  13
ENDBRANCH   7  12
TORSDOF 5
ENDMDL
MODEL 8
REMARK VINA RESULT:      -6.5      0.933      1.033
REMARK  Name = 
REMARK  6 active torsions:
REMARK  status: ('A' for Active; 'I' for Inactive)
REMARK    1  A    between atoms: C_1  and  C_2
REMARK    2  A    between atoms: C_3  and  O_4
REMARK    3  A    between atoms: C_6  and  S_7
REMARK    4  A    between atoms: C_9  and  C_10
REMARK    5  A    between atoms: C_10  and  O_11
REMARK    6  A    between atoms: O_11  and  C_12
REMARK                            x       y       z     vdW  Elec       q    Type
REMARK                         _______ _______ _______ _____ _____    ______ ____
ROOT
ATOM      1  C   UNL     1       6.193   5.279  19.362  0.00  0.00    +0.000 C 
ATOM      2  C   UNL     1       6.228   4.940  17.904  0.00  0.00    +0.000 A 
ATOM      3  C   UNL     1       7.346   4.462  17.237  0.00  0.00    +0.000 A 
ATOM      4  N   UNL     1       7.380   4.151  15.936  0.00  0.00    +0.000 NA
ATOM      5  C   UNL     1       6.248   4.331  15.257  0.00  0.00    +0.000 A 
ATOM      6  N   UNL     1       5.104   4.785  15.778  0.00  0.00    +0.000 NA
ATOM      7  C   UNL     1       5.100   5.097  17.096  0.00  0.00    +0.000 A 
ENDROOT
BRANCH   3   8
ATOM      8  O   UNL     1       8.546   4.240  17.842  0.00  0.00    +0.000 OA
ATOM      9  H   UNL     1       8.423   3.813  18.698  0.00  0.00    +0.000 HD
ENDBRANCH   3   8
BRANCH   5  10
ATOM     10  S   UNL     1       6.273   3.928  13.538  0.00  0.00    +0.000 S 
ATOM     11  H   UNL     1       4.972   4.200  13.376  0.00  0.00    +0.000 HD
ENDBRANCH   5  10
BRANCH   7  12
ATOM     12  C   UNL     1       3.771   5.607  17.624  0.00  0.00    +0.000 C 
BRANCH  12  13
ATOM     13  O   UNL     1       2.816   4.545  17.628  0.00  0.00    +0.000 OA
BRANCH  13  14
ATOM     14  C   UNL     1       2.491   4.025  18.851  0.00  0.00    +0.000 A 
ATOM     15  C   UNL     1       3.386   3.073  19.341  0.00  0.00    +0.000 A 
ATOM     16  C   UNL     1       3.184   2.483  20.591  0.00  0.00    +0.000 A 
ATOM     17  C   UNL     1       2.093   2.861  21.367  0.00  0.00    +0.000 A 
ATOM     18  C   UNL     1       1.204   3.823  20.891  0.00  0.00    +0.000 A 
ATOM     19  C   UNL     1       1.401   4.407  19.633  0.00  0.00    +0.000 A 
ENDBRANCH  13  14
ENDBRANCH  12  13
ENDBRANCH   7  12
TORSDOF 5
ENDMDL
MODEL 9
REMARK VINA RESULT:      -6.5      1.655      1.749
REMARK  Name = 
REMARK  6 active torsions:
REMARK  status: ('A' for Active; 'I' for Inactive)
REMARK    1  A    between atoms: C_1  and  C_2
REMARK    2  A    between atoms: C_3  and  O_4
REMARK    3  A    between atoms: C_6  and  S_7
REMARK    4  A    between atoms: C_9  and  C_10
REMARK    5  A    between atoms: C_10  and  O_11
REMARK    6  A    between atoms: O_11  and  C_12
REMARK                            x       y       z     vdW  Elec       q    Type
REMARK                         _______ _______ _______ _____ _____    ______ ____
ROOT
ATOM      1  C   UNL     1       5.375   5.917  18.400  0.00  0.00    +0.000 C 
ATOM      2  C   UNL     1       5.708   5.412  17.031  0.00  0.00    +0.000 A 
ATOM      3  C   UNL     1       6.817   5.806  16.299  0.00  0.00    +0.000 A 
ATOM      4  N   UNL     1       7.124   5.352  15.078  0.00  0.00    +0.000 NA
ATOM      5  C   UNL     1       6.280   4.466  14.550  0.00  0.00    +0.000 A 
ATOM      6  N   UNL     1       5.177   4.006  15.147  0.00  0.00    +0.000 NA
ATOM      7  C   UNL     1       4.889   4.486  16.380  0.00  0.00    +0.000 A 
ENDROOT
BRANCH   3   8
ATOM      8  O   UNL     1       7.740   6.700  16.752  0.00  0.00    +0.000 OA
ATOM      9  H   UNL     1       7.405   7.602  16.681  0.00  0.00    +0.000 HD
ENDBRANCH   3   8
BRANCH   5  10
ATOM     10  S   UNL     1       6.665   3.856  12.937  0.00  0.00    +0.000 S 
ATOM     11  H   UNL     1       6.175   4.941  12.325  0.00  0.00    +0.000 HD
ENDBRANCH   5  10
BRANCH   7  12
ATOM     12  C   UNL     1       3.623   3.924  17.002  0.00  0.00    +0.000 C 
BRANCH  12  13
ATOM     13  O   UNL     1       3.966   2.994  18.030  0.00  0.00    +0.000 OA
BRANCH  13  14
ATOM     14  C   UNL     1       3.160   2.987  19.135  0.00  0.00    +0.000 A 
ATOM     15  C   UNL     1       1.828   3.326  18.893  0.00  0.00    +0.000 A 
ATOM     16  C   UNL     1       0.894   3.332  19.932  0.00  0.00    +0.000 A 
ATOM     17  C   UNL     1       1.287   2.975  21.218  0.00  0.00    +0.000 A 
ATOM     18  C   UNL     1       2.611   2.619  21.465  0.00  0.00    +0.000 A 
ATOM     19  C   UNL     1       3.550   2.624  20.425  0.00  0.00    +0.000 A 
ENDBRANCH  13  14
ENDBRANCH  12  13
ENDBRANCH   7  12
TORSDOF 5
ENDMDL
