MODEL 1
REMARK VINA RESULT:      -7.3      0.000      0.000
REMARK  Name = 
REMARK  14 active torsions:
REMARK  status: ('A' for Active; 'I' for Inactive)
REMARK    1  A    between atoms: C_1  and  C_2
REMARK    2  A    between atoms: C_2  and  C_3
REMARK    3  A    between atoms: C_3  and  C_4
REMARK    4  A    between atoms: C_4  and  C_5
REMARK    5  A    between atoms: C_5  and  C_6
REMARK    6  A    between atoms: C_6  and  O_7
REMARK    7  A    between atoms: O_7  and  C_8
REMARK    8  A    between atoms: C_9  and  C_10
REMARK    9  A    between atoms: C_12  and  O_13
REMARK   10  A    between atoms: O_13  and  C_14
REMARK   11  A    between atoms: C_15  and  O_16
REMARK   12  A    between atoms: O_16  and  C_17
REMARK   13  A    between atoms: C_18  and  O_19
REMARK   14  A    between atoms: O_19  and  C_20
REMARK                            x       y       z     vdW  Elec       q    Type
REMARK                         _______ _______ _______ _____ _____    ______ ____
ROOT
ATOM      1  C   UNL     1       6.674   5.435  16.105  0.00  0.00    +0.000 A 
ATOM      2  C   UNL     1       5.452   4.858  16.187  0.00  0.00    +0.000 A 
ATOM      3  O   UNL     1       4.855   4.117  15.175  0.00  0.00    +0.000 OA
ATOM      4  C   UNL     1       5.497   3.993  13.975  0.00  0.00    +0.000 A 
ATOM      5  C   UNL     1       4.863   3.248  12.981  0.00  0.00    +0.000 A 
ATOM      6  C   UNL     1       5.459   3.116  11.723  0.00  0.00    +0.000 A 
ATOM      7  C   UNL     1       6.685   3.729  11.460  0.00  0.00    +0.000 A 
ATOM      8  C   UNL     1       7.321   4.462  12.459  0.00  0.00    +0.000 A 
ATOM      9  C   UNL     1       6.725   4.581  13.720  0.00  0.00    +0.000 A 
ATOM     10  C   UNL     1       7.392   5.327  14.790  0.00  0.00    +0.000 A 
ATOM     11  O   UNL     1       8.485   5.831  14.559  0.00  0.00    +0.000 OA
ENDROOT
BRANCH   2  12
ATOM     12  C   UNL     1       4.578   4.959  17.385  0.00  0.00    +0.000 A 
ATOM     13  C   UNL     1       4.505   3.915  18.316  0.00  0.00    +0.000 A 
ATOM     14  C   UNL     1       3.716   4.010  19.466  0.00  0.00    +0.000 A 
ATOM     15  C   UNL     1       2.984   5.189  19.719  0.00  0.00    +0.000 A 
ATOM     16  C   UNL     1       3.061   6.264  18.809  0.00  0.00    +0.000 A 
ATOM     17  C   UNL     1       3.865   6.135  17.662  0.00  0.00    +0.000 A 
BRANCH  14  18
ATOM     18  O   UNL     1       3.606   2.987  20.381  0.00  0.00    +0.000 OA
ATOM     19  C   UNL     1       4.641   2.009  20.362  0.00  0.00    +0.000 C 
ENDBRANCH  14  18
BRANCH  15  20
ATOM     20  O   UNL     1       2.189   5.153  20.843  0.00  0.00    +0.000 OA
ATOM     21  C   UNL     1       0.926   4.512  20.723  0.00  0.00    +0.000 C 
ENDBRANCH  15  20
BRANCH  16  22
ATOM     22  O   UNL     1       2.318   7.385  19.073  0.00  0.00    +0.000 OA
ATOM     23  C   UNL     1       2.084   8.305  18.015  0.00  0.00    +0.000 C 
ENDBRANCH  16  22
ENDBRANCH   2  12
BRANCH   1  24
ATOM     24  O   UNL     1       7.217   6.092  17.203  0.00  0.00    +0.000 OA
BRANCH  24  25
ATOM     25  C   UNL     1       7.194   7.517  17.220  0.00  0.00    +0.000 C 
BRANCH  25  26
ATOM     26  C   UNL     1       8.274   8.012  18.178  0.00  0.00    +0.000 C 
BRANCH  26  27
ATOM     27  C   UNL     1       8.392   9.533  18.112  0.00  0.00    +0.000 C 
BRANCH  27  28
ATOM     28  C   UNL     1       9.135  10.090  19.323  0.00  0.00    +0.000 C 
BRANCH  28  30
ATOM     29  C   UNL     1      10.924  11.686  20.086  0.00  0.00    +0.000 C 
ATOM     30  C   UNL     1      10.308  10.971  18.895  0.00  0.00    +0.000 C 
ENDBRANCH  28  30
ENDBRANCH  27  28
ENDBRANCH  26  27
ENDBRANCH  25  26
ENDBRANCH  24  25
ENDBRANCH   1  24
TORSDOF 10
ENDMDL
MODEL 2
REMARK VINA RESULT:      -7.2      0.581      2.398
REMARK  Name = 
REMARK  14 active torsions:
REMARK  status: ('A' for Active; 'I' for Inactive)
REMARK    1  A    between atoms: C_1  and  C_2
REMARK    2  A    between atoms: C_2  and  C_3
REMARK    3  A    between atoms: C_3  and  C_4
REMARK    4  A    between atoms: C_4  and  C_5
REMARK    5  A    between atoms: C_5  and  C_6
REMARK    6  A    between atoms: C_6  and  O_7
REMARK    7  A    between atoms: O_7  and  C_8
REMARK    8  A    between atoms: C_9  and  C_10
REMARK    9  A    between atoms: C_12  and  O_13
REMARK   10  A    between atoms: O_13  and  C_14
REMARK   11  A    between atoms: C_15  and  O_16
REMARK   12  A    between atoms: O_16  and  C_17
REMARK   13  A    between atoms: C_18  and  O_19
REMARK   14  A    between atoms: O_19  and  C_20
REMARK                            x       y       z     vdW  Elec       q    Type
REMARK                         _______ _______ _______ _____ _____    ______ ____
ROOT
ATOM      1  C   UNL     1       6.825   5.449  15.908  0.00  0.00    +0.000 A 
ATOM      2  C   UNL     1       5.604   4.875  16.020  0.00  0.00    +0.000 A 
ATOM      3  O   UNL     1       4.984   4.131  15.023  0.00  0.00    +0.000 OA
ATOM      4  C   UNL     1       5.598   4.001  13.810  0.00  0.00    +0.000 A 
ATOM      5  C   UNL     1       4.942   3.252  12.833  0.00  0.00    +0.000 A 
ATOM      6  C   UNL     1       5.510   3.114  11.563  0.00  0.00    +0.000 A 
ATOM      7  C   UNL     1       6.732   3.724  11.272  0.00  0.00    +0.000 A 
ATOM      8  C   UNL     1       7.391   4.460  12.253  0.00  0.00    +0.000 A 
ATOM      9  C   UNL     1       6.822   4.586  13.527  0.00  0.00    +0.000 A 
ATOM     10  C   UNL     1       7.513   5.335  14.579  0.00  0.00    +0.000 A 
ATOM     11  O   UNL     1       8.602   5.836  14.321  0.00  0.00    +0.000 OA
ENDROOT
BRANCH   2  12
ATOM     12  C   UNL     1       4.756   4.982  17.236  0.00  0.00    +0.000 A 
ATOM     13  C   UNL     1       4.072   6.167  17.536  0.00  0.00    +0.000 A 
ATOM     14  C   UNL     1       3.241   6.273  18.656  0.00  0.00    +0.000 A 
ATOM     15  C   UNL     1       3.063   5.159  19.503  0.00  0.00    +0.000 A 
ATOM     16  C   UNL     1       3.721   3.948  19.208  0.00  0.00    +0.000 A 
ATOM     17  C   UNL     1       4.549   3.876  18.072  0.00  0.00    +0.000 A 
BRANCH  14  18
ATOM     18  O   UNL     1       2.581   7.434  18.987  0.00  0.00    +0.000 OA
ATOM     19  C   UNL     1       2.302   8.330  17.916  0.00  0.00    +0.000 C 
ENDBRANCH  14  18
BRANCH  15  20
ATOM     20  O   UNL     1       2.279   5.389  20.612  0.00  0.00    +0.000 OA
ATOM     21  C   UNL     1       0.959   4.860  20.594  0.00  0.00    +0.000 C 
ENDBRANCH  15  20
BRANCH  16  22
ATOM     22  O   UNL     1       3.545   2.893  20.066  0.00  0.00    +0.000 OA
ATOM     23  C   UNL     1       2.727   1.810  19.645  0.00  0.00    +0.000 C 
ENDBRANCH  16  22
ENDBRANCH   2  12
BRANCH   1  24
ATOM     24  O   UNL     1       7.392   6.110  16.992  0.00  0.00    +0.000 OA
BRANCH  24  25
ATOM     25  C   UNL     1       7.215   7.520  17.094  0.00  0.00    +0.000 C 
BRANCH  25  26
ATOM     26  C   UNL     1       8.208   8.064  18.117  0.00  0.00    +0.000 C 
BRANCH  26  27
ATOM     27  C   UNL     1       8.306   9.584  18.013  0.00  0.00    +0.000 C 
BRANCH  27  28
ATOM     28  C   UNL     1       9.248  10.158  19.067  0.00  0.00    +0.000 C 
BRANCH  28  30
ATOM     29  C   UNL     1      10.914  11.625  17.882  0.00  0.00    +0.000 C 
ATOM     30  C   UNL     1       9.651  11.592  18.726  0.00  0.00    +0.000 C 
ENDBRANCH  28  30
ENDBRANCH  27  28
ENDBRANCH  26  27
ENDBRANCH  25  26
ENDBRANCH  24  25
ENDBRANCH   1  24
TORSDOF 10
ENDMDL
MODEL 3
REMARK VINA RESULT:      -7.1      3.627      6.841
REMARK  Name = 
REMARK  14 active torsions:
REMARK  status: ('A' for Active; 'I' for Inactive)
REMARK    1  A    between atoms: C_1  and  C_2
REMARK    2  A    between atoms: C_2  and  C_3
REMARK    3  A    between atoms: C_3  and  C_4
REMARK    4  A    between atoms: C_4  and  C_5
REMARK    5  A    between atoms: C_5  and  C_6
REMARK    6  A    between atoms: C_6  and  O_7
REMARK    7  A    between atoms: O_7  and  C_8
REMARK    8  A    between atoms: C_9  and  C_10
REMARK    9  A    between atoms: C_12  and  O_13
REMARK   10  A    between atoms: O_13  and  C_14
REMARK   11  A    between atoms: C_15  and  O_16
REMARK   12  A    between atoms: O_16  and  C_17
REMARK   13  A    between atoms: C_18  and  O_19
REMARK   14  A    between atoms: O_19  and  C_20
REMARK                            x       y       z     vdW  Elec       q    Type
REMARK                         _______ _______ _______ _____ _____    ______ ____
ROOT
ATOM      1  C   UNL     1       3.167   5.949  19.579  0.00  0.00    +0.000 A 
ATOM      2  C   UNL     1       2.908   7.016  18.787  0.00  0.00    +0.000 A 
ATOM      3  O   UNL     1       3.504   7.252  17.554  0.00  0.00    +0.000 OA
ATOM      4  C   UNL     1       4.470   6.395  17.108  0.00  0.00    +0.000 A 
ATOM      5  C   UNL     1       5.050   6.668  15.869  0.00  0.00    +0.000 A 
ATOM      6  C   UNL     1       6.067   5.843  15.379  0.00  0.00    +0.000 A 
ATOM      7  C   UNL     1       6.503   4.748  16.127  0.00  0.00    +0.000 A 
ATOM      8  C   UNL     1       5.912   4.470  17.358  0.00  0.00    +0.000 A 
ATOM      9  C   UNL     1       4.887   5.294  17.838  0.00  0.00    +0.000 A 
ATOM     10  C   UNL     1       4.238   5.002  19.119  0.00  0.00    +0.000 A 
ATOM     11  O   UNL     1       4.604   4.017  19.750  0.00  0.00    +0.000 OA
ENDROOT
BRANCH   2  12
ATOM     12  C   UNL     1       1.948   8.092  19.149  0.00  0.00    +0.000 A 
ATOM     13  C   UNL     1       1.831   8.539  20.471  0.00  0.00    +0.000 A 
ATOM     14  C   UNL     1       0.960   9.575  20.822  0.00  0.00    +0.000 A 
ATOM     15  C   UNL     1       0.187  10.208  19.827  0.00  0.00    +0.000 A 
ATOM     16  C   UNL     1       0.305   9.791  18.485  0.00  0.00    +0.000 A 
ATOM     17  C   UNL     1       1.192   8.747  18.167  0.00  0.00    +0.000 A 
BRANCH  14  18
ATOM     18  O   UNL     1       0.808  10.014  22.118  0.00  0.00    +0.000 OA
ATOM     19  C   UNL     1      -0.069   9.254  22.944  0.00  0.00    +0.000 C 
ENDBRANCH  14  18
BRANCH  15  20
ATOM     20  O   UNL     1      -0.686  11.169  20.288  0.00  0.00    +0.000 OA
ATOM     21  C   UNL     1      -0.288  12.526  20.147  0.00  0.00    +0.000 C 
ENDBRANCH  15  20
BRANCH  16  22
ATOM     22  O   UNL     1      -0.479  10.411  17.547  0.00  0.00    +0.000 OA
ATOM     23  C   UNL     1      -1.766   9.871  17.278  0.00  0.00    +0.000 C 
ENDBRANCH  16  22
ENDBRANCH   2  12
BRANCH   1  24
ATOM     24  O   UNL     1       2.460   5.763  20.761  0.00  0.00    +0.000 OA
BRANCH  24  25
ATOM     25  C   UNL     1       1.316   4.914  20.741  0.00  0.00    +0.000 C 
BRANCH  25  26
ATOM     26  C   UNL     1       1.677   3.590  21.407  0.00  0.00    +0.000 C 
BRANCH  26  27
ATOM     27  C   UNL     1       1.714   2.464  20.376  0.00  0.00    +0.000 C 
BRANCH  27  28
ATOM     28  C   UNL     1       0.786   2.751  19.200  0.00  0.00    +0.000 C 
BRANCH  28  30
ATOM     29  C   UNL     1       2.677   2.041  17.701  0.00  0.00    +0.000 C 
ATOM     30  C   UNL     1       1.580   3.066  17.933  0.00  0.00    +0.000 C 
ENDBRANCH  28  30
ENDBRANCH  27  28
ENDBRANCH  26  27
ENDBRANCH  25  26
ENDBRANCH  24  25
ENDBRANCH   1  24
TORSDOF 10
ENDMDL
MODEL 4
REMARK VINA RESULT:      -7.0      3.666      7.076
REMARK  Name = 
REMARK  14 active torsions:
REMARK  status: ('A' for Active; 'I' for Inactive)
REMARK    1  A    between atoms: C_1  and  C_2
REMARK    2  A    between atoms: C_2  and  C_3
REMARK    3  A    between atoms: C_3  and  C_4
REMARK    4  A    between atoms: C_4  and  C_5
REMARK    5  A    between atoms: C_5  and  C_6
REMARK    6  A    between atoms: C_6  and  O_7
REMARK    7  A    between atoms: O_7  and  C_8
REMARK    8  A    between atoms: C_9  and  C_10
REMARK    9  A    between atoms: C_12  and  O_13
REMARK   10  A    between atoms: O_13  and  C_14
REMARK   11  A    between atoms: C_15  and  O_16
REMARK   12  A    between atoms: O_16  and  C_17
REMARK   13  A    between atoms: C_18  and  O_19
REMARK   14  A    between atoms: O_19  and  C_20
REMARK                            x       y       z     vdW  Elec       q    Type
REMARK                         _______ _______ _______ _____ _____    ______ ____
ROOT
ATOM      1  C   UNL     1       3.119   6.069  19.641  0.00  0.00    +0.000 A 
ATOM      2  C   UNL     1       2.857   7.127  18.838  0.00  0.00    +0.000 A 
ATOM      3  O   UNL     1       3.419   7.328  17.583  0.00  0.00    +0.000 OA
ATOM      4  C   UNL     1       4.351   6.443  17.123  0.00  0.00    +0.000 A 
ATOM      5  C   UNL     1       4.897   6.681  15.861  0.00  0.00    +0.000 A 
ATOM      6  C   UNL     1       5.880   5.825  15.355  0.00  0.00    +0.000 A 
ATOM      7  C   UNL     1       6.316   4.734  16.109  0.00  0.00    +0.000 A 
ATOM      8  C   UNL     1       5.759   4.491  17.362  0.00  0.00    +0.000 A 
ATOM      9  C   UNL     1       4.768   5.346  17.859  0.00  0.00    +0.000 A 
ATOM     10  C   UNL     1       4.154   5.091  19.165  0.00  0.00    +0.000 A 
ATOM     11  O   UNL     1       4.520   4.109  19.802  0.00  0.00    +0.000 OA
ENDROOT
BRANCH   2  12
ATOM     12  C   UNL     1       1.933   8.230  19.211  0.00  0.00    +0.000 A 
ATOM     13  C   UNL     1       1.135   8.861  18.248  0.00  0.00    +0.000 A 
ATOM     14  C   UNL     1       0.234   9.874  18.588  0.00  0.00    +0.000 A 
ATOM     15  C   UNL     1       0.099  10.268  19.936  0.00  0.00    +0.000 A 
ATOM     16  C   UNL     1       0.873   9.631  20.927  0.00  0.00    +0.000 A 
ATOM     17  C   UNL     1       1.769   8.614  20.550  0.00  0.00    +0.000 A 
BRANCH  14  18
ATOM     18  O   UNL     1      -0.540  10.527  17.655  0.00  0.00    +0.000 OA
ATOM     19  C   UNL     1      -1.709   9.844  17.214  0.00  0.00    +0.000 C 
ENDBRANCH  14  18
BRANCH  15  20
ATOM     20  O   UNL     1      -0.766  11.318  20.153  0.00  0.00    +0.000 OA
ATOM     21  C   UNL     1      -0.194  12.614  20.268  0.00  0.00    +0.000 C 
ENDBRANCH  15  20
BRANCH  16  22
ATOM     22  O   UNL     1       0.735  10.055  22.224  0.00  0.00    +0.000 OA
ATOM     23  C   UNL     1      -0.250   9.432  23.037  0.00  0.00    +0.000 C 
ENDBRANCH  16  22
ENDBRANCH   2  12
BRANCH   1  24
ATOM     24  O   UNL     1       2.446   5.920  20.849  0.00  0.00    +0.000 OA
BRANCH  24  25
ATOM     25  C   UNL     1       2.050   4.611  21.247  0.00  0.00    +0.000 C 
BRANCH  25  26
ATOM     26  C   UNL     1       0.946   4.129  20.310  0.00  0.00    +0.000 C 
BRANCH  26  27
ATOM     27  C   UNL     1       1.047   2.621  20.093  0.00  0.00    +0.000 C 
BRANCH  27  28
ATOM     28  C   UNL     1       0.873   2.254  18.622  0.00  0.00    +0.000 C 
BRANCH  28  30
ATOM     29  C   UNL     1       3.244   1.644  18.041  0.00  0.00    +0.000 C 
ATOM     30  C   UNL     1       2.111   2.630  17.809  0.00  0.00    +0.000 C 
ENDBRANCH  28  30
ENDBRANCH  27  28
ENDBRANCH  26  27
ENDBRANCH  25  26
ENDBRANCH  24  25
ENDBRANCH   1  24
TORSDOF 10
ENDMDL
MODEL 5
REMARK VINA RESULT:      -7.0      2.965      7.327
REMARK  Name = 
REMARK  14 active torsions:
REMARK  status: ('A' for Active; 'I' for Inactive)
REMARK    1  A    between atoms: C_1  and  C_2
REMARK    2  A    between atoms: C_2  and  C_3
REMARK    3  A    between atoms: C_3  and  C_4
REMARK    4  A    between atoms: C_4  and  C_5
REMARK    5  A    between atoms: C_5  and  C_6
REMARK    6  A    between atoms: C_6  and  O_7
REMARK    7  A    between atoms: O_7  and  C_8
REMARK    8  A    between atoms: C_9  and  C_10
REMARK    9  A    between atoms: C_12  and  O_13
REMARK   10  A    between atoms: O_13  and  C_14
REMARK   11  A    between atoms: C_15  and  O_16
REMARK   12  A    between atoms: O_16  and  C_17
REMARK   13  A    between atoms: C_18  and  O_19
REMARK   14  A    between atoms: O_19  and  C_20
REMARK                            x       y       z     vdW  Elec       q    Type
REMARK                         _______ _______ _______ _____ _____    ______ ____
ROOT
ATOM      1  C   UNL     1       2.260   8.009  18.394  0.00  0.00    +0.000 A 
ATOM      2  C   UNL     1       2.191   7.190  19.470  0.00  0.00    +0.000 A 
ATOM      3  O   UNL     1       1.555   7.502  20.664  0.00  0.00    +0.000 OA
ATOM      4  C   UNL     1       1.000   8.741  20.818  0.00  0.00    +0.000 A 
ATOM      5  C   UNL     1       0.375   9.020  22.034  0.00  0.00    +0.000 A 
ATOM      6  C   UNL     1      -0.181  10.284  22.258  0.00  0.00    +0.000 A 
ATOM      7  C   UNL     1      -0.110  11.265  21.268  0.00  0.00    +0.000 A 
ATOM      8  C   UNL     1       0.502  10.979  20.051  0.00  0.00    +0.000 A 
ATOM      9  C   UNL     1       1.047   9.709  19.828  0.00  0.00    +0.000 A 
ATOM     10  C   UNL     1       1.673   9.383  18.544  0.00  0.00    +0.000 A 
ATOM     11  O   UNL     1       1.697  10.242  17.670  0.00  0.00    +0.000 OA
ENDROOT
BRANCH   2  12
ATOM     12  C   UNL     1       2.810   5.839  19.511  0.00  0.00    +0.000 A 
ATOM     13  C   UNL     1       2.018   4.685  19.578  0.00  0.00    +0.000 A 
ATOM     14  C   UNL     1       2.583   3.406  19.581  0.00  0.00    +0.000 A 
ATOM     15  C   UNL     1       3.983   3.258  19.494  0.00  0.00    +0.000 A 
ATOM     16  C   UNL     1       4.799   4.404  19.401  0.00  0.00    +0.000 A 
ATOM     17  C   UNL     1       4.198   5.676  19.400  0.00  0.00    +0.000 A 
BRANCH  14  18
ATOM     18  O   UNL     1       1.828   2.258  19.674  0.00  0.00    +0.000 OA
ATOM     19  C   UNL     1       0.695   2.176  18.815  0.00  0.00    +0.000 C 
ENDBRANCH  14  18
BRANCH  15  20
ATOM     20  O   UNL     1       4.439   1.960  19.572  0.00  0.00    +0.000 OA
ATOM     21  C   UNL     1       4.941   1.524  20.828  0.00  0.00    +0.000 C 
ENDBRANCH  15  20
BRANCH  16  22
ATOM     22  O   UNL     1       6.157   4.225  19.344  0.00  0.00    +0.000 OA
ATOM     23  C   UNL     1       6.995   5.365  19.478  0.00  0.00    +0.000 C 
ENDBRANCH  16  22
ENDBRANCH   2  12
BRANCH   1  24
ATOM     24  O   UNL     1       2.856   7.574  17.215  0.00  0.00    +0.000 OA
BRANCH  24  25
ATOM     25  C   UNL     1       4.274   7.641  17.107  0.00  0.00    +0.000 C 
BRANCH  25  26
ATOM     26  C   UNL     1       4.705   6.889  15.851  0.00  0.00    +0.000 C 
BRANCH  26  27
ATOM     27  C   UNL     1       5.891   5.975  16.154  0.00  0.00    +0.000 C 
BRANCH  27  28
ATOM     28  C   UNL     1       5.610   4.536  15.731  0.00  0.00    +0.000 C 
BRANCH  28  30
ATOM     29  C   UNL     1       5.701   3.801  13.326  0.00  0.00    +0.000 C 
ATOM     30  C   UNL     1       6.513   4.115  14.572  0.00  0.00    +0.000 C 
ENDBRANCH  28  30
ENDBRANCH  27  28
ENDBRANCH  26  27
ENDBRANCH  25  26
ENDBRANCH  24  25
ENDBRANCH   1  24
TORSDOF 10
ENDMDL
MODEL 6
REMARK VINA RESULT:      -6.9      2.950      7.337
REMARK  Name = 
REMARK  14 active torsions:
REMARK  status: ('A' for Active; 'I' for Inactive)
REMARK    1  A    between atoms: C_1  and  C_2
REMARK    2  A    between atoms: C_2  and  C_3
REMARK    3  A    between atoms: C_3  and  C_4
REMARK    4  A    between atoms: C_4  and  C_5
REMARK    5  A    between atoms: C_5  and  C_6
REMARK    6  A    between atoms: C_6  and  O_7
REMARK    7  A    between atoms: O_7  and  C_8
REMARK    8  A    between atoms: C_9  and  C_10
REMARK    9  A    between atoms: C_12  and  O_13
REMARK   10  A    between atoms: O_13  and  C_14
REMARK   11  A    between atoms: C_15  and  O_16
REMARK   12  A    between atoms: O_16  and  C_17
REMARK   13  A    between atoms: C_18  and  O_19
REMARK   14  A    between atoms: O_19  and  C_20
REMARK                            x       y       z     vdW  Elec       q    Type
REMARK                         _______ _______ _______ _____ _____    ______ ____
ROOT
ATOM      1  C   UNL     1       2.309   8.038  18.334  0.00  0.00    +0.000 A 
ATOM      2  C   UNL     1       2.237   7.218  19.409  0.00  0.00    +0.000 A 
ATOM      3  O   UNL     1       1.601   7.531  20.604  0.00  0.00    +0.000 OA
ATOM      4  C   UNL     1       1.051   8.771  20.760  0.00  0.00    +0.000 A 
ATOM      5  C   UNL     1       0.427   9.050  21.976  0.00  0.00    +0.000 A 
ATOM      6  C   UNL     1      -0.124  10.316  22.202  0.00  0.00    +0.000 A 
ATOM      7  C   UNL     1      -0.050  11.299  21.214  0.00  0.00    +0.000 A 
ATOM      8  C   UNL     1       0.561  11.012  19.996  0.00  0.00    +0.000 A 
ATOM      9  C   UNL     1       1.102   9.740  19.771  0.00  0.00    +0.000 A 
ATOM     10  C   UNL     1       1.727   9.414  18.487  0.00  0.00    +0.000 A 
ATOM     11  O   UNL     1       1.753  10.275  17.614  0.00  0.00    +0.000 OA
ENDROOT
BRANCH   2  12
ATOM     12  C   UNL     1       2.850   5.864  19.448  0.00  0.00    +0.000 A 
ATOM     13  C   UNL     1       4.240   5.700  19.396  0.00  0.00    +0.000 A 
ATOM     14  C   UNL     1       4.834   4.436  19.469  0.00  0.00    +0.000 A 
ATOM     15  C   UNL     1       4.026   3.290  19.620  0.00  0.00    +0.000 A 
ATOM     16  C   UNL     1       2.625   3.432  19.699  0.00  0.00    +0.000 A 
ATOM     17  C   UNL     1       2.061   4.718  19.624  0.00  0.00    +0.000 A 
BRANCH  14  18
ATOM     18  O   UNL     1       6.195   4.247  19.392  0.00  0.00    +0.000 OA
ATOM     19  C   UNL     1       7.001   5.418  19.473  0.00  0.00    +0.000 C 
ENDBRANCH  14  18
BRANCH  15  20
ATOM     20  O   UNL     1       4.706   2.092  19.614  0.00  0.00    +0.000 OA
ATOM     21  C   UNL     1       4.996   1.506  20.877  0.00  0.00    +0.000 C 
ENDBRANCH  15  20
BRANCH  16  22
ATOM     22  O   UNL     1       1.869   2.295  19.821  0.00  0.00    +0.000 OA
ATOM     23  C   UNL     1       0.848   2.058  18.861  0.00  0.00    +0.000 C 
ENDBRANCH  16  22
ENDBRANCH   2  12
BRANCH   1  24
ATOM     24  O   UNL     1       2.902   7.602  17.155  0.00  0.00    +0.000 OA
BRANCH  24  25
ATOM     25  C   UNL     1       4.319   7.690  17.036  0.00  0.00    +0.000 C 
BRANCH  25  26
ATOM     26  C   UNL     1       4.761   6.856  15.837  0.00  0.00    +0.000 C 
BRANCH  26  27
ATOM     27  C   UNL     1       5.915   5.933  16.223  0.00  0.00    +0.000 C 
BRANCH  27  28
ATOM     28  C   UNL     1       5.713   4.525  15.671  0.00  0.00    +0.000 C 
BRANCH  28  30
ATOM     29  C   UNL     1       5.812   3.759  13.276  0.00  0.00    +0.000 C 
ATOM     30  C   UNL     1       6.613   4.272  14.461  0.00  0.00    +0.000 C 
ENDBRANCH  28  30
ENDBRANCH  27  28
ENDBRANCH  26  27
ENDBRANCH  25  26
ENDBRANCH  24  25
ENDBRANCH   1  24
TORSDOF 10
ENDMDL
MODEL 7
REMARK VINA RESULT:      -6.7      3.576      6.686
REMARK  Name = 
REMARK  14 active torsions:
REMARK  status: ('A' for Active; 'I' for Inactive)
REMARK    1  A    between atoms: C_1  and  C_2
REMARK    2  A    between atoms: C_2  and  C_3
REMARK    3  A    between atoms: C_3  and  C_4
REMARK    4  A    between atoms: C_4  and  C_5
REMARK    5  A    between atoms: C_5  and  C_6
REMARK    6  A    between atoms: C_6  and  O_7
REMARK    7  A    between atoms: O_7  and  C_8
REMARK    8  A    between atoms: C_9  and  C_10
REMARK    9  A    between atoms: C_12  and  O_13
REMARK   10  A    between atoms: O_13  and  C_14
REMARK   11  A    between atoms: C_15  and  O_16
REMARK   12  A    between atoms: O_16  and  C_17
REMARK   13  A    between atoms: C_18  and  O_19
REMARK   14  A    between atoms: O_19  and  C_20
REMARK                            x       y       z     vdW  Elec       q    Type
REMARK                         _______ _______ _______ _____ _____    ______ ____
ROOT
ATOM      1  C   UNL     1       3.351   5.816  19.485  0.00  0.00    +0.000 A 
ATOM      2  C   UNL     1       3.121   6.891  18.694  0.00  0.00    +0.000 A 
ATOM      3  O   UNL     1       3.684   7.088  17.440  0.00  0.00    +0.000 OA
ATOM      4  C   UNL     1       4.587   6.178  16.966  0.00  0.00    +0.000 A 
ATOM      5  C   UNL     1       5.137   6.413  15.705  0.00  0.00    +0.000 A 
ATOM      6  C   UNL     1       6.090   5.532  15.186  0.00  0.00    +0.000 A 
ATOM      7  C   UNL     1       6.493   4.420  15.926  0.00  0.00    +0.000 A 
ATOM      8  C   UNL     1       5.933   4.181  17.179  0.00  0.00    +0.000 A 
ATOM      9  C   UNL     1       4.971   5.061  17.689  0.00  0.00    +0.000 A 
ATOM     10  C   UNL     1       4.354   4.811  18.994  0.00  0.00    +0.000 A 
ATOM     11  O   UNL     1       4.690   3.811  19.619  0.00  0.00    +0.000 OA
ENDROOT
BRANCH   2  12
ATOM     12  C   UNL     1       2.233   8.018  19.083  0.00  0.00    +0.000 A 
ATOM     13  C   UNL     1       1.444   7.951  20.238  0.00  0.00    +0.000 A 
ATOM     14  C   UNL     1       0.632   9.016  20.637  0.00  0.00    +0.000 A 
ATOM     15  C   UNL     1       0.611  10.204  19.876  0.00  0.00    +0.000 A 
ATOM     16  C   UNL     1       1.414  10.305  18.722  0.00  0.00    +0.000 A 
ATOM     17  C   UNL     1       2.221   9.214  18.350  0.00  0.00    +0.000 A 
BRANCH  14  18
ATOM     18  O   UNL     1      -0.172   8.963  21.753  0.00  0.00    +0.000 OA
ATOM     19  C   UNL     1       0.424   9.371  22.981  0.00  0.00    +0.000 C 
ENDBRANCH  14  18
BRANCH  15  20
ATOM     20  O   UNL     1      -0.272  11.164  20.319  0.00  0.00    +0.000 OA
ATOM     21  C   UNL     1      -1.469  11.338  19.572  0.00  0.00    +0.000 C 
ENDBRANCH  15  20
BRANCH  16  22
ATOM     22  O   UNL     1       1.351  11.464  17.992  0.00  0.00    +0.000 OA
ATOM     23  C   UNL     1       2.292  12.491  18.273  0.00  0.00    +0.000 C 
ENDBRANCH  16  22
ENDBRANCH   2  12
BRANCH   1  24
ATOM     24  O   UNL     1       2.678   5.675  20.693  0.00  0.00    +0.000 OA
BRANCH  24  25
ATOM     25  C   UNL     1       1.482   4.902  20.716  0.00  0.00    +0.000 C 
BRANCH  25  26
ATOM     26  C   UNL     1       1.769   3.577  21.415  0.00  0.00    +0.000 C 
BRANCH  26  27
ATOM     27  C   UNL     1       1.737   2.424  20.414  0.00  0.00    +0.000 C 
BRANCH  27  28
ATOM     28  C   UNL     1       0.767   2.703  19.270  0.00  0.00    +0.000 C 
BRANCH  28  30
ATOM     29  C   UNL     1       2.583   1.962  17.694  0.00  0.00    +0.000 C 
ATOM     30  C   UNL     1       1.516   3.007  17.973  0.00  0.00    +0.000 C 
ENDBRANCH  28  30
ENDBRANCH  27  28
ENDBRANCH  26  27
ENDBRANCH  25  26
ENDBRANCH  24  25
ENDBRANCH   1  24
TORSDOF 10
ENDMDL
MODEL 8
REMARK VINA RESULT:      -6.6      1.045      1.214
REMARK  Name = 
REMARK  14 active torsions:
REMARK  status: ('A' for Active; 'I' for Inactive)
REMARK    1  A    between atoms: C_1  and  C_2
REMARK    2  A    between atoms: C_2  and  C_3
REMARK    3  A    between atoms: C_3  and  C_4
REMARK    4  A    between atoms: C_4  and  C_5
REMARK    5  A    between atoms: C_5  and  C_6
REMARK    6  A    between atoms: C_6  and  O_7
REMARK    7  A    between atoms: O_7  and  C_8
REMARK    8  A    between atoms: C_9  and  C_10
REMARK    9  A    between atoms: C_12  and  O_13
REMARK   10  A    between atoms: O_13  and  C_14
REMARK   11  A    between atoms: C_15  and  O_16
REMARK   12  A    between atoms: O_16  and  C_17
REMARK   13  A    between atoms: C_18  and  O_19
REMARK   14  A    between atoms: O_19  and  C_20
REMARK                            x       y       z     vdW  Elec       q    Type
REMARK                         _______ _______ _______ _____ _____    ______ ____
ROOT
ATOM      1  C   UNL     1       6.447   5.389  15.567  0.00  0.00    +0.000 A 
ATOM      2  C   UNL     1       5.277   4.710  15.624  0.00  0.00    +0.000 A 
ATOM      3  O   UNL     1       4.822   3.830  14.649  0.00  0.00    +0.000 OA
ATOM      4  C   UNL     1       5.559   3.661  13.511  0.00  0.00    +0.000 A 
ATOM      5  C   UNL     1       5.067   2.774  12.553  0.00  0.00    +0.000 A 
ATOM      6  C   UNL     1       5.763   2.587  11.355  0.00  0.00    +0.000 A 
ATOM      7  C   UNL     1       6.947   3.286  11.116  0.00  0.00    +0.000 A 
ATOM      8  C   UNL     1       7.442   4.160  12.080  0.00  0.00    +0.000 A 
ATOM      9  C   UNL     1       6.746   4.336  13.282  0.00  0.00    +0.000 A 
ATOM     10  C   UNL     1       7.266   5.233  14.318  0.00  0.00    +0.000 A 
ATOM     11  O   UNL     1       8.326   5.814  14.111  0.00  0.00    +0.000 OA
ENDROOT
BRANCH   2  12
ATOM     12  C   UNL     1       4.311   4.836  16.747  0.00  0.00    +0.000 A 
ATOM     13  C   UNL     1       3.895   3.710  17.470  0.00  0.00    +0.000 A 
ATOM     14  C   UNL     1       3.017   3.816  18.552  0.00  0.00    +0.000 A 
ATOM     15  C   UNL     1       2.544   5.084  18.950  0.00  0.00    +0.000 A 
ATOM     16  C   UNL     1       2.968   6.234  18.253  0.00  0.00    +0.000 A 
ATOM     17  C   UNL     1       3.854   6.092  17.170  0.00  0.00    +0.000 A 
BRANCH  14  18
ATOM     18  O   UNL     1       2.573   2.722  19.261  0.00  0.00    +0.000 OA
ATOM     19  C   UNL     1       1.442   2.040  18.727  0.00  0.00    +0.000 C 
ENDBRANCH  14  18
BRANCH  15  20
ATOM     20  O   UNL     1       1.633   5.069  19.983  0.00  0.00    +0.000 OA
ATOM     21  C   UNL     1       2.154   5.057  21.306  0.00  0.00    +0.000 C 
ENDBRANCH  15  20
BRANCH  16  22
ATOM     22  O   UNL     1       2.469   7.448  18.651  0.00  0.00    +0.000 OA
ATOM     23  C   UNL     1       2.694   8.576  17.816  0.00  0.00    +0.000 C 
ENDBRANCH  16  22
ENDBRANCH   2  12
BRANCH   1  24
ATOM     24  O   UNL     1       6.849   6.189  16.631  0.00  0.00    +0.000 OA
BRANCH  24  25
ATOM     25  C   UNL     1       7.498   5.570  17.737  0.00  0.00    +0.000 C 
BRANCH  25  26
ATOM     26  C   UNL     1       7.980   6.657  18.692  0.00  0.00    +0.000 C 
BRANCH  26  27
ATOM     27  C   UNL     1       8.087   7.998  17.967  0.00  0.00    +0.000 C 
BRANCH  27  28
ATOM     28  C   UNL     1       8.770   9.051  18.835  0.00  0.00    +0.000 C 
BRANCH  28  30
ATOM     29  C   UNL     1       9.533  11.445  18.974  0.00  0.00    +0.000 C 
ATOM     30  C   UNL     1       8.874  10.388  18.103  0.00  0.00    +0.000 C 
ENDBRANCH  28  30
ENDBRANCH  27  28
ENDBRANCH  26  27
ENDBRANCH  25  26
ENDBRANCH  24  25
ENDBRANCH   1  24
TORSDOF 10
ENDMDL
MODEL 9
REMARK VINA RESULT:      -6.6      3.236      6.422
REMARK  Name = 
REMARK  14 active torsions:
REMARK  status: ('A' for Active; 'I' for Inactive)
REMARK    1  A    between atoms: C_1  and  C_2
REMARK    2  A    between atoms: C_2  and  C_3
REMARK    3  A    between atoms: C_3  and  C_4
REMARK    4  A    between atoms: C_4  and  C_5
REMARK    5  A    between atoms: C_5  and  C_6
REMARK    6  A    between atoms: C_6  and  O_7
REMARK    7  A    between atoms: O_7  and  C_8
REMARK    8  A    between atoms: C_9  and  C_10
REMARK    9  A    between atoms: C_12  and  O_13
REMARK   10  A    between atoms: O_13  and  C_14
REMARK   11  A    between atoms: C_15  and  O_16
REMARK   12  A    between atoms: O_16  and  C_17
REMARK   13  A    between atoms: C_18  and  O_19
REMARK   14  A    between atoms: O_19  and  C_20
REMARK                            x       y       z     vdW  Elec       q    Type
REMARK                         _______ _______ _______ _____ _____    ______ ____
ROOT
ATOM      1  C   UNL     1       2.618   5.348  17.907  0.00  0.00    +0.000 A 
ATOM      2  C   UNL     1       2.970   6.629  18.165  0.00  0.00    +0.000 A 
ATOM      3  O   UNL     1       4.221   7.175  17.907  0.00  0.00    +0.000 OA
ATOM      4  C   UNL     1       5.208   6.371  17.412  0.00  0.00    +0.000 A 
ATOM      5  C   UNL     1       6.453   6.954  17.171  0.00  0.00    +0.000 A 
ATOM      6  C   UNL     1       7.509   6.170  16.696  0.00  0.00    +0.000 A 
ATOM      7  C   UNL     1       7.320   4.807  16.462  0.00  0.00    +0.000 A 
ATOM      8  C   UNL     1       6.072   4.232  16.690  0.00  0.00    +0.000 A 
ATOM      9  C   UNL     1       5.016   5.024  17.156  0.00  0.00    +0.000 A 
ATOM     10  C   UNL     1       3.691   4.439  17.378  0.00  0.00    +0.000 A 
ATOM     11  O   UNL     1       3.528   3.249  17.134  0.00  0.00    +0.000 OA
ENDROOT
BRANCH   2  12
ATOM     12  C   UNL     1       2.051   7.623  18.780  0.00  0.00    +0.000 A 
ATOM     13  C   UNL     1       1.876   7.682  20.169  0.00  0.00    +0.000 A 
ATOM     14  C   UNL     1       1.045   8.634  20.765  0.00  0.00    +0.000 A 
ATOM     15  C   UNL     1       0.372   9.579  19.961  0.00  0.00    +0.000 A 
ATOM     16  C   UNL     1       0.552   9.555  18.563  0.00  0.00    +0.000 A 
ATOM     17  C   UNL     1       1.397   8.584  17.996  0.00  0.00    +0.000 A 
BRANCH  14  18
ATOM     18  O   UNL     1       0.836   8.695  22.124  0.00  0.00    +0.000 OA
ATOM     19  C   UNL     1       1.866   9.305  22.895  0.00  0.00    +0.000 C 
ENDBRANCH  14  18
BRANCH  15  20
ATOM     20  O   UNL     1      -0.472  10.428  20.641  0.00  0.00    +0.000 OA
ATOM     21  C   UNL     1      -0.014  11.755  20.866  0.00  0.00    +0.000 C 
ENDBRANCH  15  20
BRANCH  16  22
ATOM     22  O   UNL     1      -0.136  10.472  17.810  0.00  0.00    +0.000 OA
ATOM     23  C   UNL     1      -1.463  10.158  17.410  0.00  0.00    +0.000 C 
ENDBRANCH  16  22
ENDBRANCH   2  12
BRANCH   1  24
ATOM     24  O   UNL     1       1.315   4.917  18.131  0.00  0.00    +0.000 OA
BRANCH  24  25
ATOM     25  C   UNL     1       1.057   3.516  18.144  0.00  0.00    +0.000 C 
BRANCH  25  26
ATOM     26  C   UNL     1       0.785   3.083  19.582  0.00  0.00    +0.000 C 
BRANCH  26  27
ATOM     27  C   UNL     1       1.064   4.232  20.549  0.00  0.00    +0.000 C 
BRANCH  27  28
ATOM     28  C   UNL     1       2.205   3.894  21.505  0.00  0.00    +0.000 C 
BRANCH  28  30
ATOM     29  C   UNL     1       4.053   2.518  20.495  0.00  0.00    +0.000 C 
ATOM     30  C   UNL     1       2.737   2.484  21.253  0.00  0.00    +0.000 C 
ENDBRANCH  28  30
ENDBRANCH  27  28
ENDBRANCH  26  27
ENDBRANCH  25  26
ENDBRANCH  24  25
ENDBRANCH   1  24
TORSDOF 10
ENDMDL
