MODEL 1
REMARK VINA RESULT:      -6.4      0.000      0.000
REMARK  Name = 
REMARK  4 active torsions:
REMARK  status: ('A' for Active; 'I' for Inactive)
REMARK    1  A    between atoms: C_1  and  C_2
REMARK    2  A    between atoms: N_5  and  C_6
REMARK    3  A    between atoms: C_7  and  S_8
REMARK    4  A    between atoms: S_8  and  C_11
REMARK                            x       y       z     vdW  Elec       q    Type
REMARK                         _______ _______ _______ _____ _____    ______ ____
ROOT
ATOM      1  C   UNL     1       5.060   4.158  16.594  0.00  0.00    +0.000 A 
ATOM      2  C   UNL     1       5.921   4.789  17.530  0.00  0.00    +0.000 A 
ATOM      3  C   UNL     1       7.138   5.299  17.098  0.00  0.00    +0.000 A 
ATOM      4  N   UNL     1       7.582   5.258  15.825  0.00  0.00    +0.000 NA
ATOM      5  C   UNL     1       6.806   4.684  14.914  0.00  0.00    +0.000 A 
ATOM      6  C   UNL     1       7.335   4.637  13.631  0.00  0.00    +0.000 A 
ATOM      7  C   UNL     1       6.635   4.067  12.578  0.00  0.00    +0.000 A 
ATOM      8 CL   UNL     1       7.332   3.996  11.009  0.00  0.00    +0.000 Cl
ATOM      9  C   UNL     1       5.364   3.577  12.791  0.00  0.00    +0.000 A 
ATOM     10  C   UNL     1       4.812   3.654  14.074  0.00  0.00    +0.000 A 
ATOM     11  C   UNL     1       5.522   4.146  15.208  0.00  0.00    +0.000 A 
ENDROOT
BRANCH   1  16
ATOM     12  C   UNL     1       0.592   2.184  19.368  0.00  0.00    +0.000 C 
ATOM     13  C   UNL     1       1.490   2.319  18.140  0.00  0.00    +0.000 C 
ATOM     14  C   UNL     1       2.900   1.826  18.491  0.00  0.00    +0.000 C 
ATOM     15  C   UNL     1       3.881   2.076  17.359  0.00  0.00    +0.000 C 
ATOM     16  N   UNL     1       3.878   3.501  16.990  0.00  0.00    +0.000 N 
ATOM     17  C   UNL     1       2.569   3.953  16.511  0.00  0.00    +0.000 C 
ATOM     18  C   UNL     1       1.527   3.765  17.625  0.00  0.00    +0.000 C 
ENDBRANCH   1  16
BRANCH   2  19
ATOM     19  S   UNL     1       5.705   4.903  19.297  0.00  0.00    +0.000 S 
ATOM     20  O   UNL     1       5.792   3.569  19.864  0.00  0.00    +0.000 OA
ATOM     21  O   UNL     1       6.610   5.927  19.789  0.00  0.00    +0.000 OA
BRANCH  19  22
ATOM     22  C   UNL     1       4.086   5.559  19.662  0.00  0.00    +0.000 A 
ATOM     23  C   UNL     1       3.253   4.876  20.554  0.00  0.00    +0.000 A 
ATOM     24  C   UNL     1       1.970   5.367  20.817  0.00  0.00    +0.000 A 
ATOM     25  C   UNL     1       1.525   6.534  20.190  0.00  0.00    +0.000 A 
ATOM     26  C   UNL     1       2.369   7.209  19.308  0.00  0.00    +0.000 A 
ATOM     27 CL   UNL     1       1.814   8.643  18.533  0.00  0.00    +0.000 Cl
ATOM     28  C   UNL     1       3.652   6.733  19.038  0.00  0.00    +0.000 A 
ENDBRANCH  19  22
ENDBRANCH   2  19
TORSDOF 3
ENDMDL
MODEL 2
REMARK VINA RESULT:      -6.3      8.247     12.015
REMARK  Name = 
REMARK  4 active torsions:
REMARK  status: ('A' for Active; 'I' for Inactive)
REMARK    1  A    between atoms: C_1  and  C_2
REMARK    2  A    between atoms: N_5  and  C_6
REMARK    3  A    between atoms: C_7  and  S_8
REMARK    4  A    between atoms: S_8  and  C_11
REMARK                            x       y       z     vdW  Elec       q    Type
REMARK                         _______ _______ _______ _____ _____    ______ ____
ROOT
ATOM      1  C   UNL     1      -3.312  12.305  19.737  0.00  0.00    +0.000 A 
ATOM      2  C   UNL     1      -2.073  12.888  20.111  0.00  0.00    +0.000 A 
ATOM      3  C   UNL     1      -2.029  13.757  21.193  0.00  0.00    +0.000 A 
ATOM      4  N   UNL     1      -3.091  14.096  21.951  0.00  0.00    +0.000 NA
ATOM      5  C   UNL     1      -4.270  13.568  21.642  0.00  0.00    +0.000 A 
ATOM      6  C   UNL     1      -5.330  13.987  22.434  0.00  0.00    +0.000 A 
ATOM      7  C   UNL     1      -6.619  13.518  22.227  0.00  0.00    +0.000 A 
ATOM      8 CL   UNL     1      -7.916  14.081  23.204  0.00  0.00    +0.000 Cl
ATOM      9  C   UNL     1      -6.853  12.578  21.246  0.00  0.00    +0.000 A 
ATOM     10  C   UNL     1      -5.781  12.125  20.469  0.00  0.00    +0.000 A 
ATOM     11  C   UNL     1      -4.457  12.642  20.580  0.00  0.00    +0.000 A 
ENDROOT
BRANCH   1  16
ATOM     12  C   UNL     1      -2.877  10.040  14.615  0.00  0.00    +0.000 C 
ATOM     13  C   UNL     1      -3.461  10.137  16.022  0.00  0.00    +0.000 C 
ATOM     14  C   UNL     1      -4.103  11.519  16.206  0.00  0.00    +0.000 C 
ATOM     15  C   UNL     1      -4.567  11.737  17.637  0.00  0.00    +0.000 C 
ATOM     16  N   UNL     1      -3.449  11.526  18.571  0.00  0.00    +0.000 N 
ATOM     17  C   UNL     1      -2.920  10.160  18.511  0.00  0.00    +0.000 C 
ATOM     18  C   UNL     1      -2.393   9.881  17.095  0.00  0.00    +0.000 C 
ENDBRANCH   1  16
BRANCH   2  19
ATOM     19  S   UNL     1      -0.511  12.758  19.258  0.00  0.00    +0.000 S 
ATOM     20  O   UNL     1      -0.746  12.893  17.832  0.00  0.00    +0.000 OA
ATOM     21  O   UNL     1       0.421  13.670  19.899  0.00  0.00    +0.000 OA
BRANCH  19  22
ATOM     22  C   UNL     1       0.201  11.149  19.555  0.00  0.00    +0.000 A 
ATOM     23  C   UNL     1       0.041  10.547  20.808  0.00  0.00    +0.000 A 
ATOM     24  C   UNL     1       0.627   9.301  21.057  0.00  0.00    +0.000 A 
ATOM     25  C   UNL     1       1.368   8.664  20.058  0.00  0.00    +0.000 A 
ATOM     26  C   UNL     1       1.513   9.272  18.811  0.00  0.00    +0.000 A 
ATOM     27 CL   UNL     1       2.432   8.485  17.586  0.00  0.00    +0.000 Cl
ATOM     28  C   UNL     1       0.933  10.512  18.547  0.00  0.00    +0.000 A 
ENDBRANCH  19  22
ENDBRANCH   2  19
TORSDOF 3
ENDMDL
MODEL 3
REMARK VINA RESULT:      -6.2      9.515     12.278
REMARK  Name = 
REMARK  4 active torsions:
REMARK  status: ('A' for Active; 'I' for Inactive)
REMARK    1  A    between atoms: C_1  and  C_2
REMARK    2  A    between atoms: N_5  and  C_6
REMARK    3  A    between atoms: C_7  and  S_8
REMARK    4  A    between atoms: S_8  and  C_11
REMARK                            x       y       z     vdW  Elec       q    Type
REMARK                         _______ _______ _______ _____ _____    ______ ____
ROOT
ATOM      1  C   UNL     1       6.805  14.530  20.786  0.00  0.00    +0.000 A 
ATOM      2  C   UNL     1       7.217  13.861  21.967  0.00  0.00    +0.000 A 
ATOM      3  C   UNL     1       6.280  13.585  22.955  0.00  0.00    +0.000 A 
ATOM      4  N   UNL     1       4.970  13.895  22.882  0.00  0.00    +0.000 NA
ATOM      5  C   UNL     1       4.538  14.516  21.790  0.00  0.00    +0.000 A 
ATOM      6  C   UNL     1       3.190  14.844  21.792  0.00  0.00    +0.000 A 
ATOM      7  C   UNL     1       2.600  15.494  20.717  0.00  0.00    +0.000 A 
ATOM      8 CL   UNL     1       0.934  15.915  20.764  0.00  0.00    +0.000 Cl
ATOM      9  C   UNL     1       3.352  15.780  19.599  0.00  0.00    +0.000 A 
ATOM     10  C   UNL     1       4.704  15.419  19.577  0.00  0.00    +0.000 A 
ATOM     11  C   UNL     1       5.379  14.834  20.688  0.00  0.00    +0.000 A 
ENDROOT
BRANCH   1  16
ATOM     12  C   UNL     1      11.345  15.439  17.606  0.00  0.00    +0.000 C 
ATOM     13  C   UNL     1       9.876  15.625  17.977  0.00  0.00    +0.000 C 
ATOM     14  C   UNL     1       9.786  16.223  19.388  0.00  0.00    +0.000 C 
ATOM     15  C   UNL     1       8.349  16.291  19.879  0.00  0.00    +0.000 C 
ATOM     16  N   UNL     1       7.726  14.959  19.810  0.00  0.00    +0.000 N 
ATOM     17  C   UNL     1       7.671  14.437  18.442  0.00  0.00    +0.000 C 
ATOM     18  C   UNL     1       9.099  14.304  17.891  0.00  0.00    +0.000 C 
ENDBRANCH   1  16
BRANCH   2  19
ATOM     19  S   UNL     1       8.880  13.423  22.443  0.00  0.00    +0.000 S 
ATOM     20  O   UNL     1       9.630  14.641  22.688  0.00  0.00    +0.000 OA
ATOM     21  O   UNL     1       8.793  12.435  23.505  0.00  0.00    +0.000 OA
BRANCH  19  22
ATOM     22  C   UNL     1       9.671  12.540  21.109  0.00  0.00    +0.000 A 
ATOM     23  C   UNL     1      10.953  12.921  20.698  0.00  0.00    +0.000 A 
ATOM     24  C   UNL     1      11.564  12.256  19.631  0.00  0.00    +0.000 A 
ATOM     25  C   UNL     1      10.895  11.215  18.980  0.00  0.00    +0.000 A 
ATOM     26  C   UNL     1       9.620  10.841  19.404  0.00  0.00    +0.000 A 
ATOM     27 CL   UNL     1       8.798   9.563  18.594  0.00  0.00    +0.000 Cl
ATOM     28  C   UNL     1       8.999  11.494  20.469  0.00  0.00    +0.000 A 
ENDBRANCH  19  22
ENDBRANCH   2  19
TORSDOF 3
ENDMDL
MODEL 4
REMARK VINA RESULT:      -6.2     10.026     12.803
REMARK  Name = 
REMARK  4 active torsions:
REMARK  status: ('A' for Active; 'I' for Inactive)
REMARK    1  A    between atoms: C_1  and  C_2
REMARK    2  A    between atoms: N_5  and  C_6
REMARK    3  A    between atoms: C_7  and  S_8
REMARK    4  A    between atoms: S_8  and  C_11
REMARK                            x       y       z     vdW  Elec       q    Type
REMARK                         _______ _______ _______ _____ _____    ______ ____
ROOT
ATOM      1  C   UNL     1      -3.735  12.514  20.351  0.00  0.00    +0.000 A 
ATOM      2  C   UNL     1      -2.604  12.389  21.200  0.00  0.00    +0.000 A 
ATOM      3  C   UNL     1      -1.458  11.770  20.720  0.00  0.00    +0.000 A 
ATOM      4  N   UNL     1      -1.315  11.274  19.474  0.00  0.00    +0.000 NA
ATOM      5  C   UNL     1      -2.345  11.375  18.643  0.00  0.00    +0.000 A 
ATOM      6  C   UNL     1      -2.151  10.810  17.390  0.00  0.00    +0.000 A 
ATOM      7  C   UNL     1      -3.141  10.842  16.418  0.00  0.00    +0.000 A 
ATOM      8 CL   UNL     1      -2.880  10.104  14.888  0.00  0.00    +0.000 Cl
ATOM      9  C   UNL     1      -4.329  11.490  16.678  0.00  0.00    +0.000 A 
ATOM     10  C   UNL     1      -4.516  12.093  17.927  0.00  0.00    +0.000 A 
ATOM     11  C   UNL     1      -3.570  12.010  18.989  0.00  0.00    +0.000 A 
ENDROOT
BRANCH   1  16
ATOM     12  C   UNL     1      -7.915  14.797  23.329  0.00  0.00    +0.000 C 
ATOM     13  C   UNL     1      -7.327  14.120  22.093  0.00  0.00    +0.000 C 
ATOM     14  C   UNL     1      -6.744  12.759  22.494  0.00  0.00    +0.000 C 
ATOM     15  C   UNL     1      -6.006  12.101  21.339  0.00  0.00    +0.000 C 
ATOM     16  N   UNL     1      -4.969  13.006  20.818  0.00  0.00    +0.000 N 
ATOM     17  C   UNL     1      -5.529  14.256  20.294  0.00  0.00    +0.000 C 
ATOM     18  C   UNL     1      -6.260  14.998  21.423  0.00  0.00    +0.000 C 
ENDBRANCH   1  16
BRANCH   2  19
ATOM     19  S   UNL     1      -2.493  12.818  22.928  0.00  0.00    +0.000 S 
ATOM     20  O   UNL     1      -3.373  11.944  23.683  0.00  0.00    +0.000 OA
ATOM     21  O   UNL     1      -1.085  12.861  23.285  0.00  0.00    +0.000 OA
BRANCH  19  22
ATOM     22  C   UNL     1      -3.040  14.500  23.165  0.00  0.00    +0.000 A 
ATOM     23  C   UNL     1      -3.908  14.798  24.220  0.00  0.00    +0.000 A 
ATOM     24  C   UNL     1      -4.368  16.108  24.390  0.00  0.00    +0.000 A 
ATOM     25  C   UNL     1      -3.961  17.112  23.507  0.00  0.00    +0.000 A 
ATOM     26  C   UNL     1      -3.089  16.802  22.463  0.00  0.00    +0.000 A 
ATOM     27 CL   UNL     1      -2.595  18.042  21.375  0.00  0.00    +0.000 Cl
ATOM     28  C   UNL     1      -2.620  15.502  22.283  0.00  0.00    +0.000 A 
ENDBRANCH  19  22
ENDBRANCH   2  19
TORSDOF 3
ENDMDL
MODEL 5
REMARK VINA RESULT:      -6.2     10.810     13.497
REMARK  Name = 
REMARK  4 active torsions:
REMARK  status: ('A' for Active; 'I' for Inactive)
REMARK    1  A    between atoms: C_1  and  C_2
REMARK    2  A    between atoms: N_5  and  C_6
REMARK    3  A    between atoms: C_7  and  S_8
REMARK    4  A    between atoms: S_8  and  C_11
REMARK                            x       y       z     vdW  Elec       q    Type
REMARK                         _______ _______ _______ _____ _____    ______ ____
ROOT
ATOM      1  C   UNL     1      -4.033  12.449  20.373  0.00  0.00    +0.000 A 
ATOM      2  C   UNL     1      -5.412  12.417  20.708  0.00  0.00    +0.000 A 
ATOM      3  C   UNL     1      -6.327  11.938  19.780  0.00  0.00    +0.000 A 
ATOM      4  N   UNL     1      -6.008  11.474  18.555  0.00  0.00    +0.000 NA
ATOM      5  C   UNL     1      -4.729  11.478  18.201  0.00  0.00    +0.000 A 
ATOM      6  C   UNL     1      -4.469  11.026  16.914  0.00  0.00    +0.000 A 
ATOM      7  C   UNL     1      -3.178  10.974  16.410  0.00  0.00    +0.000 A 
ATOM      8 CL   UNL     1      -2.894  10.440  14.801  0.00  0.00    +0.000 Cl
ATOM      9  C   UNL     1      -2.118  11.332  17.215  0.00  0.00    +0.000 A 
ATOM     10  C   UNL     1      -2.370  11.754  18.525  0.00  0.00    +0.000 A 
ATOM     11  C   UNL     1      -3.682  11.912  19.061  0.00  0.00    +0.000 A 
ENDROOT
BRANCH   1  16
ATOM     12  C   UNL     1      -1.322  15.374  24.329  0.00  0.00    +0.000 C 
ATOM     13  C   UNL     1      -1.389  14.434  23.128  0.00  0.00    +0.000 C 
ATOM     14  C   UNL     1      -2.070  15.158  21.960  0.00  0.00    +0.000 C 
ATOM     15  C   UNL     1      -2.307  14.227  20.782  0.00  0.00    +0.000 C 
ATOM     16  N   UNL     1      -3.074  13.047  21.214  0.00  0.00    +0.000 N 
ATOM     17  C   UNL     1      -2.366  12.261  22.229  0.00  0.00    +0.000 C 
ATOM     18  C   UNL     1      -2.127  13.132  23.471  0.00  0.00    +0.000 C 
ENDBRANCH   1  16
BRANCH   2  19
ATOM     19  S   UNL     1      -6.187  13.065  22.179  0.00  0.00    +0.000 S 
ATOM     20  O   UNL     1      -7.627  12.995  22.016  0.00  0.00    +0.000 OA
ATOM     21  O   UNL     1      -5.584  12.406  23.326  0.00  0.00    +0.000 OA
BRANCH  19  22
ATOM     22  C   UNL     1      -5.733  14.778  22.390  0.00  0.00    +0.000 A 
ATOM     23  C   UNL     1      -5.754  15.636  21.285  0.00  0.00    +0.000 A 
ATOM     24  C   UNL     1      -5.365  16.971  21.437  0.00  0.00    +0.000 A 
ATOM     25  C   UNL     1      -4.959  17.443  22.689  0.00  0.00    +0.000 A 
ATOM     26  C   UNL     1      -4.950  16.579  23.784  0.00  0.00    +0.000 A 
ATOM     27 CL   UNL     1      -4.442  17.164  25.321  0.00  0.00    +0.000 Cl
ATOM     28  C   UNL     1      -5.337  15.246  23.647  0.00  0.00    +0.000 A 
ENDBRANCH  19  22
ENDBRANCH   2  19
TORSDOF 3
ENDMDL
MODEL 6
REMARK VINA RESULT:      -6.1      8.222     11.986
REMARK  Name = 
REMARK  4 active torsions:
REMARK  status: ('A' for Active; 'I' for Inactive)
REMARK    1  A    between atoms: C_1  and  C_2
REMARK    2  A    between atoms: N_5  and  C_6
REMARK    3  A    between atoms: C_7  and  S_8
REMARK    4  A    between atoms: S_8  and  C_11
REMARK                            x       y       z     vdW  Elec       q    Type
REMARK                         _______ _______ _______ _____ _____    ______ ____
ROOT
ATOM      1  C   UNL     1      -3.279  12.233  19.577  0.00  0.00    +0.000 A 
ATOM      2  C   UNL     1      -2.054  12.864  19.916  0.00  0.00    +0.000 A 
ATOM      3  C   UNL     1      -2.007  13.713  21.015  0.00  0.00    +0.000 A 
ATOM      4  N   UNL     1      -3.054  13.987  21.820  0.00  0.00    +0.000 NA
ATOM      5  C   UNL     1      -4.218  13.412  21.545  0.00  0.00    +0.000 A 
ATOM      6  C   UNL     1      -5.265  13.766  22.385  0.00  0.00    +0.000 A 
ATOM      7  C   UNL     1      -6.539  13.243  22.216  0.00  0.00    +0.000 A 
ATOM      8 CL   UNL     1      -7.821  13.726  23.254  0.00  0.00    +0.000 Cl
ATOM      9  C   UNL     1      -6.767  12.313  21.225  0.00  0.00    +0.000 A 
ATOM     10  C   UNL     1      -5.707  11.926  20.398  0.00  0.00    +0.000 A 
ATOM     11  C   UNL     1      -4.404  12.499  20.470  0.00  0.00    +0.000 A 
ENDROOT
BRANCH   1  16
ATOM     12  C   UNL     1      -2.889  10.048  14.417  0.00  0.00    +0.000 C 
ATOM     13  C   UNL     1      -3.460  10.123  15.831  0.00  0.00    +0.000 C 
ATOM     14  C   UNL     1      -4.100  11.501  16.042  0.00  0.00    +0.000 C 
ATOM     15  C   UNL     1      -4.552  11.697  17.480  0.00  0.00    +0.000 C 
ATOM     16  N   UNL     1      -3.426  11.472  18.401  0.00  0.00    +0.000 N 
ATOM     17  C   UNL     1      -2.896  10.108  18.315  0.00  0.00    +0.000 C 
ATOM     18  C   UNL     1      -2.382   9.851  16.890  0.00  0.00    +0.000 C 
ENDBRANCH   1  16
BRANCH   2  19
ATOM     19  S   UNL     1      -0.522  12.823  19.003  0.00  0.00    +0.000 S 
ATOM     20  O   UNL     1      -0.818  12.969  17.590  0.00  0.00    +0.000 OA
ATOM     21  O   UNL     1       0.390  13.769  19.623  0.00  0.00    +0.000 OA
BRANCH  19  22
ATOM     22  C   UNL     1       0.277  11.246  19.245  0.00  0.00    +0.000 A 
ATOM     23  C   UNL     1       1.029  10.690  18.204  0.00  0.00    +0.000 A 
ATOM     24  C   UNL     1       1.629   9.438  18.375  0.00  0.00    +0.000 A 
ATOM     25  C   UNL     1       1.476   8.748  19.582  0.00  0.00    +0.000 A 
ATOM     26  C   UNL     1       0.729   9.317  20.613  0.00  0.00    +0.000 A 
ATOM     27 CL   UNL     1       0.539   8.460  22.095  0.00  0.00    +0.000 Cl
ATOM     28  C   UNL     1       0.128  10.565  20.458  0.00  0.00    +0.000 A 
ENDBRANCH  19  22
ENDBRANCH   2  19
TORSDOF 3
ENDMDL
MODEL 7
REMARK VINA RESULT:      -6.0     10.959     13.622
REMARK  Name = 
REMARK  4 active torsions:
REMARK  status: ('A' for Active; 'I' for Inactive)
REMARK    1  A    between atoms: C_1  and  C_2
REMARK    2  A    between atoms: N_5  and  C_6
REMARK    3  A    between atoms: C_7  and  S_8
REMARK    4  A    between atoms: S_8  and  C_11
REMARK                            x       y       z     vdW  Elec       q    Type
REMARK                         _______ _______ _______ _____ _____    ______ ____
ROOT
ATOM      1  C   UNL     1      -4.252  12.461  20.434  0.00  0.00    +0.000 A 
ATOM      2  C   UNL     1      -5.637  12.404  20.738  0.00  0.00    +0.000 A 
ATOM      3  C   UNL     1      -6.523  11.921  19.784  0.00  0.00    +0.000 A 
ATOM      4  N   UNL     1      -6.171  11.475  18.562  0.00  0.00    +0.000 NA
ATOM      5  C   UNL     1      -4.884  11.503  18.237  0.00  0.00    +0.000 A 
ATOM      6  C   UNL     1      -4.589  11.069  16.951  0.00  0.00    +0.000 A 
ATOM      7  C   UNL     1      -3.286  11.043  16.476  0.00  0.00    +0.000 A 
ATOM      8 CL   UNL     1      -2.959  10.531  14.868  0.00  0.00    +0.000 Cl
ATOM      9  C   UNL     1      -2.250  11.407  17.308  0.00  0.00    +0.000 A 
ATOM     10  C   UNL     1      -2.538  11.811  18.616  0.00  0.00    +0.000 A 
ATOM     11  C   UNL     1      -3.863  11.943  19.124  0.00  0.00    +0.000 A 
ENDROOT
BRANCH   1  16
ATOM     12  C   UNL     1      -1.672  15.410  24.459  0.00  0.00    +0.000 C 
ATOM     13  C   UNL     1      -1.700  14.462  23.262  0.00  0.00    +0.000 C 
ATOM     14  C   UNL     1      -2.342  15.179  22.067  0.00  0.00    +0.000 C 
ATOM     15  C   UNL     1      -2.540  14.241  20.889  0.00  0.00    +0.000 C 
ATOM     16  N   UNL     1      -3.320  13.064  21.302  0.00  0.00    +0.000 N 
ATOM     17  C   UNL     1      -2.647  12.283  22.344  0.00  0.00    +0.000 C 
ATOM     18  C   UNL     1      -2.448  13.162  23.589  0.00  0.00    +0.000 C 
ENDBRANCH   1  16
BRANCH   2  19
ATOM     19  S   UNL     1      -6.454  13.024  22.198  0.00  0.00    +0.000 S 
ATOM     20  O   UNL     1      -7.888  12.990  21.979  0.00  0.00    +0.000 OA
ATOM     21  O   UNL     1      -5.910  12.317  23.345  0.00  0.00    +0.000 OA
BRANCH  19  22
ATOM     22  C   UNL     1      -5.972  14.719  22.480  0.00  0.00    +0.000 A 
ATOM     23  C   UNL     1      -5.612  15.126  23.769  0.00  0.00    +0.000 A 
ATOM     24  C   UNL     1      -5.267  16.461  24.002  0.00  0.00    +0.000 A 
ATOM     25  C   UNL     1      -5.284  17.382  22.951  0.00  0.00    +0.000 A 
ATOM     26  C   UNL     1      -5.639  16.961  21.669  0.00  0.00    +0.000 A 
ATOM     27 CL   UNL     1      -5.665  18.102  20.379  0.00  0.00    +0.000 Cl
ATOM     28  C   UNL     1      -5.982  15.633  21.421  0.00  0.00    +0.000 A 
ENDBRANCH  19  22
ENDBRANCH   2  19
TORSDOF 3
ENDMDL
MODEL 8
REMARK VINA RESULT:      -6.0      2.202      6.296
REMARK  Name = 
REMARK  4 active torsions:
REMARK  status: ('A' for Active; 'I' for Inactive)
REMARK    1  A    between atoms: C_1  and  C_2
REMARK    2  A    between atoms: N_5  and  C_6
REMARK    3  A    between atoms: C_7  and  S_8
REMARK    4  A    between atoms: S_8  and  C_11
REMARK                            x       y       z     vdW  Elec       q    Type
REMARK                         _______ _______ _______ _____ _____    ______ ____
ROOT
ATOM      1  C   UNL     1       2.761   6.152  18.958  0.00  0.00    +0.000 A 
ATOM      2  C   UNL     1       3.749   5.864  17.980  0.00  0.00    +0.000 A 
ATOM      3  C   UNL     1       4.124   6.853  17.080  0.00  0.00    +0.000 A 
ATOM      4  N   UNL     1       3.626   8.106  17.062  0.00  0.00    +0.000 NA
ATOM      5  C   UNL     1       2.705   8.422  17.963  0.00  0.00    +0.000 A 
ATOM      6  C   UNL     1       2.203   9.713  17.867  0.00  0.00    +0.000 A 
ATOM      7  C   UNL     1       1.235  10.182  18.744  0.00  0.00    +0.000 A 
ATOM      8 CL   UNL     1       0.611  11.775  18.577  0.00  0.00    +0.000 Cl
ATOM      9  C   UNL     1       0.792   9.371  19.766  0.00  0.00    +0.000 A 
ATOM     10  C   UNL     1       1.321   8.082  19.890  0.00  0.00    +0.000 A 
ATOM     11  C   UNL     1       2.248   7.520  18.963  0.00  0.00    +0.000 A 
ENDROOT
BRANCH   1  16
ATOM     12  C   UNL     1       1.782   1.480  21.918  0.00  0.00    +0.000 C 
ATOM     13  C   UNL     1       1.463   2.901  21.460  0.00  0.00    +0.000 C 
ATOM     14  C   UNL     1       1.273   2.907  19.937  0.00  0.00    +0.000 C 
ATOM     15  C   UNL     1       1.104   4.317  19.397  0.00  0.00    +0.000 C 
ATOM     16  N   UNL     1       2.240   5.158  19.809  0.00  0.00    +0.000 N 
ATOM     17  C   UNL     1       2.346   5.282  21.265  0.00  0.00    +0.000 C 
ATOM     18  C   UNL     1       2.559   3.890  21.880  0.00  0.00    +0.000 C 
ENDBRANCH   1  16
BRANCH   2  19
ATOM     19  S   UNL     1       4.516   4.289  17.644  0.00  0.00    +0.000 S 
ATOM     20  O   UNL     1       5.347   3.924  18.777  0.00  0.00    +0.000 OA
ATOM     21  O   UNL     1       3.473   3.368  17.222  0.00  0.00    +0.000 OA
BRANCH  19  22
ATOM     22  C   UNL     1       5.563   4.427  16.206  0.00  0.00    +0.000 A 
ATOM     23  C   UNL     1       6.803   5.067  16.318  0.00  0.00    +0.000 A 
ATOM     24  C   UNL     1       7.613   5.209  15.186  0.00  0.00    +0.000 A 
ATOM     25  C   UNL     1       7.183   4.714  13.951  0.00  0.00    +0.000 A 
ATOM     26  C   UNL     1       5.948   4.073  13.856  0.00  0.00    +0.000 A 
ATOM     27 CL   UNL     1       5.421   3.471  12.331  0.00  0.00    +0.000 Cl
ATOM     28  C   UNL     1       5.131   3.921  14.975  0.00  0.00    +0.000 A 
ENDBRANCH  19  22
ENDBRANCH   2  19
TORSDOF 3
ENDMDL
MODEL 9
REMARK VINA RESULT:      -6.0      2.060      6.140
REMARK  Name = 
REMARK  4 active torsions:
REMARK  status: ('A' for Active; 'I' for Inactive)
REMARK    1  A    between atoms: C_1  and  C_2
REMARK    2  A    between atoms: N_5  and  C_6
REMARK    3  A    between atoms: C_7  and  S_8
REMARK    4  A    between atoms: S_8  and  C_11
REMARK                            x       y       z     vdW  Elec       q    Type
REMARK                         _______ _______ _______ _____ _____    ______ ____
ROOT
ATOM      1  C   UNL     1       3.248   5.706  18.595  0.00  0.00    +0.000 A 
ATOM      2  C   UNL     1       4.277   5.582  17.626  0.00  0.00    +0.000 A 
ATOM      3  C   UNL     1       4.589   6.671  16.821  0.00  0.00    +0.000 A 
ATOM      4  N   UNL     1       3.990   7.877  16.893  0.00  0.00    +0.000 NA
ATOM      5  C   UNL     1       3.027   8.041  17.791  0.00  0.00    +0.000 A 
ATOM      6  C   UNL     1       2.422   9.290  17.788  0.00  0.00    +0.000 A 
ATOM      7  C   UNL     1       1.401   9.604  18.673  0.00  0.00    +0.000 A 
ATOM      8 CL   UNL     1       0.651  11.150  18.622  0.00  0.00    +0.000 Cl
ATOM      9  C   UNL     1       1.004   8.676  19.612  0.00  0.00    +0.000 A 
ATOM     10  C   UNL     1       1.635   7.428  19.643  0.00  0.00    +0.000 A 
ATOM     11  C   UNL     1       2.624   7.023  18.700  0.00  0.00    +0.000 A 
ENDROOT
BRANCH   1  16
ATOM     12  C   UNL     1       0.930   2.299  22.413  0.00  0.00    +0.000 C 
ATOM     13  C   UNL     1       1.704   2.589  21.129  0.00  0.00    +0.000 C 
ATOM     14  C   UNL     1       2.964   3.393  21.472  0.00  0.00    +0.000 C 
ATOM     15  C   UNL     1       3.700   3.848  20.222  0.00  0.00    +0.000 C 
ATOM     16  N   UNL     1       2.792   4.605  19.346  0.00  0.00    +0.000 N 
ATOM     17  C   UNL     1       1.655   3.800  18.888  0.00  0.00    +0.000 C 
ATOM     18  C   UNL     1       0.838   3.337  20.104  0.00  0.00    +0.000 C 
ENDBRANCH   1  16
BRANCH   2  19
ATOM     19  S   UNL     1       5.178   4.108  17.182  0.00  0.00    +0.000 S 
ATOM     20  O   UNL     1       6.285   3.942  18.106  0.00  0.00    +0.000 OA
ATOM     21  O   UNL     1       4.218   3.025  17.046  0.00  0.00    +0.000 OA
BRANCH  19  22
ATOM     22  C   UNL     1       5.847   4.287  15.537  0.00  0.00    +0.000 A 
ATOM     23  C   UNL     1       7.054   4.970  15.357  0.00  0.00    +0.000 A 
ATOM     24  C   UNL     1       7.566   5.144  14.067  0.00  0.00    +0.000 A 
ATOM     25  C   UNL     1       6.872   4.637  12.965  0.00  0.00    +0.000 A 
ATOM     26  C   UNL     1       5.672   3.952  13.159  0.00  0.00    +0.000 A 
ATOM     27 CL   UNL     1       4.818   3.335  11.797  0.00  0.00    +0.000 Cl
ATOM     28  C   UNL     1       5.151   3.768  14.439  0.00  0.00    +0.000 A 
ENDBRANCH  19  22
ENDBRANCH   2  19
TORSDOF 3
ENDMDL
