MODEL 1
REMARK VINA RESULT:      -7.6      0.000      0.000
REMARK  Name = 
REMARK  7 active torsions:
REMARK  status: ('A' for Active; 'I' for Inactive)
REMARK    1  A    between atoms: C_1  and  O_2
REMARK    2  A    between atoms: O_2  and  C_3
REMARK    3  A    between atoms: C_6  and  C_7
REMARK    4  A    between atoms: N_14  and  S_15
REMARK    5  A    between atoms: S_15  and  C_18
REMARK    6  A    between atoms: C_19  and  C_20
REMARK    7  A    between atoms: C_23  and  C_24
REMARK                            x       y       z     vdW  Elec       q    Type
REMARK                         _______ _______ _______ _____ _____    ______ ____
ROOT
ATOM      1  C   UNL     1       0.693   9.928  20.565  0.00  0.00    +0.000 A 
ATOM      2  N   UNL     1       0.399   9.157  21.592  0.00  0.00    +0.000 NA
ATOM      3  N   UNL     1       0.989   7.937  21.338  0.00  0.00    +0.000 NA
ATOM      4  C   UNL     1       1.631   8.057  20.195  0.00  0.00    +0.000 A 
ATOM      5  N   UNL     1       2.258   7.132  19.443  0.00  0.00    +0.000 N 
ATOM      6  C   UNL     1       2.214   5.727  19.850  0.00  0.00    +0.000 C 
ATOM      7  C   UNL     1       2.221   4.825  18.593  0.00  0.00    +0.000 C 
ATOM      8  N   UNL     1       3.354   5.150  17.660  0.00  0.00    +0.000 NA
ATOM      9  C   UNL     1       3.313   6.617  17.306  0.00  0.00    +0.000 C 
ATOM     10  C   UNL     1       3.364   7.509  18.561  0.00  0.00    +0.000 C 
ATOM     11  O   UNL     1       1.505   9.308  19.658  0.00  0.00    +0.000 OA
ENDROOT
BRANCH   1  15
ATOM     12  C   UNL     1      -0.689  13.884  19.732  0.00  0.00    +0.000 A 
ATOM     13  C   UNL     1       0.674  13.587  19.736  0.00  0.00    +0.000 A 
ATOM     14  C   UNL     1       1.116  12.283  19.965  0.00  0.00    +0.000 A 
ATOM     15  C   UNL     1       0.200  11.254  20.217  0.00  0.00    +0.000 A 
ATOM     16  C   UNL     1      -1.168  11.557  20.198  0.00  0.00    +0.000 A 
ATOM     17  C   UNL     1      -1.613  12.866  19.965  0.00  0.00    +0.000 A 
BRANCH  12  19
ATOM     18  C   UNL     1      -0.054  15.951  18.780  0.00  0.00    +0.000 C 
ATOM     19  O   UNL     1      -0.995  15.202  19.539  0.00  0.00    +0.000 OA
ENDBRANCH  12  19
ENDBRANCH   1  15
BRANCH   8  20
ATOM     20  S   UNL     1       4.878   4.548  18.131  0.00  0.00    +0.000 S 
ATOM     21  O   UNL     1       5.201   5.121  19.423  0.00  0.00    +0.000 OA
ATOM     22  O   UNL     1       4.903   3.111  17.926  0.00  0.00    +0.000 OA
BRANCH  20  23
ATOM     23  C   UNL     1       6.078   5.170  17.083  0.00  0.00    +0.000 A 
ATOM     24  C   UNL     1       6.172   5.000  15.677  0.00  0.00    +0.000 A 
ATOM     25  C   UNL     1       5.377   4.191  14.724  0.00  0.00    +0.000 C 
ATOM     26  N   UNL     1       7.209   5.689  15.182  0.00  0.00    +0.000 NA
ATOM     27  O   UNL     1       7.820   6.287  16.258  0.00  0.00    +0.000 OA
ATOM     28  C   UNL     1       7.169   5.956  17.404  0.00  0.00    +0.000 A 
ATOM     29  C   UNL     1       7.790   6.467  18.638  0.00  0.00    +0.000 C 
ENDBRANCH  20  23
ENDBRANCH   8  20
TORSDOF 4
ENDMDL
MODEL 2
REMARK VINA RESULT:      -7.6      3.665     10.395
REMARK  Name = 
REMARK  7 active torsions:
REMARK  status: ('A' for Active; 'I' for Inactive)
REMARK    1  A    between atoms: C_1  and  O_2
REMARK    2  A    between atoms: O_2  and  C_3
REMARK    3  A    between atoms: C_6  and  C_7
REMARK    4  A    between atoms: N_14  and  S_15
REMARK    5  A    between atoms: S_15  and  C_18
REMARK    6  A    between atoms: C_19  and  C_20
REMARK    7  A    between atoms: C_23  and  C_24
REMARK                            x       y       z     vdW  Elec       q    Type
REMARK                         _______ _______ _______ _____ _____    ______ ____
ROOT
ATOM      1  C   UNL     1       2.217   7.975  18.600  0.00  0.00    +0.000 A 
ATOM      2  N   UNL     1       2.123   8.647  17.471  0.00  0.00    +0.000 NA
ATOM      3  N   UNL     1       1.422   9.798  17.765  0.00  0.00    +0.000 NA
ATOM      4  C   UNL     1       1.170   9.769  19.057  0.00  0.00    +0.000 A 
ATOM      5  N   UNL     1       0.412  10.580  19.818  0.00  0.00    +0.000 N 
ATOM      6  C   UNL     1      -0.345  11.660  19.183  0.00  0.00    +0.000 C 
ATOM      7  C   UNL     1      -1.659  11.897  19.964  0.00  0.00    +0.000 C 
ATOM      8  N   UNL     1      -1.423  12.108  21.433  0.00  0.00    +0.000 NA
ATOM      9  C   UNL     1      -0.633  10.947  21.990  0.00  0.00    +0.000 C 
ATOM     10  C   UNL     1       0.699  10.753  21.244  0.00  0.00    +0.000 C 
ATOM     11  O   UNL     1       1.669   8.646  19.657  0.00  0.00    +0.000 OA
ENDROOT
BRANCH   1  15
ATOM     12  C   UNL     1       3.513   3.946  19.179  0.00  0.00    +0.000 A 
ATOM     13  C   UNL     1       3.942   4.685  18.077  0.00  0.00    +0.000 A 
ATOM     14  C   UNL     1       3.550   6.015  17.918  0.00  0.00    +0.000 A 
ATOM     15  C   UNL     1       2.701   6.625  18.850  0.00  0.00    +0.000 A 
ATOM     16  C   UNL     1       2.285   5.880  19.962  0.00  0.00    +0.000 A 
ATOM     17  C   UNL     1       2.680   4.545  20.124  0.00  0.00    +0.000 A 
BRANCH  12  19
ATOM     18  C   UNL     1       3.362   1.798  18.208  0.00  0.00    +0.000 C 
ATOM     19  O   UNL     1       3.927   2.644  19.201  0.00  0.00    +0.000 OA
ENDBRANCH  12  19
ENDBRANCH   1  15
BRANCH   8  20
ATOM     20  S   UNL     1      -0.858  13.658  21.864  0.00  0.00    +0.000 S 
ATOM     21  O   UNL     1       0.517  13.521  22.303  0.00  0.00    +0.000 OA
ATOM     22  O   UNL     1      -1.217  14.599  20.819  0.00  0.00    +0.000 OA
BRANCH  20  23
ATOM     23  C   UNL     1      -1.692  14.196  23.257  0.00  0.00    +0.000 A 
ATOM     24  C   UNL     1      -2.880  13.657  23.815  0.00  0.00    +0.000 A 
ATOM     25  C   UNL     1      -3.796  12.589  23.350  0.00  0.00    +0.000 C 
ATOM     26  N   UNL     1      -3.206  14.294  24.949  0.00  0.00    +0.000 NA
ATOM     27  O   UNL     1      -2.257  15.273  25.123  0.00  0.00    +0.000 OA
ATOM     28  C   UNL     1      -1.365  15.241  24.098  0.00  0.00    +0.000 A 
ATOM     29  C   UNL     1      -0.349  16.308  24.131  0.00  0.00    +0.000 C 
ENDBRANCH  20  23
ENDBRANCH   8  20
TORSDOF 4
ENDMDL
MODEL 3
REMARK VINA RESULT:      -7.5      3.708     10.455
REMARK  Name = 
REMARK  7 active torsions:
REMARK  status: ('A' for Active; 'I' for Inactive)
REMARK    1  A    between atoms: C_1  and  O_2
REMARK    2  A    between atoms: O_2  and  C_3
REMARK    3  A    between atoms: C_6  and  C_7
REMARK    4  A    between atoms: N_14  and  S_15
REMARK    5  A    between atoms: S_15  and  C_18
REMARK    6  A    between atoms: C_19  and  C_20
REMARK    7  A    between atoms: C_23  and  C_24
REMARK                            x       y       z     vdW  Elec       q    Type
REMARK                         _______ _______ _______ _____ _____    ______ ____
ROOT
ATOM      1  C   UNL     1       2.247   8.008  18.492  0.00  0.00    +0.000 A 
ATOM      2  N   UNL     1       2.280   8.732  17.392  0.00  0.00    +0.000 NA
ATOM      3  N   UNL     1       1.631   9.913  17.689  0.00  0.00    +0.000 NA
ATOM      4  C   UNL     1       1.281   9.844  18.956  0.00  0.00    +0.000 A 
ATOM      5  N   UNL     1       0.519  10.671  19.698  0.00  0.00    +0.000 N 
ATOM      6  C   UNL     1      -0.118  11.824  19.062  0.00  0.00    +0.000 C 
ATOM      7  C   UNL     1      -1.470  12.113  19.756  0.00  0.00    +0.000 C 
ATOM      8  N   UNL     1      -1.334  12.244  21.246  0.00  0.00    +0.000 NA
ATOM      9  C   UNL     1      -0.662  11.011  21.803  0.00  0.00    +0.000 C 
ATOM     10  C   UNL     1       0.709  10.763  21.148  0.00  0.00    +0.000 C 
ATOM     11  O   UNL     1       1.663   8.667  19.537  0.00  0.00    +0.000 OA
ENDROOT
BRANCH   1  15
ATOM     12  C   UNL     1       3.494   3.998  19.278  0.00  0.00    +0.000 A 
ATOM     13  C   UNL     1       2.697   4.692  20.189  0.00  0.00    +0.000 A 
ATOM     14  C   UNL     1       2.256   5.986  19.905  0.00  0.00    +0.000 A 
ATOM     15  C   UNL     1       2.625   6.619  18.711  0.00  0.00    +0.000 A 
ATOM     16  C   UNL     1       3.415   5.910  17.795  0.00  0.00    +0.000 A 
ATOM     17  C   UNL     1       3.855   4.609  18.078  0.00  0.00    +0.000 A 
BRANCH  12  19
ATOM     18  C   UNL     1       3.635   1.693  18.783  0.00  0.00    +0.000 C 
ATOM     19  O   UNL     1       3.897   2.758  19.688  0.00  0.00    +0.000 OA
ENDBRANCH  12  19
ENDBRANCH   1  15
BRANCH   8  20
ATOM     20  S   UNL     1      -0.707  13.734  21.791  0.00  0.00    +0.000 S 
ATOM     21  O   UNL     1       0.652  13.505  22.239  0.00  0.00    +0.000 OA
ATOM     22  O   UNL     1      -1.005  14.759  20.808  0.00  0.00    +0.000 OA
BRANCH  20  23
ATOM     23  C   UNL     1      -1.541  14.213  23.205  0.00  0.00    +0.000 A 
ATOM     24  C   UNL     1      -1.271  15.336  24.030  0.00  0.00    +0.000 A 
ATOM     25  C   UNL     1      -0.181  16.339  24.008  0.00  0.00    +0.000 C 
ATOM     26  N   UNL     1      -2.176  15.433  25.014  0.00  0.00    +0.000 NA
ATOM     27  O   UNL     1      -3.024  14.362  24.861  0.00  0.00    +0.000 OA
ATOM     28  C   UNL     1      -2.632  13.609  23.800  0.00  0.00    +0.000 A 
ATOM     29  C   UNL     1      -3.416  12.379  23.593  0.00  0.00    +0.000 C 
ENDBRANCH  20  23
ENDBRANCH   8  20
TORSDOF 4
ENDMDL
MODEL 4
REMARK VINA RESULT:      -7.5      3.592     10.486
REMARK  Name = 
REMARK  7 active torsions:
REMARK  status: ('A' for Active; 'I' for Inactive)
REMARK    1  A    between atoms: C_1  and  O_2
REMARK    2  A    between atoms: O_2  and  C_3
REMARK    3  A    between atoms: C_6  and  C_7
REMARK    4  A    between atoms: N_14  and  S_15
REMARK    5  A    between atoms: S_15  and  C_18
REMARK    6  A    between atoms: C_19  and  C_20
REMARK    7  A    between atoms: C_23  and  C_24
REMARK                            x       y       z     vdW  Elec       q    Type
REMARK                         _______ _______ _______ _____ _____    ______ ____
ROOT
ATOM      1  C   UNL     1       2.345   7.895  18.542  0.00  0.00    +0.000 A 
ATOM      2  N   UNL     1       2.346   8.564  17.407  0.00  0.00    +0.000 NA
ATOM      3  N   UNL     1       1.641   9.726  17.645  0.00  0.00    +0.000 NA
ATOM      4  C   UNL     1       1.291   9.704  18.914  0.00  0.00    +0.000 A 
ATOM      5  N   UNL     1       0.489  10.528  19.614  0.00  0.00    +0.000 N 
ATOM      6  C   UNL     1      -0.202  11.616  18.920  0.00  0.00    +0.000 C 
ATOM      7  C   UNL     1      -1.568  11.874  19.599  0.00  0.00    +0.000 C 
ATOM      8  N   UNL     1      -1.442  12.086  21.081  0.00  0.00    +0.000 NA
ATOM      9  C   UNL     1      -0.713  10.917  21.699  0.00  0.00    +0.000 C 
ATOM     10  C   UNL     1       0.669  10.702  21.057  0.00  0.00    +0.000 C 
ATOM     11  O   UNL     1       1.728   8.577  19.553  0.00  0.00    +0.000 OA
ENDROOT
BRANCH   1  15
ATOM     12  C   UNL     1       3.517   3.847  19.243  0.00  0.00    +0.000 A 
ATOM     13  C   UNL     1       3.928   4.523  18.095  0.00  0.00    +0.000 A 
ATOM     14  C   UNL     1       3.578   5.860  17.893  0.00  0.00    +0.000 A 
ATOM     15  C   UNL     1       2.790   6.539  18.831  0.00  0.00    +0.000 A 
ATOM     16  C   UNL     1       2.392   5.857  19.989  0.00  0.00    +0.000 A 
ATOM     17  C   UNL     1       2.746   4.516  20.193  0.00  0.00    +0.000 A 
BRANCH  12  19
ATOM     18  C   UNL     1       3.395   1.703  18.260  0.00  0.00    +0.000 C 
ATOM     19  O   UNL     1       3.885   2.533  19.306  0.00  0.00    +0.000 OA
ENDBRANCH  12  19
ENDBRANCH   1  15
BRANCH   8  20
ATOM     20  S   UNL     1      -0.889  13.629  21.550  0.00  0.00    +0.000 S 
ATOM     21  O   UNL     1       0.226  13.443  22.456  0.00  0.00    +0.000 OA
ATOM     22  O   UNL     1      -0.760  14.464  20.370  0.00  0.00    +0.000 OA
BRANCH  20  23
ATOM     23  C   UNL     1      -2.086  14.390  22.507  0.00  0.00    +0.000 A 
ATOM     24  C   UNL     1      -2.310  15.782  22.668  0.00  0.00    +0.000 A 
ATOM     25  C   UNL     1      -1.564  16.966  22.181  0.00  0.00    +0.000 C 
ATOM     26  N   UNL     1      -3.381  16.007  23.442  0.00  0.00    +0.000 NA
ATOM     27  O   UNL     1      -3.846  14.770  23.819  0.00  0.00    +0.000 OA
ATOM     28  C   UNL     1      -3.058  13.797  23.290  0.00  0.00    +0.000 A 
ATOM     29  C   UNL     1      -3.408  12.427  23.703  0.00  0.00    +0.000 C 
ENDBRANCH  20  23
ENDBRANCH   8  20
TORSDOF 4
ENDMDL
MODEL 5
REMARK VINA RESULT:      -7.4      3.668     10.414
REMARK  Name = 
REMARK  7 active torsions:
REMARK  status: ('A' for Active; 'I' for Inactive)
REMARK    1  A    between atoms: C_1  and  O_2
REMARK    2  A    between atoms: O_2  and  C_3
REMARK    3  A    between atoms: C_6  and  C_7
REMARK    4  A    between atoms: N_14  and  S_15
REMARK    5  A    between atoms: S_15  and  C_18
REMARK    6  A    between atoms: C_19  and  C_20
REMARK    7  A    between atoms: C_23  and  C_24
REMARK                            x       y       z     vdW  Elec       q    Type
REMARK                         _______ _______ _______ _____ _____    ______ ____
ROOT
ATOM      1  C   UNL     1       2.470   8.082  18.385  0.00  0.00    +0.000 A 
ATOM      2  N   UNL     1       2.323   8.814  17.299  0.00  0.00    +0.000 NA
ATOM      3  N   UNL     1       1.516   9.874  17.657  0.00  0.00    +0.000 NA
ATOM      4  C   UNL     1       1.257   9.738  18.941  0.00  0.00    +0.000 A 
ATOM      5  N   UNL     1       0.421  10.425  19.741  0.00  0.00    +0.000 N 
ATOM      6  C   UNL     1      -0.426  11.470  19.165  0.00  0.00    +0.000 C 
ATOM      7  C   UNL     1      -1.763  11.535  19.942  0.00  0.00    +0.000 C 
ATOM      8  N   UNL     1      -1.560  11.670  21.424  0.00  0.00    +0.000 NA
ATOM      9  C   UNL     1      -0.671  10.553  21.917  0.00  0.00    +0.000 C 
ATOM     10  C   UNL     1       0.680  10.531  21.179  0.00  0.00    +0.000 C 
ATOM     11  O   UNL     1       1.853   8.629  19.474  0.00  0.00    +0.000 OA
ENDROOT
BRANCH   1  15
ATOM     12  C   UNL     1       4.356   4.305  19.039  0.00  0.00    +0.000 A 
ATOM     13  C   UNL     1       3.392   4.787  19.924  0.00  0.00    +0.000 A 
ATOM     14  C   UNL     1       2.748   6.001  19.680  0.00  0.00    +0.000 A 
ATOM     15  C   UNL     1       3.074   6.768  18.554  0.00  0.00    +0.000 A 
ATOM     16  C   UNL     1       4.034   6.270  17.662  0.00  0.00    +0.000 A 
ATOM     17  C   UNL     1       4.679   5.049  17.905  0.00  0.00    +0.000 A 
BRANCH  12  19
ATOM     18  C   UNL     1       4.139   2.248  20.180  0.00  0.00    +0.000 C 
ATOM     19  O   UNL     1       4.946   3.128  19.408  0.00  0.00    +0.000 OA
ENDBRANCH  12  19
ENDBRANCH   1  15
BRANCH   8  20
ATOM     20  S   UNL     1      -1.144  13.234  21.961  0.00  0.00    +0.000 S 
ATOM     21  O   UNL     1       0.040  13.117  22.790  0.00  0.00    +0.000 OA
ATOM     22  O   UNL     1      -1.177  14.146  20.832  0.00  0.00    +0.000 OA
BRANCH  20  23
ATOM     23  C   UNL     1      -2.351  13.803  23.031  0.00  0.00    +0.000 A 
ATOM     24  C   UNL     1      -3.745  13.538  22.982  0.00  0.00    +0.000 A 
ATOM     25  C   UNL     1      -4.580  12.818  21.993  0.00  0.00    +0.000 C 
ATOM     26  N   UNL     1      -4.373  14.098  24.026  0.00  0.00    +0.000 NA
ATOM     27  O   UNL     1      -3.406  14.758  24.746  0.00  0.00    +0.000 OA
ATOM     28  C   UNL     1      -2.198  14.613  24.140  0.00  0.00    +0.000 A 
ATOM     29  C   UNL     1      -1.095  15.357  24.774  0.00  0.00    +0.000 C 
ENDBRANCH  20  23
ENDBRANCH   8  20
TORSDOF 4
ENDMDL
MODEL 6
REMARK VINA RESULT:      -7.4      3.436     10.411
REMARK  Name = 
REMARK  7 active torsions:
REMARK  status: ('A' for Active; 'I' for Inactive)
REMARK    1  A    between atoms: C_1  and  O_2
REMARK    2  A    between atoms: O_2  and  C_3
REMARK    3  A    between atoms: C_6  and  C_7
REMARK    4  A    between atoms: N_14  and  S_15
REMARK    5  A    between atoms: S_15  and  C_18
REMARK    6  A    between atoms: C_19  and  C_20
REMARK    7  A    between atoms: C_23  and  C_24
REMARK                            x       y       z     vdW  Elec       q    Type
REMARK                         _______ _______ _______ _____ _____    ______ ____
ROOT
ATOM      1  C   UNL     1       2.480   7.727  18.387  0.00  0.00    +0.000 A 
ATOM      2  N   UNL     1       2.578   8.514  17.334  0.00  0.00    +0.000 NA
ATOM      3  N   UNL     1       1.884   9.664  17.648  0.00  0.00    +0.000 NA
ATOM      4  C   UNL     1       1.444   9.517  18.881  0.00  0.00    +0.000 A 
ATOM      5  N   UNL     1       0.612  10.286  19.609  0.00  0.00    +0.000 N 
ATOM      6  C   UNL     1      -0.002  11.463  18.992  0.00  0.00    +0.000 C 
ATOM      7  C   UNL     1      -1.407  11.688  19.600  0.00  0.00    +0.000 C 
ATOM      8  N   UNL     1      -1.382  11.736  21.101  0.00  0.00    +0.000 NA
ATOM      9  C   UNL     1      -0.726  10.485  21.637  0.00  0.00    +0.000 C 
ATOM     10  C   UNL     1       0.693  10.298  21.071  0.00  0.00    +0.000 C 
ATOM     11  O   UNL     1       1.808   8.315  19.421  0.00  0.00    +0.000 OA
ENDROOT
BRANCH   1  15
ATOM     12  C   UNL     1       3.752   3.702  19.039  0.00  0.00    +0.000 A 
ATOM     13  C   UNL     1       2.873   4.327  19.922  0.00  0.00    +0.000 A 
ATOM     14  C   UNL     1       2.426   5.627  19.679  0.00  0.00    +0.000 A 
ATOM     15  C   UNL     1       2.872   6.335  18.556  0.00  0.00    +0.000 A 
ATOM     16  C   UNL     1       3.745   5.695  17.665  0.00  0.00    +0.000 A 
ATOM     17  C   UNL     1       4.191   4.388  17.907  0.00  0.00    +0.000 A 
BRANCH  12  19
ATOM     18  C   UNL     1       3.660   1.382  18.604  0.00  0.00    +0.000 C 
ATOM     19  O   UNL     1       4.150   2.447  19.408  0.00  0.00    +0.000 OA
ENDBRANCH  12  19
ENDBRANCH   1  15
BRANCH   8  20
ATOM     20  S   UNL     1      -0.829  13.203  21.773  0.00  0.00    +0.000 S 
ATOM     21  O   UNL     1      -0.243  12.905  23.065  0.00  0.00    +0.000 OA
ATOM     22  O   UNL     1      -0.081  13.931  20.765  0.00  0.00    +0.000 OA
BRANCH  20  23
ATOM     23  C   UNL     1      -2.172  14.197  22.139  0.00  0.00    +0.000 A 
ATOM     24  C   UNL     1      -3.234  13.920  23.039  0.00  0.00    +0.000 A 
ATOM     25  C   UNL     1      -3.571  12.712  23.829  0.00  0.00    +0.000 C 
ATOM     26  N   UNL     1      -4.074  14.961  23.121  0.00  0.00    +0.000 NA
ATOM     27  O   UNL     1      -3.590  15.912  22.254  0.00  0.00    +0.000 OA
ATOM     28  C   UNL     1      -2.470  15.450  21.639  0.00  0.00    +0.000 A 
ATOM     29  C   UNL     1      -1.911  16.351  20.616  0.00  0.00    +0.000 C 
ENDBRANCH  20  23
ENDBRANCH   8  20
TORSDOF 4
ENDMDL
MODEL 7
REMARK VINA RESULT:      -7.4      3.329     10.096
REMARK  Name = 
REMARK  7 active torsions:
REMARK  status: ('A' for Active; 'I' for Inactive)
REMARK    1  A    between atoms: C_1  and  O_2
REMARK    2  A    between atoms: O_2  and  C_3
REMARK    3  A    between atoms: C_6  and  C_7
REMARK    4  A    between atoms: N_14  and  S_15
REMARK    5  A    between atoms: S_15  and  C_18
REMARK    6  A    between atoms: C_19  and  C_20
REMARK    7  A    between atoms: C_23  and  C_24
REMARK                            x       y       z     vdW  Elec       q    Type
REMARK                         _______ _______ _______ _____ _____    ______ ____
ROOT
ATOM      1  C   UNL     1       2.345   7.763  18.423  0.00  0.00    +0.000 A 
ATOM      2  N   UNL     1       2.324   8.538  17.358  0.00  0.00    +0.000 NA
ATOM      3  N   UNL     1       1.682   9.698  17.739  0.00  0.00    +0.000 NA
ATOM      4  C   UNL     1       1.391   9.569  19.016  0.00  0.00    +0.000 A 
ATOM      5  N   UNL     1       0.659  10.354  19.829  0.00  0.00    +0.000 N 
ATOM      6  C   UNL     1      -0.014  11.530  19.277  0.00  0.00    +0.000 C 
ATOM      7  C   UNL     1      -1.334  11.776  20.044  0.00  0.00    +0.000 C 
ATOM      8  N   UNL     1      -1.131  11.839  21.531  0.00  0.00    +0.000 NA
ATOM      9  C   UNL     1      -0.427  10.587  21.999  0.00  0.00    +0.000 C 
ATOM     10  C   UNL     1       0.914  10.380  21.271  0.00  0.00    +0.000 C 
ATOM     11  O   UNL     1       1.806   8.369  19.523  0.00  0.00    +0.000 OA
ENDROOT
BRANCH   1  15
ATOM     12  C   UNL     1       3.637   3.730  18.979  0.00  0.00    +0.000 A 
ATOM     13  C   UNL     1       2.787   4.343  19.899  0.00  0.00    +0.000 A 
ATOM     14  C   UNL     1       2.333   5.646  19.689  0.00  0.00    +0.000 A 
ATOM     15  C   UNL     1       2.742   6.369  18.560  0.00  0.00    +0.000 A 
ATOM     16  C   UNL     1       3.585   5.741  17.633  0.00  0.00    +0.000 A 
ATOM     17  C   UNL     1       4.039   4.431  17.843  0.00  0.00    +0.000 A 
BRANCH  12  19
ATOM     18  C   UNL     1       3.612   1.426  18.456  0.00  0.00    +0.000 C 
ATOM     19  O   UNL     1       4.047   2.470  19.318  0.00  0.00    +0.000 OA
ENDBRANCH  12  19
ENDBRANCH   1  15
BRANCH   8  20
ATOM     20  S   UNL     1      -0.489  13.307  22.115  0.00  0.00    +0.000 S 
ATOM     21  O   UNL     1      -0.860  13.428  23.511  0.00  0.00    +0.000 OA
ATOM     22  O   UNL     1       0.898  13.415  21.700  0.00  0.00    +0.000 OA
BRANCH  20  23
ATOM     23  C   UNL     1      -1.287  14.614  21.353  0.00  0.00    +0.000 A 
ATOM     24  C   UNL     1      -2.598  15.094  21.608  0.00  0.00    +0.000 A 
ATOM     25  C   UNL     1      -3.683  14.591  22.483  0.00  0.00    +0.000 C 
ATOM     26  N   UNL     1      -2.861  16.179  20.866  0.00  0.00    +0.000 NA
ATOM     27  O   UNL     1      -1.742  16.398  20.099  0.00  0.00    +0.000 OA
ATOM     28  C   UNL     1      -0.807  15.447  20.361  0.00  0.00    +0.000 A 
ATOM     29  C   UNL     1       0.405  15.527  19.528  0.00  0.00    +0.000 C 
ENDBRANCH  20  23
ENDBRANCH   8  20
TORSDOF 4
ENDMDL
MODEL 8
REMARK VINA RESULT:      -7.3      3.604     10.532
REMARK  Name = 
REMARK  7 active torsions:
REMARK  status: ('A' for Active; 'I' for Inactive)
REMARK    1  A    between atoms: C_1  and  O_2
REMARK    2  A    between atoms: O_2  and  C_3
REMARK    3  A    between atoms: C_6  and  C_7
REMARK    4  A    between atoms: N_14  and  S_15
REMARK    5  A    between atoms: S_15  and  C_18
REMARK    6  A    between atoms: C_19  and  C_20
REMARK    7  A    between atoms: C_23  and  C_24
REMARK                            x       y       z     vdW  Elec       q    Type
REMARK                         _______ _______ _______ _____ _____    ______ ____
ROOT
ATOM      1  C   UNL     1       2.208   8.105  18.523  0.00  0.00    +0.000 A 
ATOM      2  N   UNL     1       2.118   8.869  17.453  0.00  0.00    +0.000 NA
ATOM      3  N   UNL     1       1.377   9.970  17.828  0.00  0.00    +0.000 NA
ATOM      4  C   UNL     1       1.099   9.823  19.106  0.00  0.00    +0.000 A 
ATOM      5  N   UNL     1       0.301  10.545  19.916  0.00  0.00    +0.000 N 
ATOM      6  C   UNL     1      -0.473  11.654  19.358  0.00  0.00    +0.000 C 
ATOM      7  C   UNL     1      -1.809  11.787  20.126  0.00  0.00    +0.000 C 
ATOM      8  N   UNL     1      -1.611  11.877  21.612  0.00  0.00    +0.000 NA
ATOM      9  C   UNL     1      -0.799  10.695  22.086  0.00  0.00    +0.000 C 
ATOM     10  C   UNL     1       0.554  10.603  21.358  0.00  0.00    +0.000 C 
ATOM     11  O   UNL     1       1.619   8.668  19.620  0.00  0.00    +0.000 OA
ENDROOT
BRANCH   1  15
ATOM     12  C   UNL     1       3.615   4.080  18.781  0.00  0.00    +0.000 A 
ATOM     13  C   UNL     1       4.076   4.937  17.783  0.00  0.00    +0.000 A 
ATOM     14  C   UNL     1       3.646   6.264  17.730  0.00  0.00    +0.000 A 
ATOM     15  C   UNL     1       2.726   6.752  18.667  0.00  0.00    +0.000 A 
ATOM     16  C   UNL     1       2.278   5.888  19.677  0.00  0.00    +0.000 A 
ATOM     17  C   UNL     1       2.712   4.556  19.731  0.00  0.00    +0.000 A 
BRANCH  12  19
ATOM     18  C   UNL     1       3.091   1.802  18.443  0.00  0.00    +0.000 C 
ATOM     19  O   UNL     1       4.074   2.795  18.701  0.00  0.00    +0.000 OA
ENDBRANCH  12  19
ENDBRANCH   1  15
BRANCH   8  20
ATOM     20  S   UNL     1      -1.100  13.399  22.186  0.00  0.00    +0.000 S 
ATOM     21  O   UNL     1      -0.417  13.190  23.448  0.00  0.00    +0.000 OA
ATOM     22  O   UNL     1      -0.461  14.123  21.103  0.00  0.00    +0.000 OA
BRANCH  20  23
ATOM     23  C   UNL     1      -2.471  14.334  22.601  0.00  0.00    +0.000 A 
ATOM     24  C   UNL     1      -3.517  13.987  23.496  0.00  0.00    +0.000 A 
ATOM     25  C   UNL     1      -3.810  12.738  24.237  0.00  0.00    +0.000 C 
ATOM     26  N   UNL     1      -4.389  14.997  23.625  0.00  0.00    +0.000 NA
ATOM     27  O   UNL     1      -3.942  15.997  22.796  0.00  0.00    +0.000 OA
ATOM     28  C   UNL     1      -2.812  15.597  22.155  0.00  0.00    +0.000 A 
ATOM     29  C   UNL     1      -2.290  16.556  21.166  0.00  0.00    +0.000 C 
ENDBRANCH  20  23
ENDBRANCH   8  20
TORSDOF 4
ENDMDL
MODEL 9
REMARK VINA RESULT:      -7.3      3.307     10.099
REMARK  Name = 
REMARK  7 active torsions:
REMARK  status: ('A' for Active; 'I' for Inactive)
REMARK    1  A    between atoms: C_1  and  O_2
REMARK    2  A    between atoms: O_2  and  C_3
REMARK    3  A    between atoms: C_6  and  C_7
REMARK    4  A    between atoms: N_14  and  S_15
REMARK    5  A    between atoms: S_15  and  C_18
REMARK    6  A    between atoms: C_19  and  C_20
REMARK    7  A    between atoms: C_23  and  C_24
REMARK                            x       y       z     vdW  Elec       q    Type
REMARK                         _______ _______ _______ _____ _____    ______ ____
ROOT
ATOM      1  C   UNL     1       2.407   7.817  18.364  0.00  0.00    +0.000 A 
ATOM      2  N   UNL     1       2.364   8.609  17.311  0.00  0.00    +0.000 NA
ATOM      3  N   UNL     1       1.703   9.750  17.716  0.00  0.00    +0.000 NA
ATOM      4  C   UNL     1       1.422   9.594  18.993  0.00  0.00    +0.000 A 
ATOM      5  N   UNL     1       0.680  10.351  19.823  0.00  0.00    +0.000 N 
ATOM      6  C   UNL     1      -0.018  11.523  19.294  0.00  0.00    +0.000 C 
ATOM      7  C   UNL     1      -1.338  11.731  20.073  0.00  0.00    +0.000 C 
ATOM      8  N   UNL     1      -1.127  11.773  21.560  0.00  0.00    +0.000 NA
ATOM      9  C   UNL     1      -0.396  10.528  22.003  0.00  0.00    +0.000 C 
ATOM     10  C   UNL     1       0.944  10.359  21.264  0.00  0.00    +0.000 C 
ATOM     11  O   UNL     1       1.863   8.394  19.477  0.00  0.00    +0.000 OA
ENDROOT
BRANCH   1  15
ATOM     12  C   UNL     1       3.766   3.797  18.856  0.00  0.00    +0.000 A 
ATOM     13  C   UNL     1       2.834   4.350  19.734  0.00  0.00    +0.000 A 
ATOM     14  C   UNL     1       2.361   5.650  19.541  0.00  0.00    +0.000 A 
ATOM     15  C   UNL     1       2.831   6.429  18.476  0.00  0.00    +0.000 A 
ATOM     16  C   UNL     1       3.758   5.860  17.590  0.00  0.00    +0.000 A 
ATOM     17  C   UNL     1       4.231   4.555  17.782  0.00  0.00    +0.000 A 
BRANCH  12  19
ATOM     18  C   UNL     1       3.563   1.478  18.456  0.00  0.00    +0.000 C 
ATOM     19  O   UNL     1       4.185   2.536  19.175  0.00  0.00    +0.000 OA
ENDBRANCH  12  19
ENDBRANCH   1  15
BRANCH   8  20
ATOM     20  S   UNL     1      -0.509  13.244  22.165  0.00  0.00    +0.000 S 
ATOM     21  O   UNL     1      -0.873  13.334  23.565  0.00  0.00    +0.000 OA
ATOM     22  O   UNL     1       0.872  13.385  21.743  0.00  0.00    +0.000 OA
BRANCH  20  23
ATOM     23  C   UNL     1      -1.337  14.547  21.429  0.00  0.00    +0.000 A 
ATOM     24  C   UNL     1      -0.811  15.507  20.525  0.00  0.00    +0.000 A 
ATOM     25  C   UNL     1       0.564  15.751  20.033  0.00  0.00    +0.000 C 
ATOM     26  N   UNL     1      -1.772  16.340  20.103  0.00  0.00    +0.000 NA
ATOM     27  O   UNL     1      -2.923  15.956  20.748  0.00  0.00    +0.000 OA
ATOM     28  C   UNL     1      -2.665  14.904  21.569  0.00  0.00    +0.000 A 
ATOM     29  C   UNL     1      -3.809  14.462  22.385  0.00  0.00    +0.000 C 
ENDBRANCH  20  23
ENDBRANCH   8  20
TORSDOF 4
ENDMDL
