MODEL 1
REMARK VINA RESULT:      -7.3      0.000      0.000
REMARK  Name = 
REMARK  9 active torsions:
REMARK  status: ('A' for Active; 'I' for Inactive)
REMARK    1  A    between atoms: C_1  and  C_2
REMARK    2  A    between atoms: C_2  and  C_3
REMARK    3  A    between atoms: C_5  and  C_6
REMARK    4  A    between atoms: C_6  and  N_7
REMARK    5  A    between atoms: N_7  and  C_8
REMARK    6  A    between atoms: N_7  and  C_9
REMARK    7  A    between atoms: N_12  and  C_13
REMARK    8  A    between atoms: C_13  and  C_14
REMARK    9  A    between atoms: C_14  and  N_15
REMARK                            x       y       z     vdW  Elec       q    Type
REMARK                         _______ _______ _______ _____ _____    ______ ____
ROOT
ATOM      1  C   UNL     1       5.197   4.831  16.521  0.00  0.00    +0.000 C 
ATOM      2  C   UNL     1       4.919   6.312  16.237  0.00  0.00    +0.000 C 
ATOM      3  C   UNL     1       4.917   6.955  17.606  0.00  0.00    +0.000 C 
ATOM      4  N   UNL     1       4.219   5.997  18.474  0.00  0.00    +0.000 NA
ATOM      5  C   UNL     1       4.548   4.665  17.925  0.00  0.00    +0.000 C 
ENDROOT
BRANCH   1   6
ATOM      6  N   UNL     1       6.624   4.398  16.505  0.00  0.00    +0.000 NA
ATOM      7  C   UNL     1       7.272   4.619  17.806  0.00  0.00    +0.000 C 
BRANCH   6   8
ATOM      8  C   UNL     1       7.359   5.158  15.449  0.00  0.00    +0.000 C 
BRANCH   8  11
ATOM      9  C   UNL     1       6.260   3.559  12.504  0.00  0.00    +0.000 A 
ATOM     10  N   UNL     1       6.148   3.706  13.802  0.00  0.00    +0.000 NA
ATOM     11  C   UNL     1       7.039   4.725  14.054  0.00  0.00    +0.000 A 
ATOM     12  N   UNL     1       7.680   5.189  12.968  0.00  0.00    +0.000 NA
ATOM     13  O   UNL     1       7.153   4.416  11.929  0.00  0.00    +0.000 OA
BRANCH   9  15
ATOM     14  C   UNL     1       4.225   3.033  11.185  0.00  0.00    +0.000 C 
ATOM     15  C   UNL     1       5.603   2.571  11.619  0.00  0.00    +0.000 C 
ENDBRANCH   9  15
ENDBRANCH   8  11
ENDBRANCH   6   8
ENDBRANCH   1   6
BRANCH   4  16
ATOM     16  C   UNL     1       2.770   6.243  18.548  0.00  0.00    +0.000 C 
BRANCH  16  17
ATOM     17  C   UNL     1       2.236   6.152  19.983  0.00  0.00    +0.000 C 
BRANCH  17  18
ATOM     18  N   UNL     1       1.933   4.786  20.354  0.00  0.00    +0.000 N 
ATOM     19  C   UNL     1       1.146   3.909  19.669  0.00  0.00    +0.000 A 
ATOM     20  C   UNL     1       1.105   2.763  20.427  0.00  0.00    +0.000 A 
ATOM     21  C   UNL     1       1.901   3.050  21.551  0.00  0.00    +0.000 A 
ATOM     22  N   UNL     1       2.417   4.279  21.506  0.00  0.00    +0.000 NA
ENDBRANCH  17  18
ENDBRANCH  16  17
ENDBRANCH   4  16
TORSDOF 7
ENDMDL
MODEL 2
REMARK VINA RESULT:      -7.3      1.443      2.394
REMARK  Name = 
REMARK  9 active torsions:
REMARK  status: ('A' for Active; 'I' for Inactive)
REMARK    1  A    between atoms: C_1  and  C_2
REMARK    2  A    between atoms: C_2  and  C_3
REMARK    3  A    between atoms: C_5  and  C_6
REMARK    4  A    between atoms: C_6  and  N_7
REMARK    5  A    between atoms: N_7  and  C_8
REMARK    6  A    between atoms: N_7  and  C_9
REMARK    7  A    between atoms: N_12  and  C_13
REMARK    8  A    between atoms: C_13  and  C_14
REMARK    9  A    between atoms: C_14  and  N_15
REMARK                            x       y       z     vdW  Elec       q    Type
REMARK                         _______ _______ _______ _____ _____    ______ ____
ROOT
ATOM      1  C   UNL     1       5.139   4.588  17.764  0.00  0.00    +0.000 C 
ATOM      2  C   UNL     1       5.083   4.096  19.215  0.00  0.00    +0.000 C 
ATOM      3  C   UNL     1       4.652   2.652  19.096  0.00  0.00    +0.000 C 
ATOM      4  N   UNL     1       3.631   2.645  18.041  0.00  0.00    +0.000 NA
ATOM      5  C   UNL     1       4.034   3.714  17.104  0.00  0.00    +0.000 C 
ENDROOT
BRANCH   1   6
ATOM      6  N   UNL     1       6.449   4.466  17.062  0.00  0.00    +0.000 NA
ATOM      7  C   UNL     1       7.577   4.571  17.999  0.00  0.00    +0.000 C 
BRANCH   6   8
ATOM      8  C   UNL     1       6.559   5.541  16.031  0.00  0.00    +0.000 C 
BRANCH   8  11
ATOM      9  C   UNL     1       6.267   3.849  12.949  0.00  0.00    +0.000 A 
ATOM     10  N   UNL     1       5.749   4.133  14.120  0.00  0.00    +0.000 NA
ATOM     11  C   UNL     1       6.661   5.030  14.629  0.00  0.00    +0.000 A 
ATOM     12  N   UNL     1       7.700   5.291  13.819  0.00  0.00    +0.000 NA
ATOM     13  O   UNL     1       7.433   4.510  12.691  0.00  0.00    +0.000 OA
BRANCH   9  15
ATOM     14  C   UNL     1       4.370   3.193  11.491  0.00  0.00    +0.000 C 
ATOM     15  C   UNL     1       5.791   2.890  11.929  0.00  0.00    +0.000 C 
ENDBRANCH   9  15
ENDBRANCH   8  11
ENDBRANCH   6   8
ENDBRANCH   1   6
BRANCH   4  16
ATOM     16  C   UNL     1       2.267   2.827  18.563  0.00  0.00    +0.000 C 
BRANCH  16  17
ATOM     17  C   UNL     1       1.620   4.127  18.066  0.00  0.00    +0.000 C 
BRANCH  17  18
ATOM     18  N   UNL     1       1.786   5.204  19.020  0.00  0.00    +0.000 N 
ATOM     19  C   UNL     1       1.497   5.168  20.351  0.00  0.00    +0.000 A 
ATOM     20  C   UNL     1       1.760   6.428  20.831  0.00  0.00    +0.000 A 
ATOM     21  C   UNL     1       2.206   7.152  19.709  0.00  0.00    +0.000 A 
ATOM     22  N   UNL     1       2.234   6.406  18.604  0.00  0.00    +0.000 NA
ENDBRANCH  17  18
ENDBRANCH  16  17
ENDBRANCH   4  16
TORSDOF 7
ENDMDL
MODEL 3
REMARK VINA RESULT:      -7.2      1.269      1.613
REMARK  Name = 
REMARK  9 active torsions:
REMARK  status: ('A' for Active; 'I' for Inactive)
REMARK    1  A    between atoms: C_1  and  C_2
REMARK    2  A    between atoms: C_2  and  C_3
REMARK    3  A    between atoms: C_5  and  C_6
REMARK    4  A    between atoms: C_6  and  N_7
REMARK    5  A    between atoms: N_7  and  C_8
REMARK    6  A    between atoms: N_7  and  C_9
REMARK    7  A    between atoms: N_12  and  C_13
REMARK    8  A    between atoms: C_13  and  C_14
REMARK    9  A    between atoms: C_14  and  N_15
REMARK                            x       y       z     vdW  Elec       q    Type
REMARK                         _______ _______ _______ _____ _____    ______ ____
ROOT
ATOM      1  C   UNL     1       5.076   5.660  16.919  0.00  0.00    +0.000 C 
ATOM      2  C   UNL     1       4.133   6.781  17.369  0.00  0.00    +0.000 C 
ATOM      3  C   UNL     1       3.442   6.212  18.589  0.00  0.00    +0.000 C 
ATOM      4  N   UNL     1       3.173   4.808  18.252  0.00  0.00    +0.000 NA
ATOM      5  C   UNL     1       4.288   4.398  17.374  0.00  0.00    +0.000 C 
ENDROOT
BRANCH   1   6
ATOM      6  N   UNL     1       6.463   5.686  17.467  0.00  0.00    +0.000 NA
ATOM      7  C   UNL     1       7.080   7.012  17.316  0.00  0.00    +0.000 C 
BRANCH   6   8
ATOM      8  C   UNL     1       7.294   4.668  16.757  0.00  0.00    +0.000 C 
BRANCH   8  11
ATOM      9  C   UNL     1       6.424   3.854  13.437  0.00  0.00    +0.000 A 
ATOM     10  N   UNL     1       6.262   3.633  14.719  0.00  0.00    +0.000 NA
ATOM     11  C   UNL     1       7.054   4.609  15.282  0.00  0.00    +0.000 A 
ATOM     12  N   UNL     1       7.684   5.397  14.395  0.00  0.00    +0.000 NA
ATOM     13  O   UNL     1       7.256   4.900  13.161  0.00  0.00    +0.000 OA
BRANCH   9  15
ATOM     14  C   UNL     1       4.574   3.688  11.792  0.00  0.00    +0.000 C 
ATOM     15  C   UNL     1       5.882   3.098  12.287  0.00  0.00    +0.000 C 
ENDBRANCH   9  15
ENDBRANCH   8  11
ENDBRANCH   6   8
ENDBRANCH   1   6
BRANCH   4  16
ATOM     16  C   UNL     1       1.854   4.613  17.630  0.00  0.00    +0.000 C 
BRANCH  16  17
ATOM     17  C   UNL     1       0.980   3.622  18.411  0.00  0.00    +0.000 C 
BRANCH  17  18
ATOM     18  N   UNL     1       1.592   3.251  19.670  0.00  0.00    +0.000 N 
ATOM     19  C   UNL     1       2.498   2.254  19.875  0.00  0.00    +0.000 A 
ATOM     20  C   UNL     1       2.746   2.238  21.227  0.00  0.00    +0.000 A 
ATOM     21  C   UNL     1       1.940   3.266  21.750  0.00  0.00    +0.000 A 
ATOM     22  N   UNL     1       1.242   3.894  20.803  0.00  0.00    +0.000 NA
ENDBRANCH  17  18
ENDBRANCH  16  17
ENDBRANCH   4  16
TORSDOF 7
ENDMDL
MODEL 4
REMARK VINA RESULT:      -7.2      0.563      1.039
REMARK  Name = 
REMARK  9 active torsions:
REMARK  status: ('A' for Active; 'I' for Inactive)
REMARK    1  A    between atoms: C_1  and  C_2
REMARK    2  A    between atoms: C_2  and  C_3
REMARK    3  A    between atoms: C_5  and  C_6
REMARK    4  A    between atoms: C_6  and  N_7
REMARK    5  A    between atoms: N_7  and  C_8
REMARK    6  A    between atoms: N_7  and  C_9
REMARK    7  A    between atoms: N_12  and  C_13
REMARK    8  A    between atoms: C_13  and  C_14
REMARK    9  A    between atoms: C_14  and  N_15
REMARK                            x       y       z     vdW  Elec       q    Type
REMARK                         _______ _______ _______ _____ _____    ______ ____
ROOT
ATOM      1  C   UNL     1       5.074   4.833  16.408  0.00  0.00    +0.000 C 
ATOM      2  C   UNL     1       4.846   6.335  16.207  0.00  0.00    +0.000 C 
ATOM      3  C   UNL     1       4.858   6.899  17.611  0.00  0.00    +0.000 C 
ATOM      4  N   UNL     1       4.126   5.917  18.421  0.00  0.00    +0.000 NA
ATOM      5  C   UNL     1       4.414   4.608  17.798  0.00  0.00    +0.000 C 
ENDROOT
BRANCH   1   6
ATOM      6  N   UNL     1       6.486   4.355  16.370  0.00  0.00    +0.000 NA
ATOM      7  C   UNL     1       7.149   4.522  17.672  0.00  0.00    +0.000 C 
BRANCH   6   8
ATOM      8  C   UNL     1       7.238   5.117  15.329  0.00  0.00    +0.000 C 
BRANCH   8  11
ATOM      9  C   UNL     1       6.298   3.432  12.376  0.00  0.00    +0.000 A 
ATOM     10  N   UNL     1       6.129   3.603  13.665  0.00  0.00    +0.000 NA
ATOM     11  C   UNL     1       6.986   4.648  13.931  0.00  0.00    +0.000 A 
ATOM     12  N   UNL     1       7.661   5.104  12.863  0.00  0.00    +0.000 NA
ATOM     13  O   UNL     1       7.194   4.298  11.820  0.00  0.00    +0.000 OA
BRANCH   9  15
ATOM     14  C   UNL     1       6.725   1.388  11.037  0.00  0.00    +0.000 C 
ATOM     15  C   UNL     1       5.700   2.411  11.488  0.00  0.00    +0.000 C 
ENDBRANCH   9  15
ENDBRANCH   8  11
ENDBRANCH   6   8
ENDBRANCH   1   6
BRANCH   4  16
ATOM     16  C   UNL     1       2.685   6.206  18.504  0.00  0.00    +0.000 C 
BRANCH  16  17
ATOM     17  C   UNL     1       2.156   6.122  19.943  0.00  0.00    +0.000 C 
BRANCH  17  18
ATOM     18  N   UNL     1       1.835   4.760  20.315  0.00  0.00    +0.000 N 
ATOM     19  C   UNL     1       2.197   4.120  21.462  0.00  0.00    +0.000 A 
ATOM     20  C   UNL     1       1.720   2.836  21.348  0.00  0.00    +0.000 A 
ATOM     21  C   UNL     1       1.083   2.803  20.093  0.00  0.00    +0.000 A 
ATOM     22  N   UNL     1       1.141   3.977  19.464  0.00  0.00    +0.000 NA
ENDBRANCH  17  18
ENDBRANCH  16  17
ENDBRANCH   4  16
TORSDOF 7
ENDMDL
MODEL 5
REMARK VINA RESULT:      -7.0      3.069      4.945
REMARK  Name = 
REMARK  9 active torsions:
REMARK  status: ('A' for Active; 'I' for Inactive)
REMARK    1  A    between atoms: C_1  and  C_2
REMARK    2  A    between atoms: C_2  and  C_3
REMARK    3  A    between atoms: C_5  and  C_6
REMARK    4  A    between atoms: C_6  and  N_7
REMARK    5  A    between atoms: N_7  and  C_8
REMARK    6  A    between atoms: N_7  and  C_9
REMARK    7  A    between atoms: N_12  and  C_13
REMARK    8  A    between atoms: C_13  and  C_14
REMARK    9  A    between atoms: C_14  and  N_15
REMARK                            x       y       z     vdW  Elec       q    Type
REMARK                         _______ _______ _______ _____ _____    ______ ____
ROOT
ATOM      1  C   UNL     1       5.070   5.625  15.663  0.00  0.00    +0.000 C 
ATOM      2  C   UNL     1       4.319   6.477  16.692  0.00  0.00    +0.000 C 
ATOM      3  C   UNL     1       4.278   5.608  17.929  0.00  0.00    +0.000 C 
ATOM      4  N   UNL     1       4.017   4.251  17.432  0.00  0.00    +0.000 NA
ATOM      5  C   UNL     1       4.673   4.189  16.111  0.00  0.00    +0.000 C 
ENDROOT
BRANCH   1   6
ATOM      6  N   UNL     1       6.549   5.804  15.591  0.00  0.00    +0.000 NA
ATOM      7  C   UNL     1       7.149   4.946  14.559  0.00  0.00    +0.000 C 
BRANCH   6   8
ATOM      8  C   UNL     1       7.152   5.480  16.918  0.00  0.00    +0.000 C 
BRANCH   8  11
ATOM      9  C   UNL     1       8.248   8.645  18.025  0.00  0.00    +0.000 A 
ATOM     10  N   UNL     1       7.624   7.935  17.116  0.00  0.00    +0.000 NA
ATOM     11  C   UNL     1       7.643   6.675  17.671  0.00  0.00    +0.000 A 
ATOM     12  N   UNL     1       8.253   6.599  18.866  0.00  0.00    +0.000 NA
ATOM     13  O   UNL     1       8.650   7.918  19.108  0.00  0.00    +0.000 OA
BRANCH   9  15
ATOM     14  C   UNL     1       9.394  10.484  19.233  0.00  0.00    +0.000 C 
ATOM     15  C   UNL     1       8.611  10.078  17.998  0.00  0.00    +0.000 C 
ENDBRANCH   9  15
ENDBRANCH   8  11
ENDBRANCH   6   8
ENDBRANCH   1   6
BRANCH   4  16
ATOM     16  C   UNL     1       2.582   3.931  17.374  0.00  0.00    +0.000 C 
BRANCH  16  17
ATOM     17  C   UNL     1       2.258   2.579  18.024  0.00  0.00    +0.000 C 
BRANCH  17  18
ATOM     18  N   UNL     1       2.157   2.691  19.464  0.00  0.00    +0.000 N 
ATOM     19  C   UNL     1       3.179   2.619  20.364  0.00  0.00    +0.000 A 
ATOM     20  C   UNL     1       2.600   2.720  21.606  0.00  0.00    +0.000 A 
ATOM     21  C   UNL     1       1.222   2.853  21.348  0.00  0.00    +0.000 A 
ATOM     22  N   UNL     1       0.948   2.847  20.043  0.00  0.00    +0.000 NA
ENDBRANCH  17  18
ENDBRANCH  16  17
ENDBRANCH   4  16
TORSDOF 7
ENDMDL
MODEL 6
REMARK VINA RESULT:      -6.9      1.492      2.060
REMARK  Name = 
REMARK  9 active torsions:
REMARK  status: ('A' for Active; 'I' for Inactive)
REMARK    1  A    between atoms: C_1  and  C_2
REMARK    2  A    between atoms: C_2  and  C_3
REMARK    3  A    between atoms: C_5  and  C_6
REMARK    4  A    between atoms: C_6  and  N_7
REMARK    5  A    between atoms: N_7  and  C_8
REMARK    6  A    between atoms: N_7  and  C_9
REMARK    7  A    between atoms: N_12  and  C_13
REMARK    8  A    between atoms: C_13  and  C_14
REMARK    9  A    between atoms: C_14  and  N_15
REMARK                            x       y       z     vdW  Elec       q    Type
REMARK                         _______ _______ _______ _____ _____    ______ ____
ROOT
ATOM      1  C   UNL     1       4.986   5.431  17.141  0.00  0.00    +0.000 C 
ATOM      2  C   UNL     1       4.703   6.064  18.508  0.00  0.00    +0.000 C 
ATOM      3  C   UNL     1       5.749   5.456  19.417  0.00  0.00    +0.000 C 
ATOM      4  N   UNL     1       5.833   4.048  19.010  0.00  0.00    +0.000 NA
ATOM      5  C   UNL     1       5.555   4.045  17.559  0.00  0.00    +0.000 C 
ENDROOT
BRANCH   1   6
ATOM      6  N   UNL     1       5.912   6.171  16.235  0.00  0.00    +0.000 NA
ATOM      7  C   UNL     1       5.202   6.733  15.077  0.00  0.00    +0.000 C 
BRANCH   6   8
ATOM      8  C   UNL     1       6.982   5.244  15.759  0.00  0.00    +0.000 C 
BRANCH   8  11
ATOM      9  C   UNL     1       6.212   3.648  12.710  0.00  0.00    +0.000 A 
ATOM     10  N   UNL     1       5.950   3.803  13.985  0.00  0.00    +0.000 NA
ATOM     11  C   UNL     1       6.822   4.809  14.337  0.00  0.00    +0.000 A 
ATOM     12  N   UNL     1       7.594   5.257  13.333  0.00  0.00    +0.000 NA
ATOM     13  O   UNL     1       7.180   4.488  12.242  0.00  0.00    +0.000 OA
BRANCH   9  15
ATOM     14  C   UNL     1       4.284   3.094  11.249  0.00  0.00    +0.000 C 
ATOM     15  C   UNL     1       5.648   2.666  11.758  0.00  0.00    +0.000 C 
ENDBRANCH   9  15
ENDBRANCH   8  11
ENDBRANCH   6   8
ENDBRANCH   1   6
BRANCH   4  16
ATOM     16  C   UNL     1       4.920   3.178  19.769  0.00  0.00    +0.000 C 
BRANCH  16  17
ATOM     17  C   UNL     1       3.989   2.370  18.854  0.00  0.00    +0.000 C 
BRANCH  17  18
ATOM     18  N   UNL     1       2.598   2.564  19.203  0.00  0.00    +0.000 N 
ATOM     19  C   UNL     1       1.532   2.544  18.353  0.00  0.00    +0.000 A 
ATOM     20  C   UNL     1       0.429   2.832  19.120  0.00  0.00    +0.000 A 
ATOM     21  C   UNL     1       0.936   3.009  20.422  0.00  0.00    +0.000 A 
ATOM     22  N   UNL     1       2.256   2.836  20.479  0.00  0.00    +0.000 NA
ENDBRANCH  17  18
ENDBRANCH  16  17
ENDBRANCH   4  16
TORSDOF 7
ENDMDL
MODEL 7
REMARK VINA RESULT:      -6.9      0.950      1.115
REMARK  Name = 
REMARK  9 active torsions:
REMARK  status: ('A' for Active; 'I' for Inactive)
REMARK    1  A    between atoms: C_1  and  C_2
REMARK    2  A    between atoms: C_2  and  C_3
REMARK    3  A    between atoms: C_5  and  C_6
REMARK    4  A    between atoms: C_6  and  N_7
REMARK    5  A    between atoms: N_7  and  C_8
REMARK    6  A    between atoms: N_7  and  C_9
REMARK    7  A    between atoms: N_12  and  C_13
REMARK    8  A    between atoms: C_13  and  C_14
REMARK    9  A    between atoms: C_14  and  N_15
REMARK                            x       y       z     vdW  Elec       q    Type
REMARK                         _______ _______ _______ _____ _____    ______ ____
ROOT
ATOM      1  C   UNL     1       5.207   4.873  16.305  0.00  0.00    +0.000 C 
ATOM      2  C   UNL     1       4.929   6.366  16.514  0.00  0.00    +0.000 C 
ATOM      3  C   UNL     1       4.504   6.460  17.963  0.00  0.00    +0.000 C 
ATOM      4  N   UNL     1       3.652   5.285  18.185  0.00  0.00    +0.000 NA
ATOM      5  C   UNL     1       4.203   4.234  17.306  0.00  0.00    +0.000 C 
ENDROOT
BRANCH   1   6
ATOM      6  N   UNL     1       6.605   4.409  16.535  0.00  0.00    +0.000 NA
ATOM      7  C   UNL     1       7.099   4.814  17.860  0.00  0.00    +0.000 C 
BRANCH   6   8
ATOM      8  C   UNL     1       7.495   4.979  15.479  0.00  0.00    +0.000 C 
BRANCH   8  11
ATOM      9  C   UNL     1       6.224   3.547  12.516  0.00  0.00    +0.000 A 
ATOM     10  N   UNL     1       6.208   3.600  13.826  0.00  0.00    +0.000 NA
ATOM     11  C   UNL     1       7.083   4.632  14.084  0.00  0.00    +0.000 A 
ATOM     12  N   UNL     1       7.624   5.193  12.990  0.00  0.00    +0.000 NA
ATOM     13  O   UNL     1       7.043   4.475  11.940  0.00  0.00    +0.000 OA
BRANCH   9  15
ATOM     14  C   UNL     1       4.176   3.121  11.183  0.00  0.00    +0.000 C 
ATOM     15  C   UNL     1       5.534   2.600  11.615  0.00  0.00    +0.000 C 
ENDBRANCH   9  15
ENDBRANCH   8  11
ENDBRANCH   6   8
ENDBRANCH   1   6
BRANCH   4  16
ATOM     16  C   UNL     1       2.228   5.555  17.931  0.00  0.00    +0.000 C 
BRANCH  16  17
ATOM     17  C   UNL     1       1.382   4.274  17.932  0.00  0.00    +0.000 C 
BRANCH  17  18
ATOM     18  N   UNL     1       1.431   3.604  19.214  0.00  0.00    +0.000 N 
ATOM     19  C   UNL     1       1.056   4.118  20.419  0.00  0.00    +0.000 A 
ATOM     20  C   UNL     1       1.333   3.145  21.350  0.00  0.00    +0.000 A 
ATOM     21  C   UNL     1       1.872   2.080  20.603  0.00  0.00    +0.000 A 
ATOM     22  N   UNL     1       1.923   2.351  19.299  0.00  0.00    +0.000 NA
ENDBRANCH  17  18
ENDBRANCH  16  17
ENDBRANCH   4  16
TORSDOF 7
ENDMDL
MODEL 8
REMARK VINA RESULT:      -6.8      1.436      1.756
REMARK  Name = 
REMARK  9 active torsions:
REMARK  status: ('A' for Active; 'I' for Inactive)
REMARK    1  A    between atoms: C_1  and  C_2
REMARK    2  A    between atoms: C_2  and  C_3
REMARK    3  A    between atoms: C_5  and  C_6
REMARK    4  A    between atoms: C_6  and  N_7
REMARK    5  A    between atoms: N_7  and  C_8
REMARK    6  A    between atoms: N_7  and  C_9
REMARK    7  A    between atoms: N_12  and  C_13
REMARK    8  A    between atoms: C_13  and  C_14
REMARK    9  A    between atoms: C_14  and  N_15
REMARK                            x       y       z     vdW  Elec       q    Type
REMARK                         _______ _______ _______ _____ _____    ______ ____
ROOT
ATOM      1  C   UNL     1       5.074   5.149  18.098  0.00  0.00    +0.000 C 
ATOM      2  C   UNL     1       3.872   5.608  17.265  0.00  0.00    +0.000 C 
ATOM      3  C   UNL     1       3.380   6.846  17.981  0.00  0.00    +0.000 C 
ATOM      4  N   UNL     1       3.493   6.529  19.410  0.00  0.00    +0.000 NA
ATOM      5  C   UNL     1       4.662   5.632  19.518  0.00  0.00    +0.000 C 
ENDROOT
BRANCH   1   6
ATOM      6  N   UNL     1       6.412   5.668  17.692  0.00  0.00    +0.000 NA
ATOM      7  C   UNL     1       6.294   6.845  16.819  0.00  0.00    +0.000 C 
BRANCH   6   8
ATOM      8  C   UNL     1       7.162   4.593  16.976  0.00  0.00    +0.000 C 
BRANCH   8  11
ATOM      9  C   UNL     1       6.553   4.036  13.547  0.00  0.00    +0.000 A 
ATOM     10  N   UNL     1       6.300   3.712  14.792  0.00  0.00    +0.000 NA
ATOM     11  C   UNL     1       7.032   4.649  15.487  0.00  0.00    +0.000 A 
ATOM     12  N   UNL     1       7.713   5.512  14.715  0.00  0.00    +0.000 NA
ATOM     13  O   UNL     1       7.385   5.109  13.417  0.00  0.00    +0.000 OA
BRANCH   9  15
ATOM     14  C   UNL     1       4.627   3.573  12.054  0.00  0.00    +0.000 C 
ATOM     15  C   UNL     1       6.109   3.368  12.304  0.00  0.00    +0.000 C 
ENDBRANCH   9  15
ENDBRANCH   8  11
ENDBRANCH   6   8
ENDBRANCH   1   6
BRANCH   4  16
ATOM     16  C   UNL     1       2.264   5.935  19.962  0.00  0.00    +0.000 C 
BRANCH  16  17
ATOM     17  C   UNL     1       2.523   4.582  20.638  0.00  0.00    +0.000 C 
BRANCH  17  18
ATOM     18  N   UNL     1       2.036   3.481  19.831  0.00  0.00    +0.000 N 
ATOM     19  C   UNL     1       0.735   3.180  19.561  0.00  0.00    +0.000 A 
ATOM     20  C   UNL     1       0.759   2.028  18.812  0.00  0.00    +0.000 A 
ATOM     21  C   UNL     1       2.126   1.715  18.684  0.00  0.00    +0.000 A 
ATOM     22  N   UNL     1       2.909   2.604  19.295  0.00  0.00    +0.000 NA
ENDBRANCH  17  18
ENDBRANCH  16  17
ENDBRANCH   4  16
TORSDOF 7
ENDMDL
MODEL 9
REMARK VINA RESULT:      -6.8      0.723      1.049
REMARK  Name = 
REMARK  9 active torsions:
REMARK  status: ('A' for Active; 'I' for Inactive)
REMARK    1  A    between atoms: C_1  and  C_2
REMARK    2  A    between atoms: C_2  and  C_3
REMARK    3  A    between atoms: C_5  and  C_6
REMARK    4  A    between atoms: C_6  and  N_7
REMARK    5  A    between atoms: N_7  and  C_8
REMARK    6  A    between atoms: N_7  and  C_9
REMARK    7  A    between atoms: N_12  and  C_13
REMARK    8  A    between atoms: C_13  and  C_14
REMARK    9  A    between atoms: C_14  and  N_15
REMARK                            x       y       z     vdW  Elec       q    Type
REMARK                         _______ _______ _______ _____ _____    ______ ____
ROOT
ATOM      1  C   UNL     1       5.714   5.838  16.994  0.00  0.00    +0.000 C 
ATOM      2  C   UNL     1       5.862   6.234  18.467  0.00  0.00    +0.000 C 
ATOM      3  C   UNL     1       4.969   5.258  19.201  0.00  0.00    +0.000 C 
ATOM      4  N   UNL     1       3.774   5.129  18.357  0.00  0.00    +0.000 NA
ATOM      5  C   UNL     1       4.258   5.291  16.971  0.00  0.00    +0.000 C 
ENDROOT
BRANCH   1   6
ATOM      6  N   UNL     1       6.695   4.851  16.459  0.00  0.00    +0.000 NA
ATOM      7  C   UNL     1       7.651   4.424  17.492  0.00  0.00    +0.000 C 
BRANCH   6   8
ATOM      8  C   UNL     1       7.439   5.463  15.317  0.00  0.00    +0.000 C 
BRANCH   8  11
ATOM      9  C   UNL     1       6.286   3.548  12.589  0.00  0.00    +0.000 A 
ATOM     10  N   UNL     1       6.187   3.850  13.861  0.00  0.00    +0.000 NA
ATOM     11  C   UNL     1       7.099   4.874  13.985  0.00  0.00    +0.000 A 
ATOM     12  N   UNL     1       7.741   5.192  12.849  0.00  0.00    +0.000 NA
ATOM     13  O   UNL     1       7.190   4.313  11.912  0.00  0.00    +0.000 OA
BRANCH   9  15
ATOM     14  C   UNL     1       6.592   1.561  11.135  0.00  0.00    +0.000 C 
ATOM     15  C   UNL     1       5.603   2.476  11.832  0.00  0.00    +0.000 C 
ENDBRANCH   9  15
ENDBRANCH   8  11
ENDBRANCH   6   8
ENDBRANCH   1   6
BRANCH   4  16
ATOM     16  C   UNL     1       2.718   6.091  18.711  0.00  0.00    +0.000 C 
BRANCH  16  17
ATOM     17  C   UNL     1       2.251   5.936  20.165  0.00  0.00    +0.000 C 
BRANCH  17  18
ATOM     18  N   UNL     1       1.866   4.571  20.459  0.00  0.00    +0.000 N 
ATOM     19  C   UNL     1       1.047   3.775  19.714  0.00  0.00    +0.000 A 
ATOM     20  C   UNL     1       0.927   2.597  20.410  0.00  0.00    +0.000 A 
ATOM     21  C   UNL     1       1.714   2.781  21.563  0.00  0.00    +0.000 A 
ATOM     22  N   UNL     1       2.297   3.980  21.592  0.00  0.00    +0.000 NA
ENDBRANCH  17  18
ENDBRANCH  16  17
ENDBRANCH   4  16
TORSDOF 7
ENDMDL
