MODEL 1
REMARK VINA RESULT:      -9.1      0.000      0.000
REMARK  Name = 
REMARK  7 active torsions:
REMARK  status: ('A' for Active; 'I' for Inactive)
REMARK    1  A    between atoms: C_1  and  N_2
REMARK    2  A    between atoms: N_2  and  C_3
REMARK    3  A    between atoms: N_2  and  C_4
REMARK    4  A    between atoms: C_4  and  C_5
REMARK    5  A    between atoms: C_5  and  N_6
REMARK    6  A    between atoms: C_7  and  C_9
REMARK    7  A    between atoms: C_15  and  C_16
REMARK                            x       y       z     vdW  Elec       q    Type
REMARK                         _______ _______ _______ _____ _____    ______ ____
ROOT
ATOM      1  C   UNL     1       3.923   3.815  19.453  0.00  0.00    +0.000 A 
ATOM      2  C   UNL     1       3.806   2.672  20.269  0.00  0.00    +0.000 A 
ATOM      3  C   UNL     1       2.874   2.618  21.307  0.00  0.00    +0.000 A 
ATOM      4  C   UNL     1       2.044   3.706  21.588  0.00  0.00    +0.000 A 
ATOM      5  C   UNL     1       2.197   4.838  20.785  0.00  0.00    +0.000 A 
ATOM      6  N   UNL     1       1.583   6.063  20.803  0.00  0.00    +0.000 N 
ATOM      7  C   UNL     1       2.111   6.848  19.804  0.00  0.00    +0.000 A 
ATOM      8  N   UNL     1       3.006   6.155  19.121  0.00  0.00    +0.000 NA
ATOM      9  C   UNL     1       3.098   4.920  19.728  0.00  0.00    +0.000 A 
ATOM     10  H   UNL     1       0.887   6.361  21.471  0.00  0.00    +0.000 HD
ENDROOT
BRANCH   7  11
ATOM     11  C   UNL     1       1.714   8.252  19.588  0.00  0.00    +0.000 A 
ATOM     12  C   UNL     1       2.024   8.849  18.350  0.00  0.00    +0.000 A 
ATOM     13  C   UNL     1       1.665  10.165  18.076  0.00  0.00    +0.000 A 
ATOM     14  C   UNL     1       0.989  10.909  19.037  0.00  0.00    +0.000 A 
ATOM     15  C   UNL     1       0.661  10.352  20.280  0.00  0.00    +0.000 A 
ATOM     16  C   UNL     1      -0.032  11.131  21.225  0.00  0.00    +0.000 A 
ATOM     17  C   UNL     1      -0.383  10.611  22.469  0.00  0.00    +0.000 A 
ATOM     18  C   UNL     1      -0.047   9.304  22.784  0.00  0.00    +0.000 A 
ATOM     19  C   UNL     1       0.641   8.518  21.854  0.00  0.00    +0.000 A 
ATOM     20  C   UNL     1       1.020   9.010  20.579  0.00  0.00    +0.000 A 
ENDBRANCH   7  11
BRANCH   1  22
ATOM     21  N   UNL     1       6.126   4.372  18.578  0.00  0.00    +0.000 N 
ATOM     22  C   UNL     1       4.896   3.802  18.341  0.00  0.00    +0.000 C 
ATOM     23  O   UNL     1       4.565   3.342  17.252  0.00  0.00    +0.000 OA
ATOM     24  H   UNL     1       6.403   4.578  19.539  0.00  0.00    +0.000 HD
BRANCH  21  25
ATOM     25  C   UNL     1       7.149   4.419  17.553  0.00  0.00    +0.000 C 
BRANCH  25  26
ATOM     26  C   UNL     1       7.250   5.797  16.873  0.00  0.00    +0.000 C 
BRANCH  26  28
ATOM     27  C   UNL     1       6.771   4.582  14.813  0.00  0.00    +0.000 C 
ATOM     28  N   UNL     1       6.691   5.870  15.506  0.00  0.00    +0.000 NA
ATOM     29  C   UNL     1       5.293   6.308  15.564  0.00  0.00    +0.000 C 
ENDBRANCH  26  28
ENDBRANCH  25  26
ENDBRANCH  21  25
ENDBRANCH   1  22
TORSDOF 5
ENDMDL
MODEL 2
REMARK VINA RESULT:      -8.5      0.776      1.238
REMARK  Name = 
REMARK  7 active torsions:
REMARK  status: ('A' for Active; 'I' for Inactive)
REMARK    1  A    between atoms: C_1  and  N_2
REMARK    2  A    between atoms: N_2  and  C_3
REMARK    3  A    between atoms: N_2  and  C_4
REMARK    4  A    between atoms: C_4  and  C_5
REMARK    5  A    between atoms: C_5  and  N_6
REMARK    6  A    between atoms: C_7  and  C_9
REMARK    7  A    between atoms: C_15  and  C_16
REMARK                            x       y       z     vdW  Elec       q    Type
REMARK                         _______ _______ _______ _____ _____    ______ ____
ROOT
ATOM      1  C   UNL     1       3.374   3.539  19.221  0.00  0.00    +0.000 A 
ATOM      2  C   UNL     1       3.363   2.473  20.142  0.00  0.00    +0.000 A 
ATOM      3  C   UNL     1       2.732   2.597  21.381  0.00  0.00    +0.000 A 
ATOM      4  C   UNL     1       2.114   3.791  21.760  0.00  0.00    +0.000 A 
ATOM      5  C   UNL     1       2.162   4.843  20.843  0.00  0.00    +0.000 A 
ATOM      6  N   UNL     1       1.697   6.131  20.901  0.00  0.00    +0.000 N 
ATOM      7  C   UNL     1       2.021   6.782  19.733  0.00  0.00    +0.000 A 
ATOM      8  N   UNL     1       2.635   5.945  18.914  0.00  0.00    +0.000 NA
ATOM      9  C   UNL     1       2.761   4.749  19.590  0.00  0.00    +0.000 A 
ATOM     10  H   UNL     1       1.231   6.551  21.692  0.00  0.00    +0.000 HD
ENDROOT
BRANCH   7  11
ATOM     11  C   UNL     1       1.720   8.206  19.495  0.00  0.00    +0.000 A 
ATOM     12  C   UNL     1       2.118   8.774  18.268  0.00  0.00    +0.000 A 
ATOM     13  C   UNL     1       1.852  10.108  17.974  0.00  0.00    +0.000 A 
ATOM     14  C   UNL     1       1.184  10.899  18.903  0.00  0.00    +0.000 A 
ATOM     15  C   UNL     1       0.770  10.370  20.132  0.00  0.00    +0.000 A 
ATOM     16  C   UNL     1       0.087  11.197  21.044  0.00  0.00    +0.000 A 
ATOM     17  C   UNL     1      -0.347  10.707  22.274  0.00  0.00    +0.000 A 
ATOM     18  C   UNL     1      -0.106   9.384  22.609  0.00  0.00    +0.000 A 
ATOM     19  C   UNL     1       0.571   8.551  21.712  0.00  0.00    +0.000 A 
ATOM     20  C   UNL     1       1.032   9.012  20.452  0.00  0.00    +0.000 A 
ENDBRANCH   7  11
BRANCH   1  22
ATOM     21  N   UNL     1       4.526   4.455  17.280  0.00  0.00    +0.000 N 
ATOM     22  C   UNL     1       4.018   3.340  17.906  0.00  0.00    +0.000 C 
ATOM     23  O   UNL     1       4.033   2.219  17.402  0.00  0.00    +0.000 OA
ATOM     24  H   UNL     1       4.640   5.317  17.815  0.00  0.00    +0.000 HD
BRANCH  21  25
ATOM     25  C   UNL     1       5.169   4.370  15.985  0.00  0.00    +0.000 C 
BRANCH  25  26
ATOM     26  C   UNL     1       5.960   5.642  15.626  0.00  0.00    +0.000 C 
BRANCH  26  28
ATOM     27  C   UNL     1       7.227   6.910  17.280  0.00  0.00    +0.000 C 
ATOM     28  N   UNL     1       7.254   5.800  16.325  0.00  0.00    +0.000 NA
ATOM     29  C   UNL     1       7.592   4.558  17.028  0.00  0.00    +0.000 C 
ENDBRANCH  26  28
ENDBRANCH  25  26
ENDBRANCH  21  25
ENDBRANCH   1  22
TORSDOF 5
ENDMDL
MODEL 3
REMARK VINA RESULT:      -8.5      1.115      1.363
REMARK  Name = 
REMARK  7 active torsions:
REMARK  status: ('A' for Active; 'I' for Inactive)
REMARK    1  A    between atoms: C_1  and  N_2
REMARK    2  A    between atoms: N_2  and  C_3
REMARK    3  A    between atoms: N_2  and  C_4
REMARK    4  A    between atoms: C_4  and  C_5
REMARK    5  A    between atoms: C_5  and  N_6
REMARK    6  A    between atoms: C_7  and  C_9
REMARK    7  A    between atoms: C_15  and  C_16
REMARK                            x       y       z     vdW  Elec       q    Type
REMARK                         _______ _______ _______ _____ _____    ______ ____
ROOT
ATOM      1  C   UNL     1       4.185   4.072  19.493  0.00  0.00    +0.000 A 
ATOM      2  C   UNL     1       4.008   2.856  20.183  0.00  0.00    +0.000 A 
ATOM      3  C   UNL     1       2.919   2.662  21.035  0.00  0.00    +0.000 A 
ATOM      4  C   UNL     1       1.983   3.676  21.252  0.00  0.00    +0.000 A 
ATOM      5  C   UNL     1       2.195   4.882  20.581  0.00  0.00    +0.000 A 
ATOM      6  N   UNL     1       1.508   6.067  20.590  0.00  0.00    +0.000 N 
ATOM      7  C   UNL     1       2.145   6.965  19.763  0.00  0.00    +0.000 A 
ATOM      8  N   UNL     1       3.186   6.383  19.193  0.00  0.00    +0.000 NA
ATOM      9  C   UNL     1       3.255   5.104  19.707  0.00  0.00    +0.000 A 
ATOM     10  H   UNL     1       0.691   6.268  21.147  0.00  0.00    +0.000 HD
ENDROOT
BRANCH   7  11
ATOM     11  C   UNL     1       1.697   8.360  19.594  0.00  0.00    +0.000 A 
ATOM     12  C   UNL     1       1.967   9.001  18.367  0.00  0.00    +0.000 A 
ATOM     13  C   UNL     1       1.560  10.312  18.137  0.00  0.00    +0.000 A 
ATOM     14  C   UNL     1       0.877  11.006  19.129  0.00  0.00    +0.000 A 
ATOM     15  C   UNL     1       0.589  10.404  20.361  0.00  0.00    +0.000 A 
ATOM     16  C   UNL     1      -0.113  11.133  21.339  0.00  0.00    +0.000 A 
ATOM     17  C   UNL     1      -0.425  10.567  22.573  0.00  0.00    +0.000 A 
ATOM     18  C   UNL     1      -0.041   9.264  22.846  0.00  0.00    +0.000 A 
ATOM     19  C   UNL     1       0.656   8.527  21.883  0.00  0.00    +0.000 A 
ATOM     20  C   UNL     1       0.996   9.067  20.617  0.00  0.00    +0.000 A 
ENDBRANCH   7  11
BRANCH   1  22
ATOM     21  N   UNL     1       5.058   4.178  17.222  0.00  0.00    +0.000 N 
ATOM     22  C   UNL     1       5.331   4.209  18.570  0.00  0.00    +0.000 C 
ATOM     23  O   UNL     1       6.469   4.290  19.026  0.00  0.00    +0.000 OA
ATOM     24  H   UNL     1       4.093   4.283  16.907  0.00  0.00    +0.000 HD
BRANCH  21  25
ATOM     25  C   UNL     1       6.111   4.295  16.234  0.00  0.00    +0.000 C 
BRANCH  25  26
ATOM     26  C   UNL     1       5.570   4.470  14.802  0.00  0.00    +0.000 C 
BRANCH  26  28
ATOM     27  C   UNL     1       5.602   3.420  12.602  0.00  0.00    +0.000 C 
ATOM     28  N   UNL     1       6.406   3.881  13.734  0.00  0.00    +0.000 NA
ATOM     29  C   UNL     1       7.385   4.869  13.269  0.00  0.00    +0.000 C 
ENDBRANCH  26  28
ENDBRANCH  25  26
ENDBRANCH  21  25
ENDBRANCH   1  22
TORSDOF 5
ENDMDL
MODEL 4
REMARK VINA RESULT:      -8.5      3.678      8.101
REMARK  Name = 
REMARK  7 active torsions:
REMARK  status: ('A' for Active; 'I' for Inactive)
REMARK    1  A    between atoms: C_1  and  N_2
REMARK    2  A    between atoms: N_2  and  C_3
REMARK    3  A    between atoms: N_2  and  C_4
REMARK    4  A    between atoms: C_4  and  C_5
REMARK    5  A    between atoms: C_5  and  N_6
REMARK    6  A    between atoms: C_7  and  C_9
REMARK    7  A    between atoms: C_15  and  C_16
REMARK                            x       y       z     vdW  Elec       q    Type
REMARK                         _______ _______ _______ _____ _____    ______ ____
ROOT
ATOM      1  C   UNL     1      -0.100  10.187  19.848  0.00  0.00    +0.000 A 
ATOM      2  C   UNL     1      -0.490  10.599  21.137  0.00  0.00    +0.000 A 
ATOM      3  C   UNL     1       0.069  10.023  22.279  0.00  0.00    +0.000 A 
ATOM      4  C   UNL     1       1.014   8.998  22.181  0.00  0.00    +0.000 A 
ATOM      5  C   UNL     1       1.363   8.586  20.893  0.00  0.00    +0.000 A 
ATOM      6  N   UNL     1       2.213   7.609  20.444  0.00  0.00    +0.000 N 
ATOM      7  C   UNL     1       2.189   7.587  19.068  0.00  0.00    +0.000 A 
ATOM      8  N   UNL     1       1.390   8.542  18.623  0.00  0.00    +0.000 NA
ATOM      9  C   UNL     1       0.845   9.152  19.733  0.00  0.00    +0.000 A 
ATOM     10  H   UNL     1       2.739   6.975  21.028  0.00  0.00    +0.000 HD
ENDROOT
BRANCH   7  11
ATOM     11  C   UNL     1       2.946   6.609  18.266  0.00  0.00    +0.000 A 
ATOM     12  C   UNL     1       4.039   7.074  17.507  0.00  0.00    +0.000 A 
ATOM     13  C   UNL     1       4.805   6.202  16.740  0.00  0.00    +0.000 A 
ATOM     14  C   UNL     1       4.490   4.847  16.715  0.00  0.00    +0.000 A 
ATOM     15  C   UNL     1       3.412   4.345  17.456  0.00  0.00    +0.000 A 
ATOM     16  C   UNL     1       3.128   2.967  17.416  0.00  0.00    +0.000 A 
ATOM     17  C   UNL     1       2.070   2.428  18.145  0.00  0.00    +0.000 A 
ATOM     18  C   UNL     1       1.282   3.260  18.924  0.00  0.00    +0.000 A 
ATOM     19  C   UNL     1       1.553   4.631  18.974  0.00  0.00    +0.000 A 
ATOM     20  C   UNL     1       2.618   5.219  18.246  0.00  0.00    +0.000 A 
ENDBRANCH   7  11
BRANCH   1  22
ATOM     21  N   UNL     1      -1.677  10.184  17.991  0.00  0.00    +0.000 N 
ATOM     22  C   UNL     1      -0.692  10.861  18.674  0.00  0.00    +0.000 C 
ATOM     23  O   UNL     1      -0.260  11.956  18.322  0.00  0.00    +0.000 OA
ATOM     24  H   UNL     1      -2.112   9.368  18.424  0.00  0.00    +0.000 HD
BRANCH  21  25
ATOM     25  C   UNL     1      -2.316  10.752  16.822  0.00  0.00    +0.000 C 
BRANCH  25  26
ATOM     26  C   UNL     1      -3.599  11.532  17.162  0.00  0.00    +0.000 C 
BRANCH  26  28
ATOM     27  C   UNL     1      -4.390  12.315  19.332  0.00  0.00    +0.000 C 
ATOM     28  N   UNL     1      -4.242  11.163  18.442  0.00  0.00    +0.000 NA
ATOM     29  C   UNL     1      -5.560  10.573  18.182  0.00  0.00    +0.000 C 
ENDBRANCH  26  28
ENDBRANCH  25  26
ENDBRANCH  21  25
ENDBRANCH   1  22
TORSDOF 5
ENDMDL
MODEL 5
REMARK VINA RESULT:      -8.4      3.872      8.264
REMARK  Name = 
REMARK  7 active torsions:
REMARK  status: ('A' for Active; 'I' for Inactive)
REMARK    1  A    between atoms: C_1  and  N_2
REMARK    2  A    between atoms: N_2  and  C_3
REMARK    3  A    between atoms: N_2  and  C_4
REMARK    4  A    between atoms: C_4  and  C_5
REMARK    5  A    between atoms: C_5  and  N_6
REMARK    6  A    between atoms: C_7  and  C_9
REMARK    7  A    between atoms: C_15  and  C_16
REMARK                            x       y       z     vdW  Elec       q    Type
REMARK                         _______ _______ _______ _____ _____    ______ ____
ROOT
ATOM      1  C   UNL     1      -0.367  10.590  20.415  0.00  0.00    +0.000 A 
ATOM      2  C   UNL     1      -0.827  11.074  21.654  0.00  0.00    +0.000 A 
ATOM      3  C   UNL     1      -0.416  10.492  22.855  0.00  0.00    +0.000 A 
ATOM      4  C   UNL     1       0.446   9.392  22.864  0.00  0.00    +0.000 A 
ATOM      5  C   UNL     1       0.866   8.911  21.622  0.00  0.00    +0.000 A 
ATOM      6  N   UNL     1       1.667   7.855  21.273  0.00  0.00    +0.000 N 
ATOM      7  C   UNL     1       1.756   7.791  19.901  0.00  0.00    +0.000 A 
ATOM      8  N   UNL     1       1.079   8.792  19.364  0.00  0.00    +0.000 NA
ATOM      9  C   UNL     1       0.495   9.480  20.408  0.00  0.00    +0.000 A 
ATOM     10  H   UNL     1       2.088   7.200  21.915  0.00  0.00    +0.000 HD
ENDROOT
BRANCH   7  11
ATOM     11  C   UNL     1       2.493   6.729  19.191  0.00  0.00    +0.000 A 
ATOM     12  C   UNL     1       3.425   7.111  18.205  0.00  0.00    +0.000 A 
ATOM     13  C   UNL     1       4.165   6.160  17.508  0.00  0.00    +0.000 A 
ATOM     14  C   UNL     1       3.986   4.809  17.785  0.00  0.00    +0.000 A 
ATOM     15  C   UNL     1       3.071   4.389  18.759  0.00  0.00    +0.000 A 
ATOM     16  C   UNL     1       2.922   3.014  19.020  0.00  0.00    +0.000 A 
ATOM     17  C   UNL     1       2.029   2.556  19.986  0.00  0.00    +0.000 A 
ATOM     18  C   UNL     1       1.272   3.468  20.705  0.00  0.00    +0.000 A 
ATOM     19  C   UNL     1       1.410   4.837  20.457  0.00  0.00    +0.000 A 
ATOM     20  C   UNL     1       2.305   5.343  19.481  0.00  0.00    +0.000 A 
ENDBRANCH   7  11
BRANCH   1  22
ATOM     21  N   UNL     1      -2.044  10.947  18.684  0.00  0.00    +0.000 N 
ATOM     22  C   UNL     1      -0.801  11.271  19.177  0.00  0.00    +0.000 C 
ATOM     23  O   UNL     1      -0.034  12.048  18.612  0.00  0.00    +0.000 OA
ATOM     24  H   UNL     1      -2.698  10.436  19.280  0.00  0.00    +0.000 HD
BRANCH  21  25
ATOM     25  C   UNL     1      -2.560  11.551  17.473  0.00  0.00    +0.000 C 
BRANCH  25  26
ATOM     26  C   UNL     1      -3.992  11.092  17.139  0.00  0.00    +0.000 C 
BRANCH  26  28
ATOM     27  C   UNL     1      -5.897  12.614  17.107  0.00  0.00    +0.000 C 
ATOM     28  N   UNL     1      -5.062  11.736  17.930  0.00  0.00    +0.000 NA
ATOM     29  C   UNL     1      -5.902  10.711  18.558  0.00  0.00    +0.000 C 
ENDBRANCH  26  28
ENDBRANCH  25  26
ENDBRANCH  21  25
ENDBRANCH   1  22
TORSDOF 5
ENDMDL
MODEL 6
REMARK VINA RESULT:      -8.2      0.814      1.071
REMARK  Name = 
REMARK  7 active torsions:
REMARK  status: ('A' for Active; 'I' for Inactive)
REMARK    1  A    between atoms: C_1  and  N_2
REMARK    2  A    between atoms: N_2  and  C_3
REMARK    3  A    between atoms: N_2  and  C_4
REMARK    4  A    between atoms: C_4  and  C_5
REMARK    5  A    between atoms: C_5  and  N_6
REMARK    6  A    between atoms: C_7  and  C_9
REMARK    7  A    between atoms: C_15  and  C_16
REMARK                            x       y       z     vdW  Elec       q    Type
REMARK                         _______ _______ _______ _____ _____    ______ ____
ROOT
ATOM      1  C   UNL     1       4.006   3.925  19.575  0.00  0.00    +0.000 A 
ATOM      2  C   UNL     1       3.841   2.756  20.343  0.00  0.00    +0.000 A 
ATOM      3  C   UNL     1       2.817   2.651  21.287  0.00  0.00    +0.000 A 
ATOM      4  C   UNL     1       1.939   3.713  21.519  0.00  0.00    +0.000 A 
ATOM      5  C   UNL     1       2.141   4.872  20.766  0.00  0.00    +0.000 A 
ATOM      6  N   UNL     1       1.500   6.083  20.762  0.00  0.00    +0.000 N 
ATOM      7  C   UNL     1       2.101   6.909  19.839  0.00  0.00    +0.000 A 
ATOM      8  N   UNL     1       3.071   6.255  19.224  0.00  0.00    +0.000 NA
ATOM      9  C   UNL     1       3.134   5.004  19.802  0.00  0.00    +0.000 A 
ATOM     10  H   UNL     1       0.738   6.346  21.370  0.00  0.00    +0.000 HD
ENDROOT
BRANCH   7  11
ATOM     11  C   UNL     1       1.692   8.310  19.627  0.00  0.00    +0.000 A 
ATOM     12  C   UNL     1       1.986   8.908  18.384  0.00  0.00    +0.000 A 
ATOM     13  C   UNL     1       1.616  10.222  18.114  0.00  0.00    +0.000 A 
ATOM     14  C   UNL     1       0.946  10.963  19.082  0.00  0.00    +0.000 A 
ATOM     15  C   UNL     1       0.635  10.404  20.329  0.00  0.00    +0.000 A 
ATOM     16  C   UNL     1      -0.051  11.180  21.281  0.00  0.00    +0.000 A 
ATOM     17  C   UNL     1      -0.385  10.659  22.529  0.00  0.00    +0.000 A 
ATOM     18  C   UNL     1      -0.038   9.354  22.842  0.00  0.00    +0.000 A 
ATOM     19  C   UNL     1       0.644   8.571  21.905  0.00  0.00    +0.000 A 
ATOM     20  C   UNL     1       1.005   9.065  20.625  0.00  0.00    +0.000 A 
ENDBRANCH   7  11
BRANCH   1  22
ATOM     21  N   UNL     1       4.696   3.916  17.238  0.00  0.00    +0.000 N 
ATOM     22  C   UNL     1       5.080   3.966  18.559  0.00  0.00    +0.000 C 
ATOM     23  O   UNL     1       6.254   3.988  18.919  0.00  0.00    +0.000 OA
ATOM     24  H   UNL     1       3.716   4.072  16.998  0.00  0.00    +0.000 HD
BRANCH  21  25
ATOM     25  C   UNL     1       5.669   3.941  16.166  0.00  0.00    +0.000 C 
BRANCH  25  26
ATOM     26  C   UNL     1       6.852   4.885  16.454  0.00  0.00    +0.000 C 
BRANCH  26  28
ATOM     27  C   UNL     1       5.185   6.575  15.893  0.00  0.00    +0.000 C 
ATOM     28  N   UNL     1       6.597   6.317  16.183  0.00  0.00    +0.000 NA
ATOM     29  C   UNL     1       7.015   7.122  17.336  0.00  0.00    +0.000 C 
ENDBRANCH  26  28
ENDBRANCH  25  26
ENDBRANCH  21  25
ENDBRANCH   1  22
TORSDOF 5
ENDMDL
MODEL 7
REMARK VINA RESULT:      -8.1      3.696      7.444
REMARK  Name = 
REMARK  7 active torsions:
REMARK  status: ('A' for Active; 'I' for Inactive)
REMARK    1  A    between atoms: C_1  and  N_2
REMARK    2  A    between atoms: N_2  and  C_3
REMARK    3  A    between atoms: N_2  and  C_4
REMARK    4  A    between atoms: C_4  and  C_5
REMARK    5  A    between atoms: C_5  and  N_6
REMARK    6  A    between atoms: C_7  and  C_9
REMARK    7  A    between atoms: C_15  and  C_16
REMARK                            x       y       z     vdW  Elec       q    Type
REMARK                         _______ _______ _______ _____ _____    ______ ____
ROOT
ATOM      1  C   UNL     1       0.588  10.592  20.302  0.00  0.00    +0.000 A 
ATOM      2  C   UNL     1      -0.073  10.924  21.500  0.00  0.00    +0.000 A 
ATOM      3  C   UNL     1      -0.154  10.014  22.556  0.00  0.00    +0.000 A 
ATOM      4  C   UNL     1       0.396   8.733  22.448  0.00  0.00    +0.000 A 
ATOM      5  C   UNL     1       1.020   8.417  21.239  0.00  0.00    +0.000 A 
ATOM      6  N   UNL     1       1.622   7.270  20.793  0.00  0.00    +0.000 N 
ATOM      7  C   UNL     1       2.069   7.465  19.506  0.00  0.00    +0.000 A 
ATOM      8  N   UNL     1       1.816   8.707  19.132  0.00  0.00    +0.000 NA
ATOM      9  C   UNL     1       1.141   9.306  20.176  0.00  0.00    +0.000 A 
ATOM     10  H   UNL     1       1.688   6.403  21.307  0.00  0.00    +0.000 HD
ENDROOT
BRANCH   7  11
ATOM     11  C   UNL     1       2.711   6.404  18.708  0.00  0.00    +0.000 A 
ATOM     12  C   UNL     1       3.748   6.770  17.826  0.00  0.00    +0.000 A 
ATOM     13  C   UNL     1       4.405   5.816  17.054  0.00  0.00    +0.000 A 
ATOM     14  C   UNL     1       4.035   4.479  17.148  0.00  0.00    +0.000 A 
ATOM     15  C   UNL     1       3.009   4.075  18.014  0.00  0.00    +0.000 A 
ATOM     16  C   UNL     1       2.668   2.712  18.091  0.00  0.00    +0.000 A 
ATOM     17  C   UNL     1       1.659   2.270  18.944  0.00  0.00    +0.000 A 
ATOM     18  C   UNL     1       0.979   3.184  19.733  0.00  0.00    +0.000 A 
ATOM     19  C   UNL     1       1.309   4.542  19.667  0.00  0.00    +0.000 A 
ATOM     20  C   UNL     1       2.326   5.033  18.809  0.00  0.00    +0.000 A 
ENDBRANCH   7  11
BRANCH   1  22
ATOM     21  N   UNL     1       1.929  12.127  18.967  0.00  0.00    +0.000 N 
ATOM     22  C   UNL     1       0.682  11.610  19.233  0.00  0.00    +0.000 C 
ATOM     23  O   UNL     1      -0.340  11.990  18.667  0.00  0.00    +0.000 OA
ATOM     24  H   UNL     1       2.754  11.655  19.340  0.00  0.00    +0.000 HD
BRANCH  21  25
ATOM     25  C   UNL     1       2.128  13.134  17.946  0.00  0.00    +0.000 C 
BRANCH  25  26
ATOM     26  C   UNL     1       2.759  14.427  18.496  0.00  0.00    +0.000 C 
BRANCH  26  28
ATOM     27  C   UNL     1       3.206  16.598  17.478  0.00  0.00    +0.000 C 
ATOM     28  N   UNL     1       3.588  15.185  17.534  0.00  0.00    +0.000 NA
ATOM     29  C   UNL     1       5.003  15.075  17.903  0.00  0.00    +0.000 C 
ENDBRANCH  26  28
ENDBRANCH  25  26
ENDBRANCH  21  25
ENDBRANCH   1  22
TORSDOF 5
ENDMDL
MODEL 8
REMARK VINA RESULT:      -8.1      1.246      1.638
REMARK  Name = 
REMARK  7 active torsions:
REMARK  status: ('A' for Active; 'I' for Inactive)
REMARK    1  A    between atoms: C_1  and  N_2
REMARK    2  A    between atoms: N_2  and  C_3
REMARK    3  A    between atoms: N_2  and  C_4
REMARK    4  A    between atoms: C_4  and  C_5
REMARK    5  A    between atoms: C_5  and  N_6
REMARK    6  A    between atoms: C_7  and  C_9
REMARK    7  A    between atoms: C_15  and  C_16
REMARK                            x       y       z     vdW  Elec       q    Type
REMARK                         _______ _______ _______ _____ _____    ______ ____
ROOT
ATOM      1  C   UNL     1       3.644   4.257  19.709  0.00  0.00    +0.000 A 
ATOM      2  C   UNL     1       3.373   3.000  20.283  0.00  0.00    +0.000 A 
ATOM      3  C   UNL     1       2.209   2.779  21.021  0.00  0.00    +0.000 A 
ATOM      4  C   UNL     1       1.286   3.807  21.237  0.00  0.00    +0.000 A 
ATOM      5  C   UNL     1       1.590   5.052  20.682  0.00  0.00    +0.000 A 
ATOM      6  N   UNL     1       0.937   6.256  20.725  0.00  0.00    +0.000 N 
ATOM      7  C   UNL     1       1.670   7.191  20.028  0.00  0.00    +0.000 A 
ATOM      8  N   UNL     1       2.740   6.617  19.506  0.00  0.00    +0.000 NA
ATOM      9  C   UNL     1       2.728   5.302  19.922  0.00  0.00    +0.000 A 
ATOM     10  H   UNL     1       0.081   6.442  21.225  0.00  0.00    +0.000 HD
ENDROOT
BRANCH   7  11
ATOM     11  C   UNL     1       1.278   8.609  19.931  0.00  0.00    +0.000 A 
ATOM     12  C   UNL     1       1.565   9.299  18.735  0.00  0.00    +0.000 A 
ATOM     13  C   UNL     1       1.211  10.634  18.573  0.00  0.00    +0.000 A 
ATOM     14  C   UNL     1       0.562  11.306  19.604  0.00  0.00    +0.000 A 
ATOM     15  C   UNL     1       0.258  10.656  20.807  0.00  0.00    +0.000 A 
ATOM     16  C   UNL     1      -0.408  11.363  21.825  0.00  0.00    +0.000 A 
ATOM     17  C   UNL     1      -0.735  10.751  23.033  0.00  0.00    +0.000 A 
ATOM     18  C   UNL     1      -0.402   9.421  23.238  0.00  0.00    +0.000 A 
ATOM     19  C   UNL     1       0.259   8.706  22.235  0.00  0.00    +0.000 A 
ATOM     20  C   UNL     1       0.612   9.293  20.994  0.00  0.00    +0.000 A 
ENDBRANCH   7  11
BRANCH   1  22
ATOM     21  N   UNL     1       4.790   5.246  17.800  0.00  0.00    +0.000 N 
ATOM     22  C   UNL     1       4.870   4.424  18.901  0.00  0.00    +0.000 C 
ATOM     23  O   UNL     1       5.883   3.796  19.200  0.00  0.00    +0.000 OA
ATOM     24  H   UNL     1       3.987   5.869  17.701  0.00  0.00    +0.000 HD
BRANCH  21  25
ATOM     25  C   UNL     1       5.932   5.470  16.937  0.00  0.00    +0.000 C 
BRANCH  25  26
ATOM     26  C   UNL     1       6.336   6.954  16.854  0.00  0.00    +0.000 C 
BRANCH  26  28
ATOM     27  C   UNL     1       7.839   8.702  17.649  0.00  0.00    +0.000 C 
ATOM     28  N   UNL     1       7.681   7.272  17.380  0.00  0.00    +0.000 NA
ATOM     29  C   UNL     1       7.925   6.513  18.611  0.00  0.00    +0.000 C 
ENDBRANCH  26  28
ENDBRANCH  25  26
ENDBRANCH  21  25
ENDBRANCH   1  22
TORSDOF 5
ENDMDL
MODEL 9
REMARK VINA RESULT:      -8.0      1.053      1.225
REMARK  Name = 
REMARK  7 active torsions:
REMARK  status: ('A' for Active; 'I' for Inactive)
REMARK    1  A    between atoms: C_1  and  N_2
REMARK    2  A    between atoms: N_2  and  C_3
REMARK    3  A    between atoms: N_2  and  C_4
REMARK    4  A    between atoms: C_4  and  C_5
REMARK    5  A    between atoms: C_5  and  N_6
REMARK    6  A    between atoms: C_7  and  C_9
REMARK    7  A    between atoms: C_15  and  C_16
REMARK                            x       y       z     vdW  Elec       q    Type
REMARK                         _______ _______ _______ _____ _____    ______ ____
ROOT
ATOM      1  C   UNL     1       3.887   4.568  19.694  0.00  0.00    +0.000 A 
ATOM      2  C   UNL     1       3.652   3.278  20.209  0.00  0.00    +0.000 A 
ATOM      3  C   UNL     1       2.456   2.967  20.859  0.00  0.00    +0.000 A 
ATOM      4  C   UNL     1       1.463   3.933  21.043  0.00  0.00    +0.000 A 
ATOM      5  C   UNL     1       1.730   5.212  20.550  0.00  0.00    +0.000 A 
ATOM      6  N   UNL     1       1.008   6.376  20.586  0.00  0.00    +0.000 N 
ATOM      7  C   UNL     1       1.729   7.374  19.970  0.00  0.00    +0.000 A 
ATOM      8  N   UNL     1       2.863   6.879  19.504  0.00  0.00    +0.000 NA
ATOM      9  C   UNL     1       2.899   5.552  19.877  0.00  0.00    +0.000 A 
ATOM     10  H   UNL     1       0.110   6.496  21.032  0.00  0.00    +0.000 HD
ENDROOT
BRANCH   7  11
ATOM     11  C   UNL     1       1.263   8.771  19.891  0.00  0.00    +0.000 A 
ATOM     12  C   UNL     1       1.485   9.479  18.692  0.00  0.00    +0.000 A 
ATOM     13  C   UNL     1       1.058  10.795  18.546  0.00  0.00    +0.000 A 
ATOM     14  C   UNL     1       0.402  11.429  19.597  0.00  0.00    +0.000 A 
ATOM     15  C   UNL     1       0.162  10.758  20.804  0.00  0.00    +0.000 A 
ATOM     16  C   UNL     1      -0.513  11.426  21.842  0.00  0.00    +0.000 A 
ATOM     17  C   UNL     1      -0.778  10.792  23.054  0.00  0.00    +0.000 A 
ATOM     18  C   UNL     1      -0.373   9.481  23.243  0.00  0.00    +0.000 A 
ATOM     19  C   UNL     1       0.298   8.804  22.220  0.00  0.00    +0.000 A 
ATOM     20  C   UNL     1       0.590   9.415  20.974  0.00  0.00    +0.000 A 
ENDBRANCH   7  11
BRANCH   1  22
ATOM     21  N   UNL     1       5.172   5.899  18.110  0.00  0.00    +0.000 N 
ATOM     22  C   UNL     1       5.152   4.831  18.977  0.00  0.00    +0.000 C 
ATOM     23  O   UNL     1       6.106   4.073  19.134  0.00  0.00    +0.000 OA
ATOM     24  H   UNL     1       4.419   6.588  18.151  0.00  0.00    +0.000 HD
BRANCH  21  25
ATOM     25  C   UNL     1       6.359   6.237  17.353  0.00  0.00    +0.000 C 
BRANCH  25  26
ATOM     26  C   UNL     1       6.201   5.972  15.844  0.00  0.00    +0.000 C 
BRANCH  26  28
ATOM     27  C   UNL     1       5.938   3.563  15.568  0.00  0.00    +0.000 C 
ATOM     28  N   UNL     1       6.814   4.717  15.356  0.00  0.00    +0.000 NA
ATOM     29  C   UNL     1       7.124   4.840  13.928  0.00  0.00    +0.000 C 
ENDBRANCH  26  28
ENDBRANCH  25  26
ENDBRANCH  21  25
ENDBRANCH   1  22
TORSDOF 5
ENDMDL
