MODEL 1
REMARK VINA RESULT:      -7.3      0.000      0.000
REMARK  Name = 
REMARK  10 active torsions:
REMARK  status: ('A' for Active; 'I' for Inactive)
REMARK    1  A    between atoms: C_1  and  C_2
REMARK    2  A    between atoms: C_2  and  N_3
REMARK    3  A    between atoms: N_3  and  C_4
REMARK    4  A    between atoms: N_3  and  C_6
REMARK    5  A    between atoms: C_4  and  C_5
REMARK    6  A    between atoms: C_6  and  C_7
REMARK    7  A    between atoms: C_7  and  N_8
REMARK    8  A    between atoms: C_9  and  C_11
REMARK    9  A    between atoms: N_13  and  C_14
REMARK   10  A    between atoms: C_21  and  C_22
REMARK                            x       y       z     vdW  Elec       q    Type
REMARK                         _______ _______ _______ _____ _____    ______ ____
ROOT
ATOM      1  C   UNL     1       2.458   6.922  19.454  0.00  0.00    +0.000 A 
ATOM      2  C   UNL     1       2.050   8.224  19.655  0.00  0.00    +0.000 A 
ATOM      3  N   UNL     1       1.213   8.239  20.718  0.00  0.00    +0.000 N 
ATOM      4  N   UNL     1       1.063   7.003  21.181  0.00  0.00    +0.000 NA
ATOM      5  C   UNL     1       1.798   6.175  20.417  0.00  0.00    +0.000 A 
ENDROOT
BRANCH   3   6
ATOM      6  C   UNL     1       0.564   9.385  21.310  0.00  0.00    +0.000 A 
ATOM      7  C   UNL     1       0.689  10.676  20.754  0.00  0.00    +0.000 A 
ATOM      8  C   UNL     1       0.049  11.769  21.348  0.00  0.00    +0.000 A 
ATOM      9  C   UNL     1      -0.724  11.591  22.496  0.00  0.00    +0.000 A 
ATOM     10  C   UNL     1      -0.855  10.320  23.058  0.00  0.00    +0.000 A 
ATOM     11  C   UNL     1      -0.218   9.224  22.471  0.00  0.00    +0.000 A 
ENDBRANCH   3   6
BRANCH   5  12
ATOM     12  C   UNL     1       1.784   4.707  20.585  0.00  0.00    +0.000 A 
ATOM     13  C   UNL     1       2.404   3.978  21.600  0.00  0.00    +0.000 A 
ATOM     14  C   UNL     1       2.256   2.597  21.464  0.00  0.00    +0.000 A 
ATOM     15  C   UNL     1       1.526   2.228  20.344  0.00  0.00    +0.000 A 
ATOM     16  S   UNL     1       1.088   3.621  19.507  0.00  0.00    +0.000 S 
ENDBRANCH   5  12
BRANCH   1  18
ATOM     17  N   UNL     1       3.798   7.186  17.385  0.00  0.00    +0.000 N 
ATOM     18  C   UNL     1       3.452   6.447  18.476  0.00  0.00    +0.000 C 
ATOM     19  O   UNL     1       4.002   5.380  18.698  0.00  0.00    +0.000 OA
ATOM     20  H   UNL     1       3.340   8.092  17.214  0.00  0.00    +0.000 HD
BRANCH  17  21
ATOM     21  C   UNL     1       4.813   6.731  16.443  0.00  0.00    +0.000 C 
BRANCH  21  22
ATOM     22  C   UNL     1       6.257   6.997  16.962  0.00  0.00    +0.000 C 
BRANCH  22  23
ATOM     23  N   UNL     1       7.226   5.928  16.608  0.00  0.00    +0.000 NA
BRANCH  23  25
ATOM     24  C   UNL     1       7.743   5.729  19.078  0.00  0.00    +0.000 C 
ATOM     25  C   UNL     1       7.486   5.011  17.752  0.00  0.00    +0.000 C 
ENDBRANCH  23  25
BRANCH  23  26
ATOM     26  C   UNL     1       6.814   5.226  15.359  0.00  0.00    +0.000 C 
ATOM     27  C   UNL     1       6.313   3.782  15.561  0.00  0.00    +0.000 C 
ENDBRANCH  23  26
ENDBRANCH  22  23
ENDBRANCH  21  22
ENDBRANCH  17  21
ENDBRANCH   1  18
TORSDOF 8
ENDMDL
MODEL 2
REMARK VINA RESULT:      -7.2      0.786      1.078
REMARK  Name = 
REMARK  10 active torsions:
REMARK  status: ('A' for Active; 'I' for Inactive)
REMARK    1  A    between atoms: C_1  and  C_2
REMARK    2  A    between atoms: C_2  and  N_3
REMARK    3  A    between atoms: N_3  and  C_4
REMARK    4  A    between atoms: N_3  and  C_6
REMARK    5  A    between atoms: C_4  and  C_5
REMARK    6  A    between atoms: C_6  and  C_7
REMARK    7  A    between atoms: C_7  and  N_8
REMARK    8  A    between atoms: C_9  and  C_11
REMARK    9  A    between atoms: N_13  and  C_14
REMARK   10  A    between atoms: C_21  and  C_22
REMARK                            x       y       z     vdW  Elec       q    Type
REMARK                         _______ _______ _______ _____ _____    ______ ____
ROOT
ATOM      1  C   UNL     1       2.573   6.722  19.564  0.00  0.00    +0.000 A 
ATOM      2  C   UNL     1       2.178   8.033  19.727  0.00  0.00    +0.000 A 
ATOM      3  N   UNL     1       1.226   8.065  20.688  0.00  0.00    +0.000 N 
ATOM      4  N   UNL     1       0.992   6.831  21.121  0.00  0.00    +0.000 NA
ATOM      5  C   UNL     1       1.788   5.988  20.440  0.00  0.00    +0.000 A 
ENDROOT
BRANCH   3   6
ATOM      6  C   UNL     1       0.543   9.225  21.211  0.00  0.00    +0.000 A 
ATOM      7  C   UNL     1       0.366  10.391  20.437  0.00  0.00    +0.000 A 
ATOM      8  C   UNL     1      -0.300  11.501  20.968  0.00  0.00    +0.000 A 
ATOM      9  C   UNL     1      -0.800  11.462  22.271  0.00  0.00    +0.000 A 
ATOM     10  C   UNL     1      -0.631  10.316  23.049  0.00  0.00    +0.000 A 
ATOM     11  C   UNL     1       0.034   9.204  22.525  0.00  0.00    +0.000 A 
ENDBRANCH   3   6
BRANCH   5  12
ATOM     12  C   UNL     1       1.717   4.520  20.594  0.00  0.00    +0.000 A 
ATOM     13  C   UNL     1       2.150   3.775  21.691  0.00  0.00    +0.000 A 
ATOM     14  C   UNL     1       1.998   2.398  21.525  0.00  0.00    +0.000 A 
ATOM     15  C   UNL     1       1.452   2.047  20.299  0.00  0.00    +0.000 A 
ATOM     16  S   UNL     1       1.183   3.451  19.411  0.00  0.00    +0.000 S 
ENDBRANCH   5  12
BRANCH   1  18
ATOM     17  N   UNL     1       3.677   6.460  17.360  0.00  0.00    +0.000 N 
ATOM     18  C   UNL     1       3.659   6.226  18.702  0.00  0.00    +0.000 C 
ATOM     19  O   UNL     1       4.581   5.630  19.237  0.00  0.00    +0.000 OA
ATOM     20  H   UNL     1       2.903   6.976  16.920  0.00  0.00    +0.000 HD
BRANCH  17  21
ATOM     21  C   UNL     1       4.776   6.004  16.518  0.00  0.00    +0.000 C 
BRANCH  21  22
ATOM     22  C   UNL     1       5.886   7.085  16.364  0.00  0.00    +0.000 C 
BRANCH  22  23
ATOM     23  N   UNL     1       7.250   6.592  16.687  0.00  0.00    +0.000 NA
BRANCH  23  25
ATOM     24  C   UNL     1       8.012   8.707  17.850  0.00  0.00    +0.000 C 
ATOM     25  C   UNL     1       7.779   7.198  17.939  0.00  0.00    +0.000 C 
ENDBRANCH  23  25
BRANCH  23  26
ATOM     26  C   UNL     1       7.296   5.102  16.675  0.00  0.00    +0.000 C 
ATOM     27  C   UNL     1       7.853   4.460  17.961  0.00  0.00    +0.000 C 
ENDBRANCH  23  26
ENDBRANCH  22  23
ENDBRANCH  21  22
ENDBRANCH  17  21
ENDBRANCH   1  18
TORSDOF 8
ENDMDL
MODEL 3
REMARK VINA RESULT:      -7.1      2.238      3.274
REMARK  Name = 
REMARK  10 active torsions:
REMARK  status: ('A' for Active; 'I' for Inactive)
REMARK    1  A    between atoms: C_1  and  C_2
REMARK    2  A    between atoms: C_2  and  N_3
REMARK    3  A    between atoms: N_3  and  C_4
REMARK    4  A    between atoms: N_3  and  C_6
REMARK    5  A    between atoms: C_4  and  C_5
REMARK    6  A    between atoms: C_6  and  C_7
REMARK    7  A    between atoms: C_7  and  N_8
REMARK    8  A    between atoms: C_9  and  C_11
REMARK    9  A    between atoms: N_13  and  C_14
REMARK   10  A    between atoms: C_21  and  C_22
REMARK                            x       y       z     vdW  Elec       q    Type
REMARK                         _______ _______ _______ _____ _____    ______ ____
ROOT
ATOM      1  C   UNL     1       3.864   6.467  17.582  0.00  0.00    +0.000 A 
ATOM      2  C   UNL     1       3.315   7.721  17.748  0.00  0.00    +0.000 A 
ATOM      3  N   UNL     1       2.393   7.645  18.735  0.00  0.00    +0.000 N 
ATOM      4  N   UNL     1       2.324   6.396  19.182  0.00  0.00    +0.000 NA
ATOM      5  C   UNL     1       3.199   5.650  18.484  0.00  0.00    +0.000 A 
ENDROOT
BRANCH   3   6
ATOM      6  C   UNL     1       1.587   8.717  19.270  0.00  0.00    +0.000 A 
ATOM      7  C   UNL     1       1.172   8.729  20.618  0.00  0.00    +0.000 A 
ATOM      8  C   UNL     1       0.391   9.780  21.111  0.00  0.00    +0.000 A 
ATOM      9  C   UNL     1       0.018  10.831  20.272  0.00  0.00    +0.000 A 
ATOM     10  C   UNL     1       0.420  10.832  18.936  0.00  0.00    +0.000 A 
ATOM     11  C   UNL     1       1.199   9.784  18.436  0.00  0.00    +0.000 A 
ENDBRANCH   3   6
BRANCH   5  12
ATOM     12  C   UNL     1       3.313   4.186  18.649  0.00  0.00    +0.000 A 
ATOM     13  C   UNL     1       4.039   3.512  19.632  0.00  0.00    +0.000 A 
ATOM     14  C   UNL     1       3.998   2.124  19.500  0.00  0.00    +0.000 A 
ATOM     15  C   UNL     1       3.249   1.694  18.415  0.00  0.00    +0.000 A 
ATOM     16  S   UNL     1       2.659   3.044  17.603  0.00  0.00    +0.000 S 
ENDBRANCH   5  12
BRANCH   1  18
ATOM     17  N   UNL     1       5.723   4.977  16.899  0.00  0.00    +0.000 N 
ATOM     18  C   UNL     1       4.980   6.099  16.694  0.00  0.00    +0.000 C 
ATOM     19  O   UNL     1       5.193   6.813  15.726  0.00  0.00    +0.000 OA
ATOM     20  H   UNL     1       5.527   4.373  17.709  0.00  0.00    +0.000 HD
BRANCH  17  21
ATOM     21  C   UNL     1       6.799   4.595  15.993  0.00  0.00    +0.000 C 
BRANCH  21  22
ATOM     22  C   UNL     1       6.279   3.774  14.776  0.00  0.00    +0.000 C 
BRANCH  22  23
ATOM     23  N   UNL     1       6.489   4.445  13.467  0.00  0.00    +0.000 NA
BRANCH  23  25
ATOM     24  C   UNL     1       8.087   5.831  12.078  0.00  0.00    +0.000 C 
ATOM     25  C   UNL     1       7.744   5.246  13.448  0.00  0.00    +0.000 C 
ENDBRANCH  23  25
BRANCH  23  26
ATOM     26  C   UNL     1       6.382   3.470  12.345  0.00  0.00    +0.000 C 
ATOM     27  C   UNL     1       4.942   3.128  11.918  0.00  0.00    +0.000 C 
ENDBRANCH  23  26
ENDBRANCH  22  23
ENDBRANCH  21  22
ENDBRANCH  17  21
ENDBRANCH   1  18
TORSDOF 8
ENDMDL
MODEL 4
REMARK VINA RESULT:      -7.1      0.943      1.758
REMARK  Name = 
REMARK  10 active torsions:
REMARK  status: ('A' for Active; 'I' for Inactive)
REMARK    1  A    between atoms: C_1  and  C_2
REMARK    2  A    between atoms: C_2  and  N_3
REMARK    3  A    between atoms: N_3  and  C_4
REMARK    4  A    between atoms: N_3  and  C_6
REMARK    5  A    between atoms: C_4  and  C_5
REMARK    6  A    between atoms: C_6  and  C_7
REMARK    7  A    between atoms: C_7  and  N_8
REMARK    8  A    between atoms: C_9  and  C_11
REMARK    9  A    between atoms: N_13  and  C_14
REMARK   10  A    between atoms: C_21  and  C_22
REMARK                            x       y       z     vdW  Elec       q    Type
REMARK                         _______ _______ _______ _____ _____    ______ ____
ROOT
ATOM      1  C   UNL     1       2.309   6.957  19.380  0.00  0.00    +0.000 A 
ATOM      2  C   UNL     1       1.894   8.260  19.560  0.00  0.00    +0.000 A 
ATOM      3  N   UNL     1       1.152   8.309  20.690  0.00  0.00    +0.000 N 
ATOM      4  N   UNL     1       1.066   7.093  21.216  0.00  0.00    +0.000 NA
ATOM      5  C   UNL     1       1.748   6.243  20.428  0.00  0.00    +0.000 A 
ENDROOT
BRANCH   3   6
ATOM      6  C   UNL     1       0.534   9.469  21.287  0.00  0.00    +0.000 A 
ATOM      7  C   UNL     1       0.700  10.760  20.740  0.00  0.00    +0.000 A 
ATOM      8  C   UNL     1       0.090  11.867  21.338  0.00  0.00    +0.000 A 
ATOM      9  C   UNL     1      -0.694  11.705  22.482  0.00  0.00    +0.000 A 
ATOM     10  C   UNL     1      -0.866  10.435  23.034  0.00  0.00    +0.000 A 
ATOM     11  C   UNL     1      -0.258   9.324  22.442  0.00  0.00    +0.000 A 
ENDBRANCH   3   6
BRANCH   5  12
ATOM     12  C   UNL     1       1.777   4.784  20.659  0.00  0.00    +0.000 A 
ATOM     13  C   UNL     1       2.552   4.104  21.598  0.00  0.00    +0.000 A 
ATOM     14  C   UNL     1       2.401   2.718  21.546  0.00  0.00    +0.000 A 
ATOM     15  C   UNL     1       1.515   2.295  20.566  0.00  0.00    +0.000 A 
ATOM     16  S   UNL     1       0.939   3.647  19.746  0.00  0.00    +0.000 S 
ENDBRANCH   5  12
BRANCH   1  18
ATOM     17  N   UNL     1       3.432   5.123  18.149  0.00  0.00    +0.000 N 
ATOM     18  C   UNL     1       3.224   6.455  18.341  0.00  0.00    +0.000 C 
ATOM     19  O   UNL     1       3.763   7.276  17.615  0.00  0.00    +0.000 OA
ATOM     20  H   UNL     1       2.962   4.438  18.756  0.00  0.00    +0.000 HD
BRANCH  17  21
ATOM     21  C   UNL     1       4.306   4.630  17.091  0.00  0.00    +0.000 C 
BRANCH  21  22
ATOM     22  C   UNL     1       5.779   4.476  17.569  0.00  0.00    +0.000 C 
BRANCH  22  23
ATOM     23  N   UNL     1       6.759   5.220  16.736  0.00  0.00    +0.000 NA
BRANCH  23  25
ATOM     24  C   UNL     1       6.844   4.712  14.257  0.00  0.00    +0.000 C 
ATOM     25  C   UNL     1       6.217   5.533  15.385  0.00  0.00    +0.000 C 
ENDBRANCH  23  25
BRANCH  23  26
ATOM     26  C   UNL     1       7.283   6.411  17.463  0.00  0.00    +0.000 C 
ATOM     27  C   UNL     1       7.844   6.119  18.868  0.00  0.00    +0.000 C 
ENDBRANCH  23  26
ENDBRANCH  22  23
ENDBRANCH  21  22
ENDBRANCH  17  21
ENDBRANCH   1  18
TORSDOF 8
ENDMDL
MODEL 5
REMARK VINA RESULT:      -7.1      0.810      1.694
REMARK  Name = 
REMARK  10 active torsions:
REMARK  status: ('A' for Active; 'I' for Inactive)
REMARK    1  A    between atoms: C_1  and  C_2
REMARK    2  A    between atoms: C_2  and  N_3
REMARK    3  A    between atoms: N_3  and  C_4
REMARK    4  A    between atoms: N_3  and  C_6
REMARK    5  A    between atoms: C_4  and  C_5
REMARK    6  A    between atoms: C_6  and  C_7
REMARK    7  A    between atoms: C_7  and  N_8
REMARK    8  A    between atoms: C_9  and  C_11
REMARK    9  A    between atoms: N_13  and  C_14
REMARK   10  A    between atoms: C_21  and  C_22
REMARK                            x       y       z     vdW  Elec       q    Type
REMARK                         _______ _______ _______ _____ _____    ______ ____
ROOT
ATOM      1  C   UNL     1       2.295   7.025  19.137  0.00  0.00    +0.000 A 
ATOM      2  C   UNL     1       1.812   8.297  19.360  0.00  0.00    +0.000 A 
ATOM      3  N   UNL     1       1.196   8.305  20.565  0.00  0.00    +0.000 N 
ATOM      4  N   UNL     1       1.254   7.090  21.099  0.00  0.00    +0.000 NA
ATOM      5  C   UNL     1       1.904   6.283  20.241  0.00  0.00    +0.000 A 
ENDROOT
BRANCH   3   6
ATOM      6  C   UNL     1       0.567   9.424  21.224  0.00  0.00    +0.000 A 
ATOM      7  C   UNL     1       0.665  10.735  20.712  0.00  0.00    +0.000 A 
ATOM      8  C   UNL     1       0.045  11.802  21.371  0.00  0.00    +0.000 A 
ATOM      9  C   UNL     1      -0.681  11.579  22.541  0.00  0.00    +0.000 A 
ATOM     10  C   UNL     1      -0.785  10.287  23.060  0.00  0.00    +0.000 A 
ATOM     11  C   UNL     1      -0.167   9.217  22.408  0.00  0.00    +0.000 A 
ENDBRANCH   3   6
BRANCH   5  12
ATOM     12  C   UNL     1       2.060   4.832  20.469  0.00  0.00    +0.000 A 
ATOM     13  C   UNL     1       1.037   3.903  20.662  0.00  0.00    +0.000 A 
ATOM     14  C   UNL     1       1.497   2.609  20.904  0.00  0.00    +0.000 A 
ATOM     15  C   UNL     1       2.881   2.507  20.909  0.00  0.00    +0.000 A 
ATOM     16  S   UNL     1       3.531   4.035  20.638  0.00  0.00    +0.000 S 
ENDBRANCH   5  12
BRANCH   1  18
ATOM     17  N   UNL     1       4.095   7.370  17.468  0.00  0.00    +0.000 N 
ATOM     18  C   UNL     1       3.124   6.579  18.005  0.00  0.00    +0.000 C 
ATOM     19  O   UNL     1       2.948   5.446  17.584  0.00  0.00    +0.000 OA
ATOM     20  H   UNL     1       4.246   8.318  17.839  0.00  0.00    +0.000 HD
BRANCH  17  21
ATOM     21  C   UNL     1       4.942   6.908  16.376  0.00  0.00    +0.000 C 
BRANCH  21  22
ATOM     22  C   UNL     1       6.371   6.526  16.861  0.00  0.00    +0.000 C 
BRANCH  22  23
ATOM     23  N   UNL     1       6.675   5.076  16.746  0.00  0.00    +0.000 NA
BRANCH  23  25
ATOM     24  C   UNL     1       6.083   3.927  14.570  0.00  0.00    +0.000 C 
ATOM     25  C   UNL     1       7.122   4.708  15.375  0.00  0.00    +0.000 C 
ENDBRANCH  23  25
BRANCH  23  26
ATOM     26  C   UNL     1       7.613   4.641  17.820  0.00  0.00    +0.000 C 
ATOM     27  C   UNL     1       7.830   5.670  18.947  0.00  0.00    +0.000 C 
ENDBRANCH  23  26
ENDBRANCH  22  23
ENDBRANCH  21  22
ENDBRANCH  17  21
ENDBRANCH   1  18
TORSDOF 8
ENDMDL
MODEL 6
REMARK VINA RESULT:      -7.0      2.234      8.075
REMARK  Name = 
REMARK  10 active torsions:
REMARK  status: ('A' for Active; 'I' for Inactive)
REMARK    1  A    between atoms: C_1  and  C_2
REMARK    2  A    between atoms: C_2  and  N_3
REMARK    3  A    between atoms: N_3  and  C_4
REMARK    4  A    between atoms: N_3  and  C_6
REMARK    5  A    between atoms: C_4  and  C_5
REMARK    6  A    between atoms: C_6  and  C_7
REMARK    7  A    between atoms: C_7  and  N_8
REMARK    8  A    between atoms: C_9  and  C_11
REMARK    9  A    between atoms: N_13  and  C_14
REMARK   10  A    between atoms: C_21  and  C_22
REMARK                            x       y       z     vdW  Elec       q    Type
REMARK                         _______ _______ _______ _____ _____    ______ ____
ROOT
ATOM      1  C   UNL     1       3.815   5.806  17.467  0.00  0.00    +0.000 A 
ATOM      2  C   UNL     1       4.696   6.040  16.433  0.00  0.00    +0.000 A 
ATOM      3  N   UNL     1       4.916   4.865  15.798  0.00  0.00    +0.000 N 
ATOM      4  N   UNL     1       4.228   3.902  16.400  0.00  0.00    +0.000 NA
ATOM      5  C   UNL     1       3.559   4.444  17.433  0.00  0.00    +0.000 A 
ENDROOT
BRANCH   3   6
ATOM      6  C   UNL     1       5.747   4.633  14.640  0.00  0.00    +0.000 A 
ATOM      7  C   UNL     1       7.006   5.252  14.496  0.00  0.00    +0.000 A 
ATOM      8  C   UNL     1       7.791   5.009  13.364  0.00  0.00    +0.000 A 
ATOM      9  C   UNL     1       7.336   4.147  12.366  0.00  0.00    +0.000 A 
ATOM     10  C   UNL     1       6.091   3.528  12.494  0.00  0.00    +0.000 A 
ATOM     11  C   UNL     1       5.301   3.768  13.622  0.00  0.00    +0.000 A 
ENDBRANCH   3   6
BRANCH   5  12
ATOM     12  C   UNL     1       2.770   3.638  18.388  0.00  0.00    +0.000 A 
ATOM     13  C   UNL     1       1.398   3.394  18.336  0.00  0.00    +0.000 A 
ATOM     14  C   UNL     1       0.926   2.636  19.409  0.00  0.00    +0.000 A 
ATOM     15  C   UNL     1       1.917   2.284  20.314  0.00  0.00    +0.000 A 
ATOM     16  S   UNL     1       3.376   2.939  19.791  0.00  0.00    +0.000 S 
ENDBRANCH   5  12
BRANCH   1  18
ATOM     17  N   UNL     1       2.551   7.899  17.874  0.00  0.00    +0.000 N 
ATOM     18  C   UNL     1       3.211   6.811  18.359  0.00  0.00    +0.000 C 
ATOM     19  O   UNL     1       3.277   6.614  19.562  0.00  0.00    +0.000 OA
ATOM     20  H   UNL     1       2.487   8.049  16.858  0.00  0.00    +0.000 HD
BRANCH  17  21
ATOM     21  C   UNL     1       1.917   8.867  18.760  0.00  0.00    +0.000 C 
BRANCH  21  22
ATOM     22  C   UNL     1       0.833   9.713  18.029  0.00  0.00    +0.000 C 
BRANCH  22  23
ATOM     23  N   UNL     1       0.153  10.701  18.905  0.00  0.00    +0.000 NA
BRANCH  23  25
ATOM     24  C   UNL     1      -1.732  10.009  17.365  0.00  0.00    +0.000 C 
ATOM     25  C   UNL     1      -1.279  10.877  18.540  0.00  0.00    +0.000 C 
ENDBRANCH  23  25
BRANCH  23  26
ATOM     26  C   UNL     1       0.370  10.377  20.344  0.00  0.00    +0.000 C 
ATOM     27  C   UNL     1      -0.670  10.980  21.309  0.00  0.00    +0.000 C 
ENDBRANCH  23  26
ENDBRANCH  22  23
ENDBRANCH  21  22
ENDBRANCH  17  21
ENDBRANCH   1  18
TORSDOF 8
ENDMDL
MODEL 7
REMARK VINA RESULT:      -7.0      4.345      6.835
REMARK  Name = 
REMARK  10 active torsions:
REMARK  status: ('A' for Active; 'I' for Inactive)
REMARK    1  A    between atoms: C_1  and  C_2
REMARK    2  A    between atoms: C_2  and  N_3
REMARK    3  A    between atoms: N_3  and  C_4
REMARK    4  A    between atoms: N_3  and  C_6
REMARK    5  A    between atoms: C_4  and  C_5
REMARK    6  A    between atoms: C_6  and  C_7
REMARK    7  A    between atoms: C_7  and  N_8
REMARK    8  A    between atoms: C_9  and  C_11
REMARK    9  A    between atoms: N_13  and  C_14
REMARK   10  A    between atoms: C_21  and  C_22
REMARK                            x       y       z     vdW  Elec       q    Type
REMARK                         _______ _______ _______ _____ _____    ______ ____
ROOT
ATOM      1  C   UNL     1       5.748   4.696  16.530  0.00  0.00    +0.000 A 
ATOM      2  C   UNL     1       4.670   3.869  16.762  0.00  0.00    +0.000 A 
ATOM      3  N   UNL     1       4.026   4.320  17.863  0.00  0.00    +0.000 N 
ATOM      4  N   UNL     1       4.663   5.382  18.344  0.00  0.00    +0.000 NA
ATOM      5  C   UNL     1       5.729   5.625  17.560  0.00  0.00    +0.000 A 
ENDROOT
BRANCH   3   6
ATOM      6  C   UNL     1       2.827   3.785  18.463  0.00  0.00    +0.000 A 
ATOM      7  C   UNL     1       2.202   2.624  17.959  0.00  0.00    +0.000 A 
ATOM      8  C   UNL     1       1.041   2.126  18.560  0.00  0.00    +0.000 A 
ATOM      9  C   UNL     1       0.491   2.771  19.668  0.00  0.00    +0.000 A 
ATOM     10  C   UNL     1       1.098   3.921  20.177  0.00  0.00    +0.000 A 
ATOM     11  C   UNL     1       2.257   4.425  19.581  0.00  0.00    +0.000 A 
ENDBRANCH   3   6
BRANCH   5  12
ATOM     12  C   UNL     1       6.723   6.674  17.863  0.00  0.00    +0.000 A 
ATOM     13  C   UNL     1       6.821   7.928  17.259  0.00  0.00    +0.000 A 
ATOM     14  C   UNL     1       7.898   8.686  17.720  0.00  0.00    +0.000 A 
ATOM     15  C   UNL     1       8.657   8.038  18.683  0.00  0.00    +0.000 A 
ATOM     16  S   UNL     1       8.003   6.509  18.940  0.00  0.00    +0.000 S 
ENDBRANCH   5  12
BRANCH   1  18
ATOM     17  N   UNL     1       6.231   4.812  14.102  0.00  0.00    +0.000 N 
ATOM     18  C   UNL     1       6.669   4.649  15.382  0.00  0.00    +0.000 C 
ATOM     19  O   UNL     1       7.859   4.506  15.614  0.00  0.00    +0.000 OA
ATOM     20  H   UNL     1       5.228   4.947  13.917  0.00  0.00    +0.000 HD
BRANCH  17  21
ATOM     21  C   UNL     1       7.152   4.808  12.972  0.00  0.00    +0.000 C 
BRANCH  21  22
ATOM     22  C   UNL     1       6.937   3.578  12.043  0.00  0.00    +0.000 C 
BRANCH  22  23
ATOM     23  N   UNL     1       5.566   3.010  12.108  0.00  0.00    +0.000 NA
BRANCH  23  25
ATOM     24  C   UNL     1       3.469   3.208  10.703  0.00  0.00    +0.000 C 
ATOM     25  C   UNL     1       4.557   3.924  11.506  0.00  0.00    +0.000 C 
ENDBRANCH  23  25
BRANCH  23  26
ATOM     26  C   UNL     1       5.533   1.628  11.549  0.00  0.00    +0.000 C 
ATOM     27  C   UNL     1       6.836   1.174  10.864  0.00  0.00    +0.000 C 
ENDBRANCH  23  26
ENDBRANCH  22  23
ENDBRANCH  21  22
ENDBRANCH  17  21
ENDBRANCH   1  18
TORSDOF 8
ENDMDL
MODEL 8
REMARK VINA RESULT:      -7.0      0.703      1.612
REMARK  Name = 
REMARK  10 active torsions:
REMARK  status: ('A' for Active; 'I' for Inactive)
REMARK    1  A    between atoms: C_1  and  C_2
REMARK    2  A    between atoms: C_2  and  N_3
REMARK    3  A    between atoms: N_3  and  C_4
REMARK    4  A    between atoms: N_3  and  C_6
REMARK    5  A    between atoms: C_4  and  C_5
REMARK    6  A    between atoms: C_6  and  C_7
REMARK    7  A    between atoms: C_7  and  N_8
REMARK    8  A    between atoms: C_9  and  C_11
REMARK    9  A    between atoms: N_13  and  C_14
REMARK   10  A    between atoms: C_21  and  C_22
REMARK                            x       y       z     vdW  Elec       q    Type
REMARK                         _______ _______ _______ _____ _____    ______ ____
ROOT
ATOM      1  C   UNL     1       2.472   6.979  19.597  0.00  0.00    +0.000 A 
ATOM      2  C   UNL     1       2.010   8.261  19.805  0.00  0.00    +0.000 A 
ATOM      3  N   UNL     1       1.059   8.211  20.765  0.00  0.00    +0.000 N 
ATOM      4  N   UNL     1       0.889   6.953  21.155  0.00  0.00    +0.000 NA
ATOM      5  C   UNL     1       1.726   6.175  20.446  0.00  0.00    +0.000 A 
ENDROOT
BRANCH   3   6
ATOM      6  C   UNL     1       0.317   9.315  21.328  0.00  0.00    +0.000 A 
ATOM      7  C   UNL     1       0.081  10.497  20.594  0.00  0.00    +0.000 A 
ATOM      8  C   UNL     1      -0.641  11.552  21.163  0.00  0.00    +0.000 A 
ATOM      9  C   UNL     1      -1.138  11.443  22.462  0.00  0.00    +0.000 A 
ATOM     10  C   UNL     1      -0.910  10.280  23.200  0.00  0.00    +0.000 A 
ATOM     11  C   UNL     1      -0.189   9.223  22.639  0.00  0.00    +0.000 A 
ENDBRANCH   3   6
BRANCH   5  12
ATOM     12  C   UNL     1       1.731   4.701  20.549  0.00  0.00    +0.000 A 
ATOM     13  C   UNL     1       2.194   3.942  21.624  0.00  0.00    +0.000 A 
ATOM     14  C   UNL     1       2.115   2.566  21.409  0.00  0.00    +0.000 A 
ATOM     15  C   UNL     1       1.598   2.230  20.167  0.00  0.00    +0.000 A 
ATOM     16  S   UNL     1       1.262   3.648  19.325  0.00  0.00    +0.000 S 
ENDBRANCH   5  12
BRANCH   1  18
ATOM     17  N   UNL     1       3.737   7.083  17.468  0.00  0.00    +0.000 N 
ATOM     18  C   UNL     1       3.582   6.569  18.720  0.00  0.00    +0.000 C 
ATOM     19  O   UNL     1       4.398   5.779  19.168  0.00  0.00    +0.000 OA
ATOM     20  H   UNL     1       3.052   7.760  17.104  0.00  0.00    +0.000 HD
BRANCH  17  21
ATOM     21  C   UNL     1       4.861   6.707  16.620  0.00  0.00    +0.000 C 
BRANCH  21  22
ATOM     22  C   UNL     1       4.785   5.219  16.169  0.00  0.00    +0.000 C 
BRANCH  22  23
ATOM     23  N   UNL     1       6.043   4.460  16.395  0.00  0.00    +0.000 NA
BRANCH  23  25
ATOM     24  C   UNL     1       5.793   4.132  13.898  0.00  0.00    +0.000 C 
ATOM     25  C   UNL     1       6.428   3.654  15.204  0.00  0.00    +0.000 C 
ENDBRANCH  23  25
BRANCH  23  26
ATOM     26  C   UNL     1       7.126   5.358  16.888  0.00  0.00    +0.000 C 
ATOM     27  C   UNL     1       7.718   4.968  18.257  0.00  0.00    +0.000 C 
ENDBRANCH  23  26
ENDBRANCH  22  23
ENDBRANCH  21  22
ENDBRANCH  17  21
ENDBRANCH   1  18
TORSDOF 8
ENDMDL
MODEL 9
REMARK VINA RESULT:      -7.0      0.715      1.286
REMARK  Name = 
REMARK  10 active torsions:
REMARK  status: ('A' for Active; 'I' for Inactive)
REMARK    1  A    between atoms: C_1  and  C_2
REMARK    2  A    between atoms: C_2  and  N_3
REMARK    3  A    between atoms: N_3  and  C_4
REMARK    4  A    between atoms: N_3  and  C_6
REMARK    5  A    between atoms: C_4  and  C_5
REMARK    6  A    between atoms: C_6  and  C_7
REMARK    7  A    between atoms: C_7  and  N_8
REMARK    8  A    between atoms: C_9  and  C_11
REMARK    9  A    between atoms: N_13  and  C_14
REMARK   10  A    between atoms: C_21  and  C_22
REMARK                            x       y       z     vdW  Elec       q    Type
REMARK                         _______ _______ _______ _____ _____    ______ ____
ROOT
ATOM      1  C   UNL     1       2.224   7.025  19.230  0.00  0.00    +0.000 A 
ATOM      2  C   UNL     1       1.825   8.328  19.439  0.00  0.00    +0.000 A 
ATOM      3  N   UNL     1       1.122   8.369  20.595  0.00  0.00    +0.000 N 
ATOM      4  N   UNL     1       1.047   7.147  21.110  0.00  0.00    +0.000 NA
ATOM      5  C   UNL     1       1.696   6.302  20.289  0.00  0.00    +0.000 A 
ENDROOT
BRANCH   3   6
ATOM      6  C   UNL     1       0.533   9.526  21.226  0.00  0.00    +0.000 A 
ATOM      7  C   UNL     1      -0.252   9.413  22.393  0.00  0.00    +0.000 A 
ATOM      8  C   UNL     1      -0.811  10.550  22.985  0.00  0.00    +0.000 A 
ATOM      9  C   UNL     1      -0.593  11.811  22.427  0.00  0.00    +0.000 A 
ATOM     10  C   UNL     1       0.180  11.938  21.272  0.00  0.00    +0.000 A 
ATOM     11  C   UNL     1       0.740  10.805  20.675  0.00  0.00    +0.000 A 
ENDBRANCH   3   6
BRANCH   5  12
ATOM     12  C   UNL     1       1.723   4.840  20.502  0.00  0.00    +0.000 A 
ATOM     13  C   UNL     1       0.878   3.897  19.917  0.00  0.00    +0.000 A 
ATOM     14  C   UNL     1       1.113   2.592  20.351  0.00  0.00    +0.000 A 
ATOM     15  C   UNL     1       2.137   2.497  21.282  0.00  0.00    +0.000 A 
ATOM     16  S   UNL     1       2.732   4.042  21.584  0.00  0.00    +0.000 S 
ENDBRANCH   5  12
BRANCH   1  18
ATOM     17  N   UNL     1       4.104   7.290  17.636  0.00  0.00    +0.000 N 
ATOM     18  C   UNL     1       3.099   6.529  18.154  0.00  0.00    +0.000 C 
ATOM     19  O   UNL     1       2.928   5.384  17.766  0.00  0.00    +0.000 OA
ATOM     20  H   UNL     1       4.250   8.249  17.980  0.00  0.00    +0.000 HD
BRANCH  17  21
ATOM     21  C   UNL     1       4.994   6.779  16.602  0.00  0.00    +0.000 C 
BRANCH  21  22
ATOM     22  C   UNL     1       6.494   6.934  16.988  0.00  0.00    +0.000 C 
BRANCH  22  23
ATOM     23  N   UNL     1       7.327   5.754  16.639  0.00  0.00    +0.000 NA
BRANCH  23  25
ATOM     24  C   UNL     1       7.762   5.555  19.124  0.00  0.00    +0.000 C 
ATOM     25  C   UNL     1       7.510   4.838  17.798  0.00  0.00    +0.000 C 
ENDBRANCH  23  25
BRANCH  23  26
ATOM     26  C   UNL     1       6.808   5.078  15.415  0.00  0.00    +0.000 C 
ATOM     27  C   UNL     1       6.156   3.703  15.661  0.00  0.00    +0.000 C 
ENDBRANCH  23  26
ENDBRANCH  22  23
ENDBRANCH  21  22
ENDBRANCH  17  21
ENDBRANCH   1  18
TORSDOF 8
ENDMDL
