MODEL 1
REMARK VINA RESULT:      -8.4      0.000      0.000
REMARK  Name = 
REMARK  7 active torsions:
REMARK  status: ('A' for Active; 'I' for Inactive)
REMARK    1  A    between atoms: N_1  and  C_2
REMARK    2  A    between atoms: C_2  and  N_4
REMARK    3  A    between atoms: N_4  and  N_5
REMARK    4  A    between atoms: C_6  and  C_7
REMARK    5  A    between atoms: C_6  and  C_14
REMARK    6  A    between atoms: C_7  and  C_8
REMARK    7  A    between atoms: C_17  and  C_18
REMARK                            x       y       z     vdW  Elec       q    Type
REMARK                         _______ _______ _______ _____ _____    ______ ____
ROOT
ATOM      1  N   UNL     1       5.261   3.958  14.220  0.00  0.00    +0.000 NA
ATOM      2  C   UNL     1       5.653   4.161  15.445  0.00  0.00    +0.000 C 
ENDROOT
BRANCH   2   3
ATOM      3  C   UNL     1       4.562   4.133  16.474  0.00  0.00    +0.000 A 
ATOM      4  C   UNL     1       3.884   2.971  16.836  0.00  0.00    +0.000 A 
ATOM      5  C   UNL     1       2.809   3.033  17.733  0.00  0.00    +0.000 A 
ATOM      6  C   UNL     1       2.384   4.250  18.295  0.00  0.00    +0.000 A 
ATOM      7  C   UNL     1       3.050   5.412  17.882  0.00  0.00    +0.000 A 
ATOM      8  C   UNL     1       4.130   5.354  17.000  0.00  0.00    +0.000 A 
BRANCH   6   9
ATOM      9  C   UNL     1       1.193   4.311  19.257  0.00  0.00    +0.000 C 
ATOM     10  C   UNL     1       0.673   2.931  19.717  0.00  0.00    +0.000 C 
ATOM     11  C   UNL     1       1.667   2.215  20.632  0.00  0.00    +0.000 C 
ATOM     12  C   UNL     1       2.044   3.062  21.844  0.00  0.00    +0.000 C 
ATOM     13  C   UNL     1       2.436   4.491  21.484  0.00  0.00    +0.000 C 
ATOM     14  C   UNL     1       1.428   5.147  20.538  0.00  0.00    +0.000 C 
ENDBRANCH   6   9
ENDBRANCH   2   3
BRANCH   1  15
ATOM     15  N   UNL     1       6.145   3.878  13.199  0.00  0.00    +0.000 N 
ATOM     16  H   UNL     1       7.036   4.365  13.229  0.00  0.00    +0.000 HD
BRANCH  15  17
ATOM     17  C   UNL     1       5.840   3.109  12.102  0.00  0.00    +0.000 C 
ATOM     18  S   UNL     1       4.371   3.169  11.342  0.00  0.00    +0.000 S 
BRANCH  17  19
ATOM     19  N   UNL     1       6.840   2.295  11.678  0.00  0.00    +0.000 N 
ATOM     20  H   UNL     1       7.059   1.431  12.151  0.00  0.00    +0.000 HD
ATOM     21  H   UNL     1       7.256   2.520  10.785  0.00  0.00    +0.000 HD
ENDBRANCH  17  19
ENDBRANCH  15  17
ENDBRANCH   1  15
BRANCH   2  22
ATOM     22  C   UNL     1       7.092   4.329  15.909  0.00  0.00    +0.000 C 
BRANCH  22  23
ATOM     23  C   UNL     1       7.345   5.349  16.997  0.00  0.00    +0.000 A 
ATOM     24  C   UNL     1       7.723   4.962  18.290  0.00  0.00    +0.000 A 
ATOM     25  C   UNL     1       8.127   5.919  19.225  0.00  0.00    +0.000 A 
ATOM     26  C   UNL     1       8.159   7.270  18.877  0.00  0.00    +0.000 A 
ATOM     27  C   UNL     1       7.768   7.668  17.603  0.00  0.00    +0.000 A 
ATOM     28  C   UNL     1       7.365   6.713  16.668  0.00  0.00    +0.000 A 
ENDBRANCH  22  23
ENDBRANCH   2  22
TORSDOF 7
ENDMDL
MODEL 2
REMARK VINA RESULT:      -8.4      6.395      8.702
REMARK  Name = 
REMARK  7 active torsions:
REMARK  status: ('A' for Active; 'I' for Inactive)
REMARK    1  A    between atoms: N_1  and  C_2
REMARK    2  A    between atoms: C_2  and  N_4
REMARK    3  A    between atoms: N_4  and  N_5
REMARK    4  A    between atoms: C_6  and  C_7
REMARK    5  A    between atoms: C_6  and  C_14
REMARK    6  A    between atoms: C_7  and  C_8
REMARK    7  A    between atoms: C_17  and  C_18
REMARK                            x       y       z     vdW  Elec       q    Type
REMARK                         _______ _______ _______ _____ _____    ______ ____
ROOT
ATOM      1  N   UNL     1       1.958  11.202  18.203  0.00  0.00    +0.000 NA
ATOM      2  C   UNL     1       1.081  10.465  18.822  0.00  0.00    +0.000 C 
ENDROOT
BRANCH   2   3
ATOM      3  C   UNL     1       1.503   9.047  19.069  0.00  0.00    +0.000 A 
ATOM      4  C   UNL     1       1.392   8.423  20.310  0.00  0.00    +0.000 A 
ATOM      5  C   UNL     1       1.896   7.128  20.495  0.00  0.00    +0.000 A 
ATOM      6  C   UNL     1       2.518   6.420  19.451  0.00  0.00    +0.000 A 
ATOM      7  C   UNL     1       2.660   7.085  18.224  0.00  0.00    +0.000 A 
ATOM      8  C   UNL     1       2.147   8.368  18.031  0.00  0.00    +0.000 A 
BRANCH   6   9
ATOM      9  C   UNL     1       3.086   5.015  19.669  0.00  0.00    +0.000 C 
ATOM     10  C   UNL     1       2.367   4.198  20.765  0.00  0.00    +0.000 C 
ATOM     11  C   UNL     1       0.946   3.808  20.355  0.00  0.00    +0.000 C 
ATOM     12  C   UNL     1       0.919   3.046  19.033  0.00  0.00    +0.000 C 
ATOM     13  C   UNL     1       1.730   3.719  17.931  0.00  0.00    +0.000 C 
ATOM     14  C   UNL     1       3.128   4.122  18.405  0.00  0.00    +0.000 C 
ENDBRANCH   6   9
ENDBRANCH   2   3
BRANCH   1  15
ATOM     15  N   UNL     1       1.746  12.519  17.982  0.00  0.00    +0.000 N 
ATOM     16  H   UNL     1       0.989  12.842  17.387  0.00  0.00    +0.000 HD
BRANCH  15  17
ATOM     17  C   UNL     1       2.561  13.445  18.588  0.00  0.00    +0.000 C 
ATOM     18  S   UNL     1       2.495  13.776  20.208  0.00  0.00    +0.000 S 
BRANCH  17  19
ATOM     19  N   UNL     1       3.437  14.067  17.758  0.00  0.00    +0.000 N 
ATOM     20  H   UNL     1       4.422  13.847  17.763  0.00  0.00    +0.000 HD
ATOM     21  H   UNL     1       3.037  14.651  17.038  0.00  0.00    +0.000 HD
ENDBRANCH  17  19
ENDBRANCH  15  17
ENDBRANCH   1  15
BRANCH   2  22
ATOM     22  C   UNL     1      -0.256  10.938  19.375  0.00  0.00    +0.000 C 
BRANCH  22  23
ATOM     23  C   UNL     1      -1.437  10.900  18.433  0.00  0.00    +0.000 A 
ATOM     24  C   UNL     1      -1.494   9.994  17.365  0.00  0.00    +0.000 A 
ATOM     25  C   UNL     1      -2.669   9.852  16.621  0.00  0.00    +0.000 A 
ATOM     26  C   UNL     1      -3.796  10.611  16.935  0.00  0.00    +0.000 A 
ATOM     27  C   UNL     1      -3.744  11.529  17.979  0.00  0.00    +0.000 A 
ATOM     28  C   UNL     1      -2.574  11.671  18.725  0.00  0.00    +0.000 A 
ENDBRANCH  22  23
ENDBRANCH   2  22
TORSDOF 7
ENDMDL
MODEL 3
REMARK VINA RESULT:      -8.2      6.547      8.866
REMARK  Name = 
REMARK  7 active torsions:
REMARK  status: ('A' for Active; 'I' for Inactive)
REMARK    1  A    between atoms: N_1  and  C_2
REMARK    2  A    between atoms: C_2  and  N_4
REMARK    3  A    between atoms: N_4  and  N_5
REMARK    4  A    between atoms: C_6  and  C_7
REMARK    5  A    between atoms: C_6  and  C_14
REMARK    6  A    between atoms: C_7  and  C_8
REMARK    7  A    between atoms: C_17  and  C_18
REMARK                            x       y       z     vdW  Elec       q    Type
REMARK                         _______ _______ _______ _____ _____    ______ ____
ROOT
ATOM      1  N   UNL     1       1.361  11.325  18.770  0.00  0.00    +0.000 NA
ATOM      2  C   UNL     1       0.610  10.307  19.078  0.00  0.00    +0.000 C 
ENDROOT
BRANCH   2   3
ATOM      3  C   UNL     1       1.334   8.998  19.202  0.00  0.00    +0.000 A 
ATOM      4  C   UNL     1       1.954   8.364  18.126  0.00  0.00    +0.000 A 
ATOM      5  C   UNL     1       2.527   7.096  18.292  0.00  0.00    +0.000 A 
ATOM      6  C   UNL     1       2.503   6.429  19.530  0.00  0.00    +0.000 A 
ATOM      7  C   UNL     1       1.834   7.065  20.585  0.00  0.00    +0.000 A 
ATOM      8  C   UNL     1       1.274   8.333  20.430  0.00  0.00    +0.000 A 
BRANCH   6   9
ATOM      9  C   UNL     1       3.112   5.034  19.695  0.00  0.00    +0.000 C 
ATOM     10  C   UNL     1       2.448   4.173  20.793  0.00  0.00    +0.000 C 
ATOM     11  C   UNL     1       1.025   3.757  20.417  0.00  0.00    +0.000 C 
ATOM     12  C   UNL     1       0.976   3.025  19.078  0.00  0.00    +0.000 C 
ATOM     13  C   UNL     1       1.735   3.746  17.968  0.00  0.00    +0.000 C 
ATOM     14  C   UNL     1       3.137   4.173  18.410  0.00  0.00    +0.000 C 
ENDBRANCH   6   9
ENDBRANCH   2   3
BRANCH   1  15
ATOM     15  N   UNL     1       0.859  12.579  18.701  0.00  0.00    +0.000 N 
ATOM     16  H   UNL     1      -0.130  12.762  18.839  0.00  0.00    +0.000 HD
BRANCH  15  17
ATOM     17  C   UNL     1       1.707  13.632  18.456  0.00  0.00    +0.000 C 
ATOM     18  S   UNL     1       1.435  15.158  19.036  0.00  0.00    +0.000 S 
BRANCH  17  19
ATOM     19  N   UNL     1       2.796  13.328  17.705  0.00  0.00    +0.000 N 
ATOM     20  H   UNL     1       2.885  12.440  17.233  0.00  0.00    +0.000 HD
ATOM     21  H   UNL     1       3.442  14.082  17.522  0.00  0.00    +0.000 HD
ENDBRANCH  17  19
ENDBRANCH  15  17
ENDBRANCH   1  15
BRANCH   2  22
ATOM     22  C   UNL     1      -0.876  10.354  19.400  0.00  0.00    +0.000 C 
BRANCH  22  23
ATOM     23  C   UNL     1      -1.819  10.583  18.241  0.00  0.00    +0.000 A 
ATOM     24  C   UNL     1      -1.703   9.858  17.047  0.00  0.00    +0.000 A 
ATOM     25  C   UNL     1      -2.691   9.954  16.063  0.00  0.00    +0.000 A 
ATOM     26  C   UNL     1      -3.803  10.772  16.261  0.00  0.00    +0.000 A 
ATOM     27  C   UNL     1      -3.919  11.512  17.434  0.00  0.00    +0.000 A 
ATOM     28  C   UNL     1      -2.935  11.417  18.418  0.00  0.00    +0.000 A 
ENDBRANCH  22  23
ENDBRANCH   2  22
TORSDOF 7
ENDMDL
MODEL 4
REMARK VINA RESULT:      -8.1      6.915      9.254
REMARK  Name = 
REMARK  7 active torsions:
REMARK  status: ('A' for Active; 'I' for Inactive)
REMARK    1  A    between atoms: N_1  and  C_2
REMARK    2  A    between atoms: C_2  and  N_4
REMARK    3  A    between atoms: N_4  and  N_5
REMARK    4  A    between atoms: C_6  and  C_7
REMARK    5  A    between atoms: C_6  and  C_14
REMARK    6  A    between atoms: C_7  and  C_8
REMARK    7  A    between atoms: C_17  and  C_18
REMARK                            x       y       z     vdW  Elec       q    Type
REMARK                         _______ _______ _______ _____ _____    ______ ____
ROOT
ATOM      1  N   UNL     1       0.938  11.862  18.713  0.00  0.00    +0.000 NA
ATOM      2  C   UNL     1       0.260  10.791  19.011  0.00  0.00    +0.000 C 
ENDROOT
BRANCH   2   3
ATOM      3  C   UNL     1       1.070   9.531  19.100  0.00  0.00    +0.000 A 
ATOM      4  C   UNL     1       1.687   8.941  17.998  0.00  0.00    +0.000 A 
ATOM      5  C   UNL     1       2.346   7.712  18.135  0.00  0.00    +0.000 A 
ATOM      6  C   UNL     1       2.412   7.041  19.369  0.00  0.00    +0.000 A 
ATOM      7  C   UNL     1       1.744   7.629  20.453  0.00  0.00    +0.000 A 
ATOM      8  C   UNL     1       1.099   8.859  20.326  0.00  0.00    +0.000 A 
BRANCH   6   9
ATOM      9  C   UNL     1       3.114   5.687  19.504  0.00  0.00    +0.000 C 
ATOM     10  C   UNL     1       2.548   4.782  20.621  0.00  0.00    +0.000 C 
ATOM     11  C   UNL     1       1.141   4.277  20.297  0.00  0.00    +0.000 C 
ATOM     12  C   UNL     1       1.088   3.548  18.956  0.00  0.00    +0.000 C 
ATOM     13  C   UNL     1       1.757   4.319  17.823  0.00  0.00    +0.000 C 
ATOM     14  C   UNL     1       3.145   4.833  18.213  0.00  0.00    +0.000 C 
ENDBRANCH   6   9
ENDBRANCH   2   3
BRANCH   1  15
ATOM     15  N   UNL     1       0.354  13.081  18.675  0.00  0.00    +0.000 N 
ATOM     16  H   UNL     1      -0.656  13.185  18.646  0.00  0.00    +0.000 HD
BRANCH  15  17
ATOM     17  C   UNL     1       1.142  14.208  18.692  0.00  0.00    +0.000 C 
ATOM     18  S   UNL     1       0.545  15.717  19.011  0.00  0.00    +0.000 S 
BRANCH  17  19
ATOM     19  N   UNL     1       2.457  13.990  18.434  0.00  0.00    +0.000 N 
ATOM     20  H   UNL     1       3.110  13.748  19.165  0.00  0.00    +0.000 HD
ATOM     21  H   UNL     1       2.722  13.938  17.461  0.00  0.00    +0.000 HD
ENDBRANCH  17  19
ENDBRANCH  15  17
ENDBRANCH   1  15
BRANCH   2  22
ATOM     22  C   UNL     1      -1.221  10.735  19.352  0.00  0.00    +0.000 C 
BRANCH  22  23
ATOM     23  C   UNL     1      -2.188  10.655  18.192  0.00  0.00    +0.000 A 
ATOM     24  C   UNL     1      -3.340  11.452  18.143  0.00  0.00    +0.000 A 
ATOM     25  C   UNL     1      -4.120  11.496  16.984  0.00  0.00    +0.000 A 
ATOM     26  C   UNL     1      -3.757  10.747  15.864  0.00  0.00    +0.000 A 
ATOM     27  C   UNL     1      -2.627   9.937  15.908  0.00  0.00    +0.000 A 
ATOM     28  C   UNL     1      -1.846   9.893  17.064  0.00  0.00    +0.000 A 
ENDBRANCH  22  23
ENDBRANCH   2  22
TORSDOF 7
ENDMDL
MODEL 5
REMARK VINA RESULT:      -8.1      6.716      9.083
REMARK  Name = 
REMARK  7 active torsions:
REMARK  status: ('A' for Active; 'I' for Inactive)
REMARK    1  A    between atoms: N_1  and  C_2
REMARK    2  A    between atoms: C_2  and  N_4
REMARK    3  A    between atoms: N_4  and  N_5
REMARK    4  A    between atoms: C_6  and  C_7
REMARK    5  A    between atoms: C_6  and  C_14
REMARK    6  A    between atoms: C_7  and  C_8
REMARK    7  A    between atoms: C_17  and  C_18
REMARK                            x       y       z     vdW  Elec       q    Type
REMARK                         _______ _______ _______ _____ _____    ______ ____
ROOT
ATOM      1  N   UNL     1       1.438  11.605  18.369  0.00  0.00    +0.000 NA
ATOM      2  C   UNL     1       0.597  10.754  18.884  0.00  0.00    +0.000 C 
ENDROOT
BRANCH   2   3
ATOM      3  C   UNL     1       1.148   9.377  19.115  0.00  0.00    +0.000 A 
ATOM      4  C   UNL     1       1.126   8.745  20.357  0.00  0.00    +0.000 A 
ATOM      5  C   UNL     1       1.745   7.499  20.524  0.00  0.00    +0.000 A 
ATOM      6  C   UNL     1       2.398   6.849  19.461  0.00  0.00    +0.000 A 
ATOM      7  C   UNL     1       2.447   7.524  18.233  0.00  0.00    +0.000 A 
ATOM      8  C   UNL     1       1.820   8.758  18.058  0.00  0.00    +0.000 A 
BRANCH   6   9
ATOM      9  C   UNL     1       3.092   5.498  19.658  0.00  0.00    +0.000 C 
ATOM     10  C   UNL     1       2.431   4.590  20.719  0.00  0.00    +0.000 C 
ATOM     11  C   UNL     1       1.062   4.079  20.269  0.00  0.00    +0.000 C 
ATOM     12  C   UNL     1       1.134   3.351  18.929  0.00  0.00    +0.000 C 
ATOM     13  C   UNL     1       1.899   4.125  17.861  0.00  0.00    +0.000 C 
ATOM     14  C   UNL     1       3.243   4.646  18.376  0.00  0.00    +0.000 C 
ENDBRANCH   6   9
ENDBRANCH   2   3
BRANCH   1  15
ATOM     15  N   UNL     1       1.103  12.902  18.179  0.00  0.00    +0.000 N 
ATOM     16  H   UNL     1       0.345  13.169  17.557  0.00  0.00    +0.000 HD
BRANCH  15  17
ATOM     17  C   UNL     1       1.793  13.882  18.852  0.00  0.00    +0.000 C 
ATOM     18  S   UNL     1       3.362  14.277  18.505  0.00  0.00    +0.000 S 
BRANCH  17  19
ATOM     19  N   UNL     1       1.087  14.512  19.825  0.00  0.00    +0.000 N 
ATOM     20  H   UNL     1       0.450  14.013  20.429  0.00  0.00    +0.000 HD
ATOM     21  H   UNL     1       1.337  15.472  20.012  0.00  0.00    +0.000 HD
ENDBRANCH  17  19
ENDBRANCH  15  17
ENDBRANCH   1  15
BRANCH   2  22
ATOM     22  C   UNL     1      -0.823  11.059  19.338  0.00  0.00    +0.000 C 
BRANCH  22  23
ATOM     23  C   UNL     1      -1.926  10.840  18.327  0.00  0.00    +0.000 A 
ATOM     24  C   UNL     1      -3.114  11.583  18.366  0.00  0.00    +0.000 A 
ATOM     25  C   UNL     1      -4.038  11.493  17.321  0.00  0.00    +0.000 A 
ATOM     26  C   UNL     1      -3.785  10.664  16.229  0.00  0.00    +0.000 A 
ATOM     27  C   UNL     1      -2.618   9.907  16.189  0.00  0.00    +0.000 A 
ATOM     28  C   UNL     1      -1.694   9.995  17.230  0.00  0.00    +0.000 A 
ENDBRANCH  22  23
ENDBRANCH   2  22
TORSDOF 7
ENDMDL
MODEL 6
REMARK VINA RESULT:      -8.1      0.738      1.220
REMARK  Name = 
REMARK  7 active torsions:
REMARK  status: ('A' for Active; 'I' for Inactive)
REMARK    1  A    between atoms: N_1  and  C_2
REMARK    2  A    between atoms: C_2  and  N_4
REMARK    3  A    between atoms: N_4  and  N_5
REMARK    4  A    between atoms: C_6  and  C_7
REMARK    5  A    between atoms: C_6  and  C_14
REMARK    6  A    between atoms: C_7  and  C_8
REMARK    7  A    between atoms: C_17  and  C_18
REMARK                            x       y       z     vdW  Elec       q    Type
REMARK                         _______ _______ _______ _____ _____    ______ ____
ROOT
ATOM      1  N   UNL     1       5.366   3.907  14.246  0.00  0.00    +0.000 NA
ATOM      2  C   UNL     1       5.663   4.165  15.488  0.00  0.00    +0.000 C 
ENDROOT
BRANCH   2   3
ATOM      3  C   UNL     1       4.484   4.302  16.407  0.00  0.00    +0.000 A 
ATOM      4  C   UNL     1       4.147   5.495  17.042  0.00  0.00    +0.000 A 
ATOM      5  C   UNL     1       3.091   5.528  17.964  0.00  0.00    +0.000 A 
ATOM      6  C   UNL     1       2.343   4.378  18.273  0.00  0.00    +0.000 A 
ATOM      7  C   UNL     1       2.729   3.179  17.656  0.00  0.00    +0.000 A 
ATOM      8  C   UNL     1       3.770   3.144  16.728  0.00  0.00    +0.000 A 
BRANCH   6   9
ATOM      9  C   UNL     1       1.206   4.419  19.298  0.00  0.00    +0.000 C 
ATOM     10  C   UNL     1       0.660   3.031  19.702  0.00  0.00    +0.000 C 
ATOM     11  C   UNL     1       1.674   2.228  20.518  0.00  0.00    +0.000 C 
ATOM     12  C   UNL     1       2.142   2.986  21.757  0.00  0.00    +0.000 C 
ATOM     13  C   UNL     1       2.567   4.421  21.462  0.00  0.00    +0.000 C 
ATOM     14  C   UNL     1       1.535   5.166  20.612  0.00  0.00    +0.000 C 
ENDBRANCH   6   9
ENDBRANCH   2   3
BRANCH   1  15
ATOM     15  N   UNL     1       6.328   3.681  13.322  0.00  0.00    +0.000 N 
ATOM     16  H   UNL     1       7.299   3.924  13.496  0.00  0.00    +0.000 HD
BRANCH  15  17
ATOM     17  C   UNL     1       5.989   3.094  12.126  0.00  0.00    +0.000 C 
ATOM     18  S   UNL     1       7.060   2.214  11.222  0.00  0.00    +0.000 S 
BRANCH  17  19
ATOM     19  N   UNL     1       4.702   3.284  11.740  0.00  0.00    +0.000 N 
ATOM     20  H   UNL     1       4.092   2.510  11.523  0.00  0.00    +0.000 HD
ATOM     21  H   UNL     1       4.342   4.224  11.820  0.00  0.00    +0.000 HD
ENDBRANCH  17  19
ENDBRANCH  15  17
ENDBRANCH   1  15
BRANCH   2  22
ATOM     22  C   UNL     1       7.063   4.246  16.077  0.00  0.00    +0.000 C 
BRANCH  22  23
ATOM     23  C   UNL     1       7.320   5.347  17.080  0.00  0.00    +0.000 A 
ATOM     24  C   UNL     1       7.716   5.063  18.394  0.00  0.00    +0.000 A 
ATOM     25  C   UNL     1       8.123   6.093  19.248  0.00  0.00    +0.000 A 
ATOM     26  C   UNL     1       8.140   7.413  18.798  0.00  0.00    +0.000 A 
ATOM     27  C   UNL     1       7.730   7.709  17.502  0.00  0.00    +0.000 A 
ATOM     28  C   UNL     1       7.325   6.683  16.648  0.00  0.00    +0.000 A 
ENDBRANCH  22  23
ENDBRANCH   2  22
TORSDOF 7
ENDMDL
MODEL 7
REMARK VINA RESULT:      -8.0      6.742      9.438
REMARK  Name = 
REMARK  7 active torsions:
REMARK  status: ('A' for Active; 'I' for Inactive)
REMARK    1  A    between atoms: N_1  and  C_2
REMARK    2  A    between atoms: C_2  and  N_4
REMARK    3  A    between atoms: N_4  and  N_5
REMARK    4  A    between atoms: C_6  and  C_7
REMARK    5  A    between atoms: C_6  and  C_14
REMARK    6  A    between atoms: C_7  and  C_8
REMARK    7  A    between atoms: C_17  and  C_18
REMARK                            x       y       z     vdW  Elec       q    Type
REMARK                         _______ _______ _______ _____ _____    ______ ____
ROOT
ATOM      1  N   UNL     1       0.814  10.075  21.141  0.00  0.00    +0.000 NA
ATOM      2  C   UNL     1       0.901  10.033  19.842  0.00  0.00    +0.000 C 
ENDROOT
BRANCH   2   3
ATOM      3  C   UNL     1       1.581   8.814  19.290  0.00  0.00    +0.000 A 
ATOM      4  C   UNL     1       1.834   7.672  20.048  0.00  0.00    +0.000 A 
ATOM      5  C   UNL     1       2.560   6.608  19.496  0.00  0.00    +0.000 A 
ATOM      6  C   UNL     1       3.049   6.650  18.178  0.00  0.00    +0.000 A 
ATOM      7  C   UNL     1       2.822   7.827  17.450  0.00  0.00    +0.000 A 
ATOM      8  C   UNL     1       2.088   8.883  17.989  0.00  0.00    +0.000 A 
BRANCH   6   9
ATOM      9  C   UNL     1       3.861   5.492  17.591  0.00  0.00    +0.000 C 
ATOM     10  C   UNL     1       4.874   5.909  16.503  0.00  0.00    +0.000 C 
ATOM     11  C   UNL     1       6.031   6.730  17.076  0.00  0.00    +0.000 C 
ATOM     12  C   UNL     1       6.749   5.998  18.206  0.00  0.00    +0.000 C 
ATOM     13  C   UNL     1       5.800   5.429  19.256  0.00  0.00    +0.000 C 
ATOM     14  C   UNL     1       4.643   4.650  18.627  0.00  0.00    +0.000 C 
ENDBRANCH   6   9
ENDBRANCH   2   3
BRANCH   1  15
ATOM     15  N   UNL     1       0.159  11.074  21.774  0.00  0.00    +0.000 N 
ATOM     16  H   UNL     1       0.346  12.050  21.561  0.00  0.00    +0.000 HD
BRANCH  15  17
ATOM     17  C   UNL     1      -0.794  10.765  22.715  0.00  0.00    +0.000 C 
ATOM     18  S   UNL     1      -2.043  11.782  23.096  0.00  0.00    +0.000 S 
BRANCH  17  19
ATOM     19  N   UNL     1      -0.641   9.554  23.309  0.00  0.00    +0.000 N 
ATOM     20  H   UNL     1      -1.127   8.734  22.978  0.00  0.00    +0.000 HD
ATOM     21  H   UNL     1       0.091   9.482  24.001  0.00  0.00    +0.000 HD
ENDBRANCH  17  19
ENDBRANCH  15  17
ENDBRANCH   1  15
BRANCH   2  22
ATOM     22  C   UNL     1       0.308  11.043  18.871  0.00  0.00    +0.000 C 
BRANCH  22  23
ATOM     23  C   UNL     1      -1.139  10.848  18.482  0.00  0.00    +0.000 A 
ATOM     24  C   UNL     1      -2.152  11.673  18.991  0.00  0.00    +0.000 A 
ATOM     25  C   UNL     1      -3.451  11.594  18.481  0.00  0.00    +0.000 A 
ATOM     26  C   UNL     1      -3.751  10.694  17.459  0.00  0.00    +0.000 A 
ATOM     27  C   UNL     1      -2.759   9.856  16.960  0.00  0.00    +0.000 A 
ATOM     28  C   UNL     1      -1.461   9.934  17.467  0.00  0.00    +0.000 A 
ENDBRANCH  22  23
ENDBRANCH   2  22
TORSDOF 7
ENDMDL
MODEL 8
REMARK VINA RESULT:      -8.0      4.628      6.862
REMARK  Name = 
REMARK  7 active torsions:
REMARK  status: ('A' for Active; 'I' for Inactive)
REMARK    1  A    between atoms: N_1  and  C_2
REMARK    2  A    between atoms: C_2  and  N_4
REMARK    3  A    between atoms: N_4  and  N_5
REMARK    4  A    between atoms: C_6  and  C_7
REMARK    5  A    between atoms: C_6  and  C_14
REMARK    6  A    between atoms: C_7  and  C_8
REMARK    7  A    between atoms: C_17  and  C_18
REMARK                            x       y       z     vdW  Elec       q    Type
REMARK                         _______ _______ _______ _____ _____    ______ ____
ROOT
ATOM      1  N   UNL     1       4.295   6.668  17.860  0.00  0.00    +0.000 NA
ATOM      2  C   UNL     1       3.050   6.433  18.158  0.00  0.00    +0.000 C 
ENDROOT
BRANCH   2   3
ATOM      3  C   UNL     1       2.285   7.616  18.674  0.00  0.00    +0.000 A 
ATOM      4  C   UNL     1       1.908   7.758  20.009  0.00  0.00    +0.000 A 
ATOM      5  C   UNL     1       1.111   8.841  20.404  0.00  0.00    +0.000 A 
ATOM      6  C   UNL     1       0.673   9.811  19.485  0.00  0.00    +0.000 A 
ATOM      7  C   UNL     1       1.025   9.624  18.140  0.00  0.00    +0.000 A 
ATOM      8  C   UNL     1       1.830   8.555  17.744  0.00  0.00    +0.000 A 
BRANCH   6   9
ATOM      9  C   UNL     1      -0.217  10.978  19.922  0.00  0.00    +0.000 C 
ATOM     10  C   UNL     1       0.308  11.757  21.148  0.00  0.00    +0.000 C 
ATOM     11  C   UNL     1       1.579  12.547  20.829  0.00  0.00    +0.000 C 
ATOM     12  C   UNL     1       1.382  13.497  19.650  0.00  0.00    +0.000 C 
ATOM     13  C   UNL     1       0.733  12.833  18.440  0.00  0.00    +0.000 C 
ATOM     14  C   UNL     1      -0.510  12.027  18.822  0.00  0.00    +0.000 C 
ENDBRANCH   6   9
ENDBRANCH   2   3
BRANCH   1  15
ATOM     15  N   UNL     1       5.083   5.716  17.311  0.00  0.00    +0.000 N 
ATOM     16  H   UNL     1       4.741   5.103  16.576  0.00  0.00    +0.000 HD
BRANCH  15  17
ATOM     17  C   UNL     1       6.381   5.583  17.744  0.00  0.00    +0.000 C 
ATOM     18  S   UNL     1       7.459   6.838  17.752  0.00  0.00    +0.000 S 
BRANCH  17  19
ATOM     19  N   UNL     1       6.716   4.339  18.173  0.00  0.00    +0.000 N 
ATOM     20  H   UNL     1       7.313   3.732  17.632  0.00  0.00    +0.000 HD
ATOM     21  H   UNL     1       6.460   4.107  19.122  0.00  0.00    +0.000 HD
ENDBRANCH  17  19
ENDBRANCH  15  17
ENDBRANCH   1  15
BRANCH   2  22
ATOM     22  C   UNL     1       2.310   5.120  17.945  0.00  0.00    +0.000 C 
BRANCH  22  23
ATOM     23  C   UNL     1       2.307   4.142  19.097  0.00  0.00    +0.000 A 
ATOM     24  C   UNL     1       3.445   3.393  19.425  0.00  0.00    +0.000 A 
ATOM     25  C   UNL     1       3.478   2.635  20.599  0.00  0.00    +0.000 A 
ATOM     26  C   UNL     1       2.378   2.619  21.456  0.00  0.00    +0.000 A 
ATOM     27  C   UNL     1       1.235   3.343  21.131  0.00  0.00    +0.000 A 
ATOM     28  C   UNL     1       1.201   4.101  19.961  0.00  0.00    +0.000 A 
ENDBRANCH  22  23
ENDBRANCH   2  22
TORSDOF 7
ENDMDL
MODEL 9
REMARK VINA RESULT:      -8.0      3.115      4.672
REMARK  Name = 
REMARK  7 active torsions:
REMARK  status: ('A' for Active; 'I' for Inactive)
REMARK    1  A    between atoms: N_1  and  C_2
REMARK    2  A    between atoms: C_2  and  N_4
REMARK    3  A    between atoms: N_4  and  N_5
REMARK    4  A    between atoms: C_6  and  C_7
REMARK    5  A    between atoms: C_6  and  C_14
REMARK    6  A    between atoms: C_7  and  C_8
REMARK    7  A    between atoms: C_17  and  C_18
REMARK                            x       y       z     vdW  Elec       q    Type
REMARK                         _______ _______ _______ _____ _____    ______ ____
ROOT
ATOM      1  N   UNL     1       6.394   7.131  17.227  0.00  0.00    +0.000 NA
ATOM      2  C   UNL     1       6.276   5.874  16.907  0.00  0.00    +0.000 C 
ENDROOT
BRANCH   2   3
ATOM      3  C   UNL     1       4.957   5.250  17.257  0.00  0.00    +0.000 A 
ATOM      4  C   UNL     1       3.819   5.993  17.565  0.00  0.00    +0.000 A 
ATOM      5  C   UNL     1       2.647   5.346  17.979  0.00  0.00    +0.000 A 
ATOM      6  C   UNL     1       2.574   3.946  18.092  0.00  0.00    +0.000 A 
ATOM      7  C   UNL     1       3.744   3.222  17.821  0.00  0.00    +0.000 A 
ATOM      8  C   UNL     1       4.910   3.860  17.396  0.00  0.00    +0.000 A 
BRANCH   6   9
ATOM      9  C   UNL     1       1.296   3.250  18.566  0.00  0.00    +0.000 C 
ATOM     10  C   UNL     1       1.499   1.794  19.038  0.00  0.00    +0.000 C 
ATOM     11  C   UNL     1       2.297   1.715  20.341  0.00  0.00    +0.000 C 
ATOM     12  C   UNL     1       1.660   2.541  21.454  0.00  0.00    +0.000 C 
ATOM     13  C   UNL     1       1.296   3.958  21.023  0.00  0.00    +0.000 C 
ATOM     14  C   UNL     1       0.533   3.981  19.697  0.00  0.00    +0.000 C 
ENDBRANCH   6   9
ENDBRANCH   2   3
BRANCH   1  15
ATOM     15  N   UNL     1       7.497   7.843  16.902  0.00  0.00    +0.000 N 
ATOM     16  H   UNL     1       7.800   7.940  15.937  0.00  0.00    +0.000 HD
BRANCH  15  17
ATOM     17  C   UNL     1       8.216   8.463  17.895  0.00  0.00    +0.000 C 
ATOM     18  S   UNL     1       8.613  10.069  17.848  0.00  0.00    +0.000 S 
BRANCH  17  19
ATOM     19  N   UNL     1       8.575   7.660  18.929  0.00  0.00    +0.000 N 
ATOM     20  H   UNL     1       9.434   7.800  19.439  0.00  0.00    +0.000 HD
ATOM     21  H   UNL     1       7.875   7.009  19.256  0.00  0.00    +0.000 HD
ENDBRANCH  17  19
ENDBRANCH  15  17
ENDBRANCH   1  15
BRANCH   2  22
ATOM     22  C   UNL     1       7.301   5.042  16.151  0.00  0.00    +0.000 C 
BRANCH  22  23
ATOM     23  C   UNL     1       7.059   4.836  14.673  0.00  0.00    +0.000 A 
ATOM     24  C   UNL     1       7.824   5.502  13.705  0.00  0.00    +0.000 A 
ATOM     25  C   UNL     1       7.707   5.161  12.355  0.00  0.00    +0.000 A 
ATOM     26  C   UNL     1       6.828   4.154  11.958  0.00  0.00    +0.000 A 
ATOM     27  C   UNL     1       6.048   3.500  12.907  0.00  0.00    +0.000 A 
ATOM     28  C   UNL     1       6.164   3.837  14.256  0.00  0.00    +0.000 A 
ENDBRANCH  22  23
ENDBRANCH   2  22
TORSDOF 7
ENDMDL
