MODEL 1
REMARK VINA RESULT:      -8.3      0.000      0.000
REMARK  Name = 
REMARK  5 active torsions:
REMARK  status: ('A' for Active; 'I' for Inactive)
REMARK    1  A    between atoms: C_1  and  O_2
REMARK    2  A    between atoms: O_2  and  C_3
REMARK    3  A    between atoms: C_6  and  N_7
REMARK    4  A    between atoms: N_14  and  C_15
REMARK    5  A    between atoms: C_15  and  C_16
REMARK                            x       y       z     vdW  Elec       q    Type
REMARK                         _______ _______ _______ _____ _____    ______ ____
ROOT
ATOM      1  N   UNL     1       3.075   7.636  18.163  0.00  0.00    +0.000 N 
ATOM      2  C   UNL     1       3.256   6.247  18.153  0.00  0.00    +0.000 A 
ATOM      3  N   UNL     1       2.230   5.425  18.285  0.00  0.00    +0.000 NA
ATOM      4  C   UNL     1       2.558   4.157  18.386  0.00  0.00    +0.000 A 
ATOM      5 CL   UNL     1       1.262   3.070  18.628  0.00  0.00    +0.000 Cl
ATOM      6  N   UNL     1       3.770   3.628  18.371  0.00  0.00    +0.000 NA
ATOM      7  C   UNL     1       4.730   4.521  18.214  0.00  0.00    +0.000 A 
ATOM      8  N   UNL     1       6.015   4.027  18.315  0.00  0.00    +0.000 N 
ATOM      9  N   UNL     1       4.519   5.828  18.074  0.00  0.00    +0.000 NA
ATOM     10  H   UNL     1       3.989   8.072  18.189  0.00  0.00    +0.000 HD
ATOM     11  H   UNL     1       5.981   3.014  18.259  0.00  0.00    +0.000 HD
ENDROOT
BRANCH   1  15
ATOM     12  C   UNL     1      -0.024  10.015  19.814  0.00  0.00    +0.000 A 
ATOM     13  C   UNL     1       0.306  10.096  18.463  0.00  0.00    +0.000 A 
ATOM     14  C   UNL     1       1.310   9.281  17.924  0.00  0.00    +0.000 A 
ATOM     15  C   UNL     1       2.038   8.397  18.736  0.00  0.00    +0.000 A 
ATOM     16  C   UNL     1       1.667   8.307  20.083  0.00  0.00    +0.000 A 
ATOM     17  C   UNL     1       0.661   9.116  20.624  0.00  0.00    +0.000 A 
BRANCH  12  19
ATOM     18  C   UNL     1      -0.549  12.168  20.622  0.00  0.00    +0.000 C 
ATOM     19  O   UNL     1      -0.999  10.872  20.241  0.00  0.00    +0.000 OA
ENDBRANCH  12  19
ENDBRANCH   1  15
BRANCH   8  20
ATOM     20  C   UNL     1       7.048   4.630  17.494  0.00  0.00    +0.000 C 
BRANCH  20  21
ATOM     21  C   UNL     1       6.861   4.481  16.021  0.00  0.00    +0.000 A 
ATOM     22  C   UNL     1       6.075   3.659  15.240  0.00  0.00    +0.000 A 
ATOM     23  C   UNL     1       6.323   4.029  13.894  0.00  0.00    +0.000 A 
ATOM     24  C   UNL     1       7.244   5.047  13.941  0.00  0.00    +0.000 A 
ATOM     25  O   UNL     1       7.582   5.326  15.225  0.00  0.00    +0.000 OA
ENDBRANCH  20  21
ENDBRANCH   8  20
TORSDOF 4
ENDMDL
MODEL 2
REMARK VINA RESULT:      -8.3      0.373      1.066
REMARK  Name = 
REMARK  5 active torsions:
REMARK  status: ('A' for Active; 'I' for Inactive)
REMARK    1  A    between atoms: C_1  and  O_2
REMARK    2  A    between atoms: O_2  and  C_3
REMARK    3  A    between atoms: C_6  and  N_7
REMARK    4  A    between atoms: N_14  and  C_15
REMARK    5  A    between atoms: C_15  and  C_16
REMARK                            x       y       z     vdW  Elec       q    Type
REMARK                         _______ _______ _______ _____ _____    ______ ____
ROOT
ATOM      1  N   UNL     1       3.105   7.675  18.065  0.00  0.00    +0.000 N 
ATOM      2  C   UNL     1       3.268   6.283  18.083  0.00  0.00    +0.000 A 
ATOM      3  N   UNL     1       2.231   5.479  18.231  0.00  0.00    +0.000 NA
ATOM      4  C   UNL     1       2.542   4.208  18.358  0.00  0.00    +0.000 A 
ATOM      5 CL   UNL     1       1.230   3.144  18.621  0.00  0.00    +0.000 Cl
ATOM      6  N   UNL     1       3.746   3.663  18.353  0.00  0.00    +0.000 NA
ATOM      7  C   UNL     1       4.718   4.539  18.179  0.00  0.00    +0.000 A 
ATOM      8  N   UNL     1       5.996   4.029  18.290  0.00  0.00    +0.000 N 
ATOM      9  N   UNL     1       4.525   5.846  18.013  0.00  0.00    +0.000 NA
ATOM     10  H   UNL     1       4.025   8.099  18.082  0.00  0.00    +0.000 HD
ATOM     11  H   UNL     1       5.948   3.017  18.254  0.00  0.00    +0.000 HD
ENDROOT
BRANCH   1  15
ATOM     12  C   UNL     1      -0.006   9.958  19.822  0.00  0.00    +0.000 A 
ATOM     13  C   UNL     1       0.774   9.094  20.586  0.00  0.00    +0.000 A 
ATOM     14  C   UNL     1       1.820   8.370  19.999  0.00  0.00    +0.000 A 
ATOM     15  C   UNL     1       2.079   8.461  18.622  0.00  0.00    +0.000 A 
ATOM     16  C   UNL     1       1.305   9.361  17.880  0.00  0.00    +0.000 A 
ATOM     17  C   UNL     1       0.263  10.089  18.464  0.00  0.00    +0.000 A 
BRANCH  12  19
ATOM     18  C   UNL     1      -0.717  10.977  21.829  0.00  0.00    +0.000 C 
ATOM     19  O   UNL     1      -1.015  10.595  20.489  0.00  0.00    +0.000 OA
ENDBRANCH  12  19
ENDBRANCH   1  15
BRANCH   8  20
ATOM     20  C   UNL     1       7.037   4.602  17.458  0.00  0.00    +0.000 C 
BRANCH  20  21
ATOM     21  C   UNL     1       6.833   4.452  15.987  0.00  0.00    +0.000 A 
ATOM     22  C   UNL     1       6.017   3.650  15.216  0.00  0.00    +0.000 A 
ATOM     23  C   UNL     1       6.264   4.006  13.867  0.00  0.00    +0.000 A 
ATOM     24  C   UNL     1       7.215   4.997  13.901  0.00  0.00    +0.000 A 
ATOM     25  O   UNL     1       7.572   5.271  15.181  0.00  0.00    +0.000 OA
ENDBRANCH  20  21
ENDBRANCH   8  20
TORSDOF 4
ENDMDL
MODEL 3
REMARK VINA RESULT:      -7.9      4.525      5.730
REMARK  Name = 
REMARK  5 active torsions:
REMARK  status: ('A' for Active; 'I' for Inactive)
REMARK    1  A    between atoms: C_1  and  O_2
REMARK    2  A    between atoms: O_2  and  C_3
REMARK    3  A    between atoms: C_6  and  N_7
REMARK    4  A    between atoms: N_14  and  C_15
REMARK    5  A    between atoms: C_15  and  C_16
REMARK                            x       y       z     vdW  Elec       q    Type
REMARK                         _______ _______ _______ _____ _____    ______ ____
ROOT
ATOM      1  N   UNL     1       4.780   3.138  16.720  0.00  0.00    +0.000 N 
ATOM      2  C   UNL     1       5.786   4.072  16.445  0.00  0.00    +0.000 A 
ATOM      3  N   UNL     1       6.221   4.899  17.379  0.00  0.00    +0.000 NA
ATOM      4  C   UNL     1       7.072   5.805  16.951  0.00  0.00    +0.000 A 
ATOM      5 CL   UNL     1       7.604   6.935  18.117  0.00  0.00    +0.000 Cl
ATOM      6  N   UNL     1       7.529   5.972  15.722  0.00  0.00    +0.000 NA
ATOM      7  C   UNL     1       7.056   5.090  14.862  0.00  0.00    +0.000 A 
ATOM      8  N   UNL     1       7.410   5.303  13.545  0.00  0.00    +0.000 N 
ATOM      9  N   UNL     1       6.210   4.112  15.183  0.00  0.00    +0.000 NA
ATOM     10  H   UNL     1       4.502   2.708  15.846  0.00  0.00    +0.000 HD
ATOM     11  H   UNL     1       8.169   5.976  13.516  0.00  0.00    +0.000 HD
ENDROOT
BRANCH   1  15
ATOM     12  C   UNL     1       1.792   3.125  19.730  0.00  0.00    +0.000 A 
ATOM     13  C   UNL     1       2.985   2.426  19.896  0.00  0.00    +0.000 A 
ATOM     14  C   UNL     1       3.977   2.465  18.907  0.00  0.00    +0.000 A 
ATOM     15  C   UNL     1       3.778   3.170  17.709  0.00  0.00    +0.000 A 
ATOM     16  C   UNL     1       2.586   3.893  17.580  0.00  0.00    +0.000 A 
ATOM     17  C   UNL     1       1.595   3.860  18.567  0.00  0.00    +0.000 A 
BRANCH  12  19
ATOM     18  C   UNL     1       1.425   2.627  22.007  0.00  0.00    +0.000 C 
ATOM     19  O   UNL     1       0.883   2.998  20.743  0.00  0.00    +0.000 OA
ENDBRANCH  12  19
ENDBRANCH   1  15
BRANCH   8  20
ATOM     20  C   UNL     1       7.613   4.146  12.693  0.00  0.00    +0.000 C 
BRANCH  20  21
ATOM     21  C   UNL     1       6.368   3.525  12.154  0.00  0.00    +0.000 A 
ATOM     22  C   UNL     1       5.070   3.968  12.005  0.00  0.00    +0.000 A 
ATOM     23  C   UNL     1       4.353   2.910  11.392  0.00  0.00    +0.000 A 
ATOM     24  C   UNL     1       5.257   1.891  11.210  0.00  0.00    +0.000 A 
ATOM     25  O   UNL     1       6.480   2.250  11.674  0.00  0.00    +0.000 OA
ENDBRANCH  20  21
ENDBRANCH   8  20
TORSDOF 4
ENDMDL
MODEL 4
REMARK VINA RESULT:      -7.9      1.132      1.678
REMARK  Name = 
REMARK  5 active torsions:
REMARK  status: ('A' for Active; 'I' for Inactive)
REMARK    1  A    between atoms: C_1  and  O_2
REMARK    2  A    between atoms: O_2  and  C_3
REMARK    3  A    between atoms: C_6  and  N_7
REMARK    4  A    between atoms: N_14  and  C_15
REMARK    5  A    between atoms: C_15  and  C_16
REMARK                            x       y       z     vdW  Elec       q    Type
REMARK                         _______ _______ _______ _____ _____    ______ ____
ROOT
ATOM      1  N   UNL     1       2.935   7.705  17.947  0.00  0.00    +0.000 N 
ATOM      2  C   UNL     1       3.174   6.351  17.678  0.00  0.00    +0.000 A 
ATOM      3  N   UNL     1       2.259   5.434  17.939  0.00  0.00    +0.000 NA
ATOM      4  C   UNL     1       2.663   4.196  17.758  0.00  0.00    +0.000 A 
ATOM      5 CL   UNL     1       1.529   2.979  18.150  0.00  0.00    +0.000 Cl
ATOM      6  N   UNL     1       3.852   3.781  17.354  0.00  0.00    +0.000 NA
ATOM      7  C   UNL     1       4.692   4.766  17.099  0.00  0.00    +0.000 A 
ATOM      8  N   UNL     1       5.981   4.375  16.794  0.00  0.00    +0.000 N 
ATOM      9  N   UNL     1       4.390   6.057  17.219  0.00  0.00    +0.000 NA
ATOM     10  H   UNL     1       3.801   8.211  17.807  0.00  0.00    +0.000 HD
ATOM     11  H   UNL     1       5.982   3.381  16.593  0.00  0.00    +0.000 HD
ENDROOT
BRANCH   1  15
ATOM     12  C   UNL     1       0.256   9.358  20.789  0.00  0.00    +0.000 A 
ATOM     13  C   UNL     1       1.083   8.286  21.116  0.00  0.00    +0.000 A 
ATOM     14  C   UNL     1       1.986   7.771  20.177  0.00  0.00    +0.000 A 
ATOM     15  C   UNL     1       2.050   8.289  18.874  0.00  0.00    +0.000 A 
ATOM     16  C   UNL     1       1.235   9.387  18.578  0.00  0.00    +0.000 A 
ATOM     17  C   UNL     1       0.335   9.908  19.514  0.00  0.00    +0.000 A 
BRANCH  12  19
ATOM     18  C   UNL     1      -0.139   9.588  23.104  0.00  0.00    +0.000 C 
ATOM     19  O   UNL     1      -0.604   9.766  21.769  0.00  0.00    +0.000 OA
ENDBRANCH  12  19
ENDBRANCH   1  15
BRANCH   8  20
ATOM     20  C   UNL     1       6.731   5.171  15.840  0.00  0.00    +0.000 C 
BRANCH  20  21
ATOM     21  C   UNL     1       6.731   4.656  14.440  0.00  0.00    +0.000 A 
ATOM     22  C   UNL     1       6.038   3.653  13.794  0.00  0.00    +0.000 A 
ATOM     23  C   UNL     1       6.462   3.679  12.442  0.00  0.00    +0.000 A 
ATOM     24  C   UNL     1       7.389   4.690  12.351  0.00  0.00    +0.000 A 
ATOM     25  O   UNL     1       7.564   5.286  13.558  0.00  0.00    +0.000 OA
ENDBRANCH  20  21
ENDBRANCH   8  20
TORSDOF 4
ENDMDL
MODEL 5
REMARK VINA RESULT:      -7.9      1.050      1.227
REMARK  Name = 
REMARK  5 active torsions:
REMARK  status: ('A' for Active; 'I' for Inactive)
REMARK    1  A    between atoms: C_1  and  O_2
REMARK    2  A    between atoms: O_2  and  C_3
REMARK    3  A    between atoms: C_6  and  N_7
REMARK    4  A    between atoms: N_14  and  C_15
REMARK    5  A    between atoms: C_15  and  C_16
REMARK                            x       y       z     vdW  Elec       q    Type
REMARK                         _______ _______ _______ _____ _____    ______ ____
ROOT
ATOM      1  N   UNL     1       3.152   7.479  17.907  0.00  0.00    +0.000 N 
ATOM      2  C   UNL     1       3.413   6.132  17.624  0.00  0.00    +0.000 A 
ATOM      3  N   UNL     1       2.511   5.199  17.871  0.00  0.00    +0.000 NA
ATOM      4  C   UNL     1       2.934   3.969  17.677  0.00  0.00    +0.000 A 
ATOM      5 CL   UNL     1       1.818   2.731  18.052  0.00  0.00    +0.000 Cl
ATOM      6  N   UNL     1       4.130   3.577  17.273  0.00  0.00    +0.000 NA
ATOM      7  C   UNL     1       4.957   4.577  17.031  0.00  0.00    +0.000 A 
ATOM      8  N   UNL     1       6.252   4.209  16.725  0.00  0.00    +0.000 N 
ATOM      9  N   UNL     1       4.634   5.862  17.165  0.00  0.00    +0.000 NA
ATOM     10  H   UNL     1       4.012   8.000  17.776  0.00  0.00    +0.000 HD
ATOM     11  H   UNL     1       6.268   3.217  16.513  0.00  0.00    +0.000 HD
ENDROOT
BRANCH   1  15
ATOM     12  C   UNL     1       0.479   9.272  20.668  0.00  0.00    +0.000 A 
ATOM     13  C   UNL     1       0.669   9.808  19.396  0.00  0.00    +0.000 A 
ATOM     14  C   UNL     1       1.531   9.187  18.483  0.00  0.00    +0.000 A 
ATOM     15  C   UNL     1       2.257   8.039  18.838  0.00  0.00    +0.000 A 
ATOM     16  C   UNL     1       2.025   7.499  20.109  0.00  0.00    +0.000 A 
ATOM     17  C   UNL     1       1.161   8.114  21.022  0.00  0.00    +0.000 A 
BRANCH  12  19
ATOM     18  C   UNL     1      -0.837  11.209  20.966  0.00  0.00    +0.000 C 
ATOM     19  O   UNL     1      -0.363   9.971  21.488  0.00  0.00    +0.000 OA
ENDBRANCH  12  19
ENDBRANCH   1  15
BRANCH   8  20
ATOM     20  C   UNL     1       6.992   5.027  15.783  0.00  0.00    +0.000 C 
BRANCH  20  21
ATOM     21  C   UNL     1       6.894   4.604  14.356  0.00  0.00    +0.000 A 
ATOM     22  C   UNL     1       6.144   3.653  13.694  0.00  0.00    +0.000 A 
ATOM     23  C   UNL     1       6.480   3.761  12.321  0.00  0.00    +0.000 A 
ATOM     24  C   UNL     1       7.415   4.766  12.234  0.00  0.00    +0.000 A 
ATOM     25  O   UNL     1       7.677   5.280  13.463  0.00  0.00    +0.000 OA
ENDBRANCH  20  21
ENDBRANCH   8  20
TORSDOF 4
ENDMDL
MODEL 6
REMARK VINA RESULT:      -7.9      1.461      2.147
REMARK  Name = 
REMARK  5 active torsions:
REMARK  status: ('A' for Active; 'I' for Inactive)
REMARK    1  A    between atoms: C_1  and  O_2
REMARK    2  A    between atoms: O_2  and  C_3
REMARK    3  A    between atoms: C_6  and  N_7
REMARK    4  A    between atoms: N_14  and  C_15
REMARK    5  A    between atoms: C_15  and  C_16
REMARK                            x       y       z     vdW  Elec       q    Type
REMARK                         _______ _______ _______ _____ _____    ______ ____
ROOT
ATOM      1  N   UNL     1       2.879   7.491  18.469  0.00  0.00    +0.000 N 
ATOM      2  C   UNL     1       3.017   6.119  18.221  0.00  0.00    +0.000 A 
ATOM      3  N   UNL     1       1.992   5.297  18.356  0.00  0.00    +0.000 NA
ATOM      4  C   UNL     1       2.292   4.025  18.217  0.00  0.00    +0.000 A 
ATOM      5 CL   UNL     1       1.004   2.927  18.452  0.00  0.00    +0.000 Cl
ATOM      6  N   UNL     1       3.476   3.494  17.965  0.00  0.00    +0.000 NA
ATOM      7  C   UNL     1       4.435   4.390  17.827  0.00  0.00    +0.000 A 
ATOM      8  N   UNL     1       5.708   3.874  17.685  0.00  0.00    +0.000 N 
ATOM      9  N   UNL     1       4.247   5.706  17.919  0.00  0.00    +0.000 NA
ATOM     10  H   UNL     1       3.802   7.909  18.445  0.00  0.00    +0.000 HD
ATOM     11  H   UNL     1       5.637   2.884  17.478  0.00  0.00    +0.000 HD
ENDROOT
BRANCH   1  15
ATOM     12  C   UNL     1       0.094   9.615  20.860  0.00  0.00    +0.000 A 
ATOM     13  C   UNL     1       0.362  10.002  19.549  0.00  0.00    +0.000 A 
ATOM     14  C   UNL     1       1.261   9.273  18.760  0.00  0.00    +0.000 A 
ATOM     15  C   UNL     1       1.945   8.163  19.281  0.00  0.00    +0.000 A 
ATOM     16  C   UNL     1       1.635   7.771  20.588  0.00  0.00    +0.000 A 
ATOM     17  C   UNL     1       0.734   8.495  21.378  0.00  0.00    +0.000 A 
BRANCH  12  19
ATOM     18  C   UNL     1      -0.709  10.307  22.968  0.00  0.00    +0.000 C 
ATOM     19  O   UNL     1      -0.777  10.411  21.549  0.00  0.00    +0.000 OA
ENDBRANCH  12  19
ENDBRANCH   1  15
BRANCH   8  20
ATOM     20  C   UNL     1       6.648   4.589  16.842  0.00  0.00    +0.000 C 
BRANCH  20  21
ATOM     21  C   UNL     1       7.237   5.820  17.444  0.00  0.00    +0.000 A 
ATOM     22  C   UNL     1       7.865   6.086  18.644  0.00  0.00    +0.000 A 
ATOM     23  C   UNL     1       8.232   7.455  18.610  0.00  0.00    +0.000 A 
ATOM     24  C   UNL     1       7.801   7.936  17.397  0.00  0.00    +0.000 A 
ATOM     25  O   UNL     1       7.192   6.955  16.684  0.00  0.00    +0.000 OA
ENDBRANCH  20  21
ENDBRANCH   8  20
TORSDOF 4
ENDMDL
MODEL 7
REMARK VINA RESULT:      -7.8      1.305      2.048
REMARK  Name = 
REMARK  5 active torsions:
REMARK  status: ('A' for Active; 'I' for Inactive)
REMARK    1  A    between atoms: C_1  and  O_2
REMARK    2  A    between atoms: O_2  and  C_3
REMARK    3  A    between atoms: C_6  and  N_7
REMARK    4  A    between atoms: N_14  and  C_15
REMARK    5  A    between atoms: C_15  and  C_16
REMARK                            x       y       z     vdW  Elec       q    Type
REMARK                         _______ _______ _______ _____ _____    ______ ____
ROOT
ATOM      1  N   UNL     1       3.033   7.552  18.075  0.00  0.00    +0.000 N 
ATOM      2  C   UNL     1       3.187   6.161  18.034  0.00  0.00    +0.000 A 
ATOM      3  N   UNL     1       2.149   5.357  18.180  0.00  0.00    +0.000 NA
ATOM      4  C   UNL     1       2.456   4.080  18.249  0.00  0.00    +0.000 A 
ATOM      5 CL   UNL     1       1.145   3.014  18.506  0.00  0.00    +0.000 Cl
ATOM      6  N   UNL     1       3.656   3.529  18.191  0.00  0.00    +0.000 NA
ATOM      7  C   UNL     1       4.628   4.406  18.025  0.00  0.00    +0.000 A 
ATOM      8  N   UNL     1       5.906   3.887  18.082  0.00  0.00    +0.000 N 
ATOM      9  N   UNL     1       4.439   5.720  17.915  0.00  0.00    +0.000 NA
ATOM     10  H   UNL     1       3.956   7.971  18.084  0.00  0.00    +0.000 HD
ATOM     11  H   UNL     1       5.851   2.876  18.008  0.00  0.00    +0.000 HD
ENDROOT
BRANCH   1  15
ATOM     12  C   UNL     1       0.028   9.959  19.853  0.00  0.00    +0.000 A 
ATOM     13  C   UNL     1       0.336  10.073  18.500  0.00  0.00    +0.000 A 
ATOM     14  C   UNL     1       1.309   9.250  17.919  0.00  0.00    +0.000 A 
ATOM     15  C   UNL     1       2.027   8.322  18.689  0.00  0.00    +0.000 A 
ATOM     16  C   UNL     1       1.677   8.200  20.039  0.00  0.00    +0.000 A 
ATOM     17  C   UNL     1       0.702   9.018  20.623  0.00  0.00    +0.000 A 
BRANCH  12  19
ATOM     18  C   UNL     1      -1.573  11.612  19.332  0.00  0.00    +0.000 C 
ATOM     19  O   UNL     1      -0.917  10.828  20.324  0.00  0.00    +0.000 OA
ENDBRANCH  12  19
ENDBRANCH   1  15
BRANCH   8  20
ATOM     20  C   UNL     1       6.928   4.485  17.245  0.00  0.00    +0.000 C 
BRANCH  20  21
ATOM     21  C   UNL     1       7.395   5.836  17.674  0.00  0.00    +0.000 A 
ATOM     22  C   UNL     1       7.984   6.318  18.825  0.00  0.00    +0.000 A 
ATOM     23  C   UNL     1       8.221   7.698  18.607  0.00  0.00    +0.000 A 
ATOM     24  C   UNL     1       7.759   7.970  17.341  0.00  0.00    +0.000 A 
ATOM     25  O   UNL     1       7.251   6.849  16.769  0.00  0.00    +0.000 OA
ENDBRANCH  20  21
ENDBRANCH   8  20
TORSDOF 4
ENDMDL
MODEL 8
REMARK VINA RESULT:      -7.8      1.420      2.347
REMARK  Name = 
REMARK  5 active torsions:
REMARK  status: ('A' for Active; 'I' for Inactive)
REMARK    1  A    between atoms: C_1  and  O_2
REMARK    2  A    between atoms: O_2  and  C_3
REMARK    3  A    between atoms: C_6  and  N_7
REMARK    4  A    between atoms: N_14  and  C_15
REMARK    5  A    between atoms: C_15  and  C_16
REMARK                            x       y       z     vdW  Elec       q    Type
REMARK                         _______ _______ _______ _____ _____    ______ ____
ROOT
ATOM      1  N   UNL     1       2.884   7.497  18.393  0.00  0.00    +0.000 N 
ATOM      2  C   UNL     1       2.989   6.117  18.181  0.00  0.00    +0.000 A 
ATOM      3  N   UNL     1       1.942   5.324  18.327  0.00  0.00    +0.000 NA
ATOM      4  C   UNL     1       2.211   4.042  18.223  0.00  0.00    +0.000 A 
ATOM      5 CL   UNL     1       0.894   2.983  18.474  0.00  0.00    +0.000 Cl
ATOM      6  N   UNL     1       3.383   3.475  17.994  0.00  0.00    +0.000 NA
ATOM      7  C   UNL     1       4.365   4.343  17.841  0.00  0.00    +0.000 A 
ATOM      8  N   UNL     1       5.625   3.792  17.723  0.00  0.00    +0.000 N 
ATOM      9  N   UNL     1       4.210   5.665  17.899  0.00  0.00    +0.000 NA
ATOM     10  H   UNL     1       3.817   7.891  18.367  0.00  0.00    +0.000 HD
ATOM     11  H   UNL     1       5.531   2.799  17.540  0.00  0.00    +0.000 HD
ENDROOT
BRANCH   1  15
ATOM     12  C   UNL     1       0.081   9.552  20.823  0.00  0.00    +0.000 A 
ATOM     13  C   UNL     1       0.827   8.489  21.325  0.00  0.00    +0.000 A 
ATOM     14  C   UNL     1       1.773   7.840  20.520  0.00  0.00    +0.000 A 
ATOM     15  C   UNL     1       1.961   8.212  19.180  0.00  0.00    +0.000 A 
ATOM     16  C   UNL     1       1.225   9.305  18.707  0.00  0.00    +0.000 A 
ATOM     17  C   UNL     1       0.283   9.959  19.509  0.00  0.00    +0.000 A 
BRANCH  12  19
ATOM     18  C   UNL     1      -0.554   9.910  23.067  0.00  0.00    +0.000 C 
ATOM     19  O   UNL     1      -0.831  10.097  21.683  0.00  0.00    +0.000 OA
ENDBRANCH  12  19
ENDBRANCH   1  15
BRANCH   8  20
ATOM     20  C   UNL     1       6.590   4.461  16.870  0.00  0.00    +0.000 C 
BRANCH  20  21
ATOM     21  C   UNL     1       7.175   5.714  17.430  0.00  0.00    +0.000 A 
ATOM     22  C   UNL     1       7.803   6.023  18.619  0.00  0.00    +0.000 A 
ATOM     23  C   UNL     1       8.164   7.391  18.538  0.00  0.00    +0.000 A 
ATOM     24  C   UNL     1       7.731   7.829  17.309  0.00  0.00    +0.000 A 
ATOM     25  O   UNL     1       7.125   6.822  16.631  0.00  0.00    +0.000 OA
ENDBRANCH  20  21
ENDBRANCH   8  20
TORSDOF 4
ENDMDL
MODEL 9
REMARK VINA RESULT:      -7.8      1.842      2.353
REMARK  Name = 
REMARK  5 active torsions:
REMARK  status: ('A' for Active; 'I' for Inactive)
REMARK    1  A    between atoms: C_1  and  O_2
REMARK    2  A    between atoms: O_2  and  C_3
REMARK    3  A    between atoms: C_6  and  N_7
REMARK    4  A    between atoms: N_14  and  C_15
REMARK    5  A    between atoms: C_15  and  C_16
REMARK                            x       y       z     vdW  Elec       q    Type
REMARK                         _______ _______ _______ _____ _____    ______ ____
ROOT
ATOM      1  N   UNL     1       2.548   7.475  19.086  0.00  0.00    +0.000 N 
ATOM      2  C   UNL     1       2.801   6.107  19.250  0.00  0.00    +0.000 A 
ATOM      3  N   UNL     1       1.905   5.312  19.808  0.00  0.00    +0.000 NA
ATOM      4  C   UNL     1       2.323   4.083  20.014  0.00  0.00    +0.000 A 
ATOM      5 CL   UNL     1       1.215   3.043  20.796  0.00  0.00    +0.000 Cl
ATOM      6  N   UNL     1       3.508   3.571  19.733  0.00  0.00    +0.000 NA
ATOM      7  C   UNL     1       4.330   4.431  19.160  0.00  0.00    +0.000 A 
ATOM      8  N   UNL     1       5.617   3.974  18.962  0.00  0.00    +0.000 N 
ATOM      9  N   UNL     1       4.011   5.693  18.877  0.00  0.00    +0.000 NA
ATOM     10  H   UNL     1       3.404   7.918  18.773  0.00  0.00    +0.000 HD
ATOM     11  H   UNL     1       5.628   2.967  19.084  0.00  0.00    +0.000 HD
ENDROOT
BRANCH   1  15
ATOM     12  C   UNL     1      -0.050  10.093  21.180  0.00  0.00    +0.000 A 
ATOM     13  C   UNL     1       0.197  10.258  19.819  0.00  0.00    +0.000 A 
ATOM     14  C   UNL     1       1.033   9.367  19.133  0.00  0.00    +0.000 A 
ATOM     15  C   UNL     1       1.675   8.315  19.804  0.00  0.00    +0.000 A 
ATOM     16  C   UNL     1       1.386   8.147  21.163  0.00  0.00    +0.000 A 
ATOM     17  C   UNL     1       0.548   9.033  21.851  0.00  0.00    +0.000 A 
BRANCH  12  19
ATOM     18  C   UNL     1      -1.180  10.805  23.125  0.00  0.00    +0.000 C 
ATOM     19  O   UNL     1      -0.858  11.033  21.756  0.00  0.00    +0.000 OA
ENDBRANCH  12  19
ENDBRANCH   1  15
BRANCH   8  20
ATOM     20  C   UNL     1       6.335   4.435  17.789  0.00  0.00    +0.000 C 
BRANCH  20  21
ATOM     21  C   UNL     1       7.033   5.745  17.942  0.00  0.00    +0.000 A 
ATOM     22  C   UNL     1       7.894   6.259  18.890  0.00  0.00    +0.000 A 
ATOM     23  C   UNL     1       8.242   7.561  18.451  0.00  0.00    +0.000 A 
ATOM     24  C   UNL     1       7.570   7.758  17.269  0.00  0.00    +0.000 A 
ATOM     25  O   UNL     1       6.829   6.665  16.954  0.00  0.00    +0.000 OA
ENDBRANCH  20  21
ENDBRANCH   8  20
TORSDOF 4
ENDMDL
