MODEL 1
REMARK VINA RESULT:      -6.3      0.000      0.000
REMARK  Name = 
REMARK  12 active torsions:
REMARK  status: ('A' for Active; 'I' for Inactive)
REMARK    1  A    between atoms: C_1  and  O_2
REMARK    2  A    between atoms: O_2  and  C_3
REMARK    3  A    between atoms: C_3  and  C_4
REMARK    4  A    between atoms: C_4  and  N_5
REMARK    5  A    between atoms: N_5  and  C_6
REMARK    6  A    between atoms: N_5  and  C_10
REMARK    7  A    between atoms: C_6  and  C_7
REMARK    8  A    between atoms: C_7  and  O_8
REMARK    9  A    between atoms: O_8  and  C_9
REMARK   10  A    between atoms: C_10  and  C_11
REMARK   11  A    between atoms: C_18  and  O_19
REMARK   12  A    between atoms: O_19  and  C_20
REMARK                            x       y       z     vdW  Elec       q    Type
REMARK                         _______ _______ _______ _____ _____    ______ ____
ROOT
ATOM      1  C   UNL     1       5.123   5.508  17.933  0.00  0.00    +0.000 A 
ATOM      2  C   UNL     1       6.063   5.528  18.891  0.00  0.00    +0.000 A 
ATOM      3  C   UNL     1       7.492   5.286  18.641  0.00  0.00    +0.000 A 
ATOM      4  O   UNL     1       8.292   5.268  19.571  0.00  0.00    +0.000 OA
ATOM      5  O   UNL     1       7.878   5.138  17.327  0.00  0.00    +0.000 OA
ATOM      6  C   UNL     1       6.912   4.984  16.314  0.00  0.00    +0.000 A 
ATOM      7  C   UNL     1       7.415   4.614  15.064  0.00  0.00    +0.000 A 
ATOM      8  C   UNL     1       6.529   4.325  14.033  0.00  0.00    +0.000 A 
ATOM      9  C   UNL     1       5.158   4.454  14.266  0.00  0.00    +0.000 A 
ATOM     10  C   UNL     1       4.672   4.874  15.514  0.00  0.00    +0.000 A 
ATOM     11  C   UNL     1       5.548   5.136  16.572  0.00  0.00    +0.000 A 
ENDROOT
BRANCH   8  12
ATOM     12  O   UNL     1       6.871   3.895  12.781  0.00  0.00    +0.000 OA
ATOM     13  C   UNL     1       5.895   3.125  12.086  0.00  0.00    +0.000 C 
ENDBRANCH   8  12
BRANCH   1  14
ATOM     14  C   UNL     1       3.698   5.920  18.260  0.00  0.00    +0.000 C 
BRANCH  14  15
ATOM     15  N   UNL     1       2.827   4.922  18.903  0.00  0.00    +0.000 NA
BRANCH  15  16
ATOM     16  C   UNL     1       2.106   5.509  20.058  0.00  0.00    +0.000 C 
BRANCH  16  17
ATOM     17  C   UNL     1       2.065   4.692  21.366  0.00  0.00    +0.000 C 
BRANCH  17  19
ATOM     18  C   UNL     1       1.801   2.366  21.605  0.00  0.00    +0.000 C 
ATOM     19  O   UNL     1       1.162   3.590  21.266  0.00  0.00    +0.000 OA
ENDBRANCH  17  19
ENDBRANCH  16  17
ENDBRANCH  15  16
BRANCH  15  20
ATOM     20  C   UNL     1       1.900   4.294  17.932  0.00  0.00    +0.000 C 
BRANCH  20  21
ATOM     21  C   UNL     1       1.855   2.747  17.854  0.00  0.00    +0.000 C 
BRANCH  21  22
ATOM     22  O   UNL     1       3.127   2.203  17.502  0.00  0.00    +0.000 OA
ATOM     23  C   UNL     1       3.660   1.396  18.549  0.00  0.00    +0.000 C 
ENDBRANCH  21  22
ENDBRANCH  20  21
ENDBRANCH  15  20
ENDBRANCH  14  15
ENDBRANCH   1  14
TORSDOF 9
ENDMDL
MODEL 2
REMARK VINA RESULT:      -6.3      1.818      2.779
REMARK  Name = 
REMARK  12 active torsions:
REMARK  status: ('A' for Active; 'I' for Inactive)
REMARK    1  A    between atoms: C_1  and  O_2
REMARK    2  A    between atoms: O_2  and  C_3
REMARK    3  A    between atoms: C_3  and  C_4
REMARK    4  A    between atoms: C_4  and  N_5
REMARK    5  A    between atoms: N_5  and  C_6
REMARK    6  A    between atoms: N_5  and  C_10
REMARK    7  A    between atoms: C_6  and  C_7
REMARK    8  A    between atoms: C_7  and  O_8
REMARK    9  A    between atoms: O_8  and  C_9
REMARK   10  A    between atoms: C_10  and  C_11
REMARK   11  A    between atoms: C_18  and  O_19
REMARK   12  A    between atoms: O_19  and  C_20
REMARK                            x       y       z     vdW  Elec       q    Type
REMARK                         _______ _______ _______ _____ _____    ______ ____
ROOT
ATOM      1  C   UNL     1       5.686   5.177  18.027  0.00  0.00    +0.000 A 
ATOM      2  C   UNL     1       6.544   6.035  18.601  0.00  0.00    +0.000 A 
ATOM      3  C   UNL     1       7.625   6.720  17.877  0.00  0.00    +0.000 A 
ATOM      4  O   UNL     1       8.407   7.453  18.474  0.00  0.00    +0.000 OA
ATOM      5  O   UNL     1       7.672   6.538  16.512  0.00  0.00    +0.000 OA
ATOM      6  C   UNL     1       6.876   5.554  15.897  0.00  0.00    +0.000 A 
ATOM      7  C   UNL     1       7.172   5.302  14.555  0.00  0.00    +0.000 A 
ATOM      8  C   UNL     1       6.519   4.267  13.896  0.00  0.00    +0.000 A 
ATOM      9  C   UNL     1       5.552   3.533  14.586  0.00  0.00    +0.000 A 
ATOM     10  C   UNL     1       5.232   3.830  15.920  0.00  0.00    +0.000 A 
ATOM     11  C   UNL     1       5.904   4.846  16.608  0.00  0.00    +0.000 A 
ENDROOT
BRANCH   8  12
ATOM     12  O   UNL     1       6.747   3.868  12.608  0.00  0.00    +0.000 OA
ATOM     13  C   UNL     1       5.724   3.091  11.994  0.00  0.00    +0.000 C 
ENDBRANCH   8  12
BRANCH   1  14
ATOM     14  C   UNL     1       4.510   4.635  18.820  0.00  0.00    +0.000 C 
BRANCH  14  15
ATOM     15  N   UNL     1       3.176   5.185  18.531  0.00  0.00    +0.000 NA
BRANCH  15  16
ATOM     16  C   UNL     1       2.262   4.132  18.024  0.00  0.00    +0.000 C 
BRANCH  16  17
ATOM     17  C   UNL     1       2.647   2.662  18.292  0.00  0.00    +0.000 C 
BRANCH  17  19
ATOM     18  C   UNL     1       0.769   2.879  19.691  0.00  0.00    +0.000 C 
ATOM     19  O   UNL     1       1.617   1.972  19.000  0.00  0.00    +0.000 OA
ENDBRANCH  17  19
ENDBRANCH  16  17
ENDBRANCH  15  16
BRANCH  15  20
ATOM     20  C   UNL     1       2.607   5.895  19.701  0.00  0.00    +0.000 C 
BRANCH  20  21
ATOM     21  C   UNL     1       2.257   7.397  19.552  0.00  0.00    +0.000 C 
BRANCH  21  22
ATOM     22  O   UNL     1       2.769   7.935  18.332  0.00  0.00    +0.000 OA
ATOM     23  C   UNL     1       1.918   8.951  17.808  0.00  0.00    +0.000 C 
ENDBRANCH  21  22
ENDBRANCH  20  21
ENDBRANCH  15  20
ENDBRANCH  14  15
ENDBRANCH   1  14
TORSDOF 9
ENDMDL
MODEL 3
REMARK VINA RESULT:      -6.3      1.910      2.707
REMARK  Name = 
REMARK  12 active torsions:
REMARK  status: ('A' for Active; 'I' for Inactive)
REMARK    1  A    between atoms: C_1  and  O_2
REMARK    2  A    between atoms: O_2  and  C_3
REMARK    3  A    between atoms: C_3  and  C_4
REMARK    4  A    between atoms: C_4  and  N_5
REMARK    5  A    between atoms: N_5  and  C_6
REMARK    6  A    between atoms: N_5  and  C_10
REMARK    7  A    between atoms: C_6  and  C_7
REMARK    8  A    between atoms: C_7  and  O_8
REMARK    9  A    between atoms: O_8  and  C_9
REMARK   10  A    between atoms: C_10  and  C_11
REMARK   11  A    between atoms: C_18  and  O_19
REMARK   12  A    between atoms: O_19  and  C_20
REMARK                            x       y       z     vdW  Elec       q    Type
REMARK                         _______ _______ _______ _____ _____    ______ ____
ROOT
ATOM      1  C   UNL     1       4.874   4.414  18.073  0.00  0.00    +0.000 A 
ATOM      2  C   UNL     1       5.614   4.712  19.152  0.00  0.00    +0.000 A 
ATOM      3  C   UNL     1       6.978   5.259  19.085  0.00  0.00    +0.000 A 
ATOM      4  O   UNL     1       7.618   5.461  20.111  0.00  0.00    +0.000 OA
ATOM      5  O   UNL     1       7.460   5.576  17.834  0.00  0.00    +0.000 OA
ATOM      6  C   UNL     1       6.770   5.163  16.679  0.00  0.00    +0.000 A 
ATOM      7  C   UNL     1       7.462   5.336  15.478  0.00  0.00    +0.000 A 
ATOM      8  C   UNL     1       6.911   4.851  14.298  0.00  0.00    +0.000 A 
ATOM      9  C   UNL     1       5.656   4.240  14.342  0.00  0.00    +0.000 A 
ATOM     10  C   UNL     1       4.952   4.117  15.550  0.00  0.00    +0.000 A 
ATOM     11  C   UNL     1       5.508   4.568  16.751  0.00  0.00    +0.000 A 
ENDROOT
BRANCH   8  12
ATOM     12  O   UNL     1       7.497   4.895  13.063  0.00  0.00    +0.000 OA
ATOM     13  C   UNL     1       7.030   3.950  12.106  0.00  0.00    +0.000 C 
ENDBRANCH   8  12
BRANCH   1  14
ATOM     14  C   UNL     1       3.424   3.997  18.239  0.00  0.00    +0.000 C 
BRANCH  14  15
ATOM     15  N   UNL     1       2.426   5.057  18.459  0.00  0.00    +0.000 NA
BRANCH  15  16
ATOM     16  C   UNL     1       1.863   4.984  19.829  0.00  0.00    +0.000 C 
BRANCH  16  17
ATOM     17  C   UNL     1       0.935   3.797  20.158  0.00  0.00    +0.000 C 
BRANCH  17  19
ATOM     18  C   UNL     1       2.563   2.762  21.504  0.00  0.00    +0.000 C 
ATOM     19  O   UNL     1       1.227   3.244  21.442  0.00  0.00    +0.000 OA
ENDBRANCH  17  19
ENDBRANCH  16  17
ENDBRANCH  15  16
BRANCH  15  20
ATOM     20  C   UNL     1       2.975   6.400  18.157  0.00  0.00    +0.000 C 
BRANCH  20  21
ATOM     21  C   UNL     1       2.235   7.641  18.719  0.00  0.00    +0.000 C 
BRANCH  21  22
ATOM     22  O   UNL     1       2.257   8.728  17.793  0.00  0.00    +0.000 OA
ATOM     23  C   UNL     1       1.348   9.758  18.171  0.00  0.00    +0.000 C 
ENDBRANCH  21  22
ENDBRANCH  20  21
ENDBRANCH  15  20
ENDBRANCH  14  15
ENDBRANCH   1  14
TORSDOF 9
ENDMDL
MODEL 4
REMARK VINA RESULT:      -6.2      2.029      3.064
REMARK  Name = 
REMARK  12 active torsions:
REMARK  status: ('A' for Active; 'I' for Inactive)
REMARK    1  A    between atoms: C_1  and  O_2
REMARK    2  A    between atoms: O_2  and  C_3
REMARK    3  A    between atoms: C_3  and  C_4
REMARK    4  A    between atoms: C_4  and  N_5
REMARK    5  A    between atoms: N_5  and  C_6
REMARK    6  A    between atoms: N_5  and  C_10
REMARK    7  A    between atoms: C_6  and  C_7
REMARK    8  A    between atoms: C_7  and  O_8
REMARK    9  A    between atoms: O_8  and  C_9
REMARK   10  A    between atoms: C_10  and  C_11
REMARK   11  A    between atoms: C_18  and  O_19
REMARK   12  A    between atoms: O_19  and  C_20
REMARK                            x       y       z     vdW  Elec       q    Type
REMARK                         _______ _______ _______ _____ _____    ______ ____
ROOT
ATOM      1  C   UNL     1       4.688   5.379  18.272  0.00  0.00    +0.000 A 
ATOM      2  C   UNL     1       5.513   5.458  19.328  0.00  0.00    +0.000 A 
ATOM      3  C   UNL     1       6.978   5.364  19.232  0.00  0.00    +0.000 A 
ATOM      4  O   UNL     1       7.670   5.394  20.244  0.00  0.00    +0.000 OA
ATOM      5  O   UNL     1       7.515   5.299  17.965  0.00  0.00    +0.000 OA
ATOM      6  C   UNL     1       6.685   5.086  16.849  0.00  0.00    +0.000 A 
ATOM      7  C   UNL     1       7.354   4.808  15.654  0.00  0.00    +0.000 A 
ATOM      8  C   UNL     1       6.618   4.469  14.526  0.00  0.00    +0.000 A 
ATOM      9  C   UNL     1       5.224   4.456  14.608  0.00  0.00    +0.000 A 
ATOM     10  C   UNL     1       4.566   4.785  15.804  0.00  0.00    +0.000 A 
ATOM     11  C   UNL     1       5.292   5.095  16.958  0.00  0.00    +0.000 A 
ENDROOT
BRANCH   8  12
ATOM     12  O   UNL     1       7.134   4.115  13.309  0.00  0.00    +0.000 OA
ATOM     13  C   UNL     1       6.251   3.447  12.415  0.00  0.00    +0.000 C 
ENDBRANCH   8  12
BRANCH   1  14
ATOM     14  C   UNL     1       3.203   5.639  18.448  0.00  0.00    +0.000 C 
BRANCH  14  15
ATOM     15  N   UNL     1       2.781   6.446  19.604  0.00  0.00    +0.000 NA
BRANCH  15  16
ATOM     16  C   UNL     1       2.235   7.755  19.171  0.00  0.00    +0.000 C 
BRANCH  16  17
ATOM     17  C   UNL     1       2.706   8.312  17.812  0.00  0.00    +0.000 C 
BRANCH  17  19
ATOM     18  C   UNL     1       1.484  10.226  18.426  0.00  0.00    +0.000 C 
ATOM     19  O   UNL     1       1.859   9.368  17.357  0.00  0.00    +0.000 OA
ENDBRANCH  17  19
ENDBRANCH  16  17
ENDBRANCH  15  16
BRANCH  15  20
ATOM     20  C   UNL     1       1.831   5.710  20.472  0.00  0.00    +0.000 C 
BRANCH  20  21
ATOM     21  C   UNL     1       2.316   4.406  21.154  0.00  0.00    +0.000 C 
BRANCH  21  22
ATOM     22  O   UNL     1       1.461   3.304  20.846  0.00  0.00    +0.000 OA
ATOM     23  C   UNL     1       1.432   2.350  21.904  0.00  0.00    +0.000 C 
ENDBRANCH  21  22
ENDBRANCH  20  21
ENDBRANCH  15  20
ENDBRANCH  14  15
ENDBRANCH   1  14
TORSDOF 9
ENDMDL
MODEL 5
REMARK VINA RESULT:      -6.2      1.894      2.664
REMARK  Name = 
REMARK  12 active torsions:
REMARK  status: ('A' for Active; 'I' for Inactive)
REMARK    1  A    between atoms: C_1  and  O_2
REMARK    2  A    between atoms: O_2  and  C_3
REMARK    3  A    between atoms: C_3  and  C_4
REMARK    4  A    between atoms: C_4  and  N_5
REMARK    5  A    between atoms: N_5  and  C_6
REMARK    6  A    between atoms: N_5  and  C_10
REMARK    7  A    between atoms: C_6  and  C_7
REMARK    8  A    between atoms: C_7  and  O_8
REMARK    9  A    between atoms: O_8  and  C_9
REMARK   10  A    between atoms: C_10  and  C_11
REMARK   11  A    between atoms: C_18  and  O_19
REMARK   12  A    between atoms: O_19  and  C_20
REMARK                            x       y       z     vdW  Elec       q    Type
REMARK                         _______ _______ _______ _____ _____    ______ ____
ROOT
ATOM      1  C   UNL     1       5.679   4.935  18.102  0.00  0.00    +0.000 A 
ATOM      2  C   UNL     1       6.510   5.785  18.725  0.00  0.00    +0.000 A 
ATOM      3  C   UNL     1       7.563   6.551  18.041  0.00  0.00    +0.000 A 
ATOM      4  O   UNL     1       8.321   7.273  18.679  0.00  0.00    +0.000 OA
ATOM      5  O   UNL     1       7.609   6.455  16.667  0.00  0.00    +0.000 OA
ATOM      6  C   UNL     1       6.844   5.483  15.995  0.00  0.00    +0.000 A 
ATOM      7  C   UNL     1       7.142   5.324  14.639  0.00  0.00    +0.000 A 
ATOM      8  C   UNL     1       6.522   4.309  13.921  0.00  0.00    +0.000 A 
ATOM      9  C   UNL     1       5.585   3.501  14.567  0.00  0.00    +0.000 A 
ATOM     10  C   UNL     1       5.261   3.705  15.918  0.00  0.00    +0.000 A 
ATOM     11  C   UNL     1       5.901   4.699  16.664  0.00  0.00    +0.000 A 
ENDROOT
BRANCH   8  12
ATOM     12  O   UNL     1       6.757   3.998  12.610  0.00  0.00    +0.000 OA
ATOM     13  C   UNL     1       5.921   2.999  12.035  0.00  0.00    +0.000 C 
ENDBRANCH   8  12
BRANCH   1  14
ATOM     14  C   UNL     1       4.527   4.305  18.864  0.00  0.00    +0.000 C 
BRANCH  14  15
ATOM     15  N   UNL     1       3.186   4.883  18.681  0.00  0.00    +0.000 NA
BRANCH  15  16
ATOM     16  C   UNL     1       3.259   6.192  17.986  0.00  0.00    +0.000 C 
BRANCH  16  17
ATOM     17  C   UNL     1       2.487   7.375  18.606  0.00  0.00    +0.000 C 
BRANCH  17  19
ATOM     18  C   UNL     1       1.371   9.394  18.144  0.00  0.00    +0.000 C 
ATOM     19  O   UNL     1       2.293   8.426  17.660  0.00  0.00    +0.000 OA
ENDBRANCH  17  19
ENDBRANCH  16  17
ENDBRANCH  15  16
BRANCH  15  20
ATOM     20  C   UNL     1       2.269   3.943  17.995  0.00  0.00    +0.000 C 
BRANCH  20  21
ATOM     21  C   UNL     1       1.252   3.149  18.853  0.00  0.00    +0.000 C 
BRANCH  21  22
ATOM     22  O   UNL     1       1.884   2.528  19.974  0.00  0.00    +0.000 OA
ATOM     23  C   UNL     1       1.320   2.969  21.205  0.00  0.00    +0.000 C 
ENDBRANCH  21  22
ENDBRANCH  20  21
ENDBRANCH  15  20
ENDBRANCH  14  15
ENDBRANCH   1  14
TORSDOF 9
ENDMDL
MODEL 6
REMARK VINA RESULT:      -6.2      1.826      2.820
REMARK  Name = 
REMARK  12 active torsions:
REMARK  status: ('A' for Active; 'I' for Inactive)
REMARK    1  A    between atoms: C_1  and  O_2
REMARK    2  A    between atoms: O_2  and  C_3
REMARK    3  A    between atoms: C_3  and  C_4
REMARK    4  A    between atoms: C_4  and  N_5
REMARK    5  A    between atoms: N_5  and  C_6
REMARK    6  A    between atoms: N_5  and  C_10
REMARK    7  A    between atoms: C_6  and  C_7
REMARK    8  A    between atoms: C_7  and  O_8
REMARK    9  A    between atoms: O_8  and  C_9
REMARK   10  A    between atoms: C_10  and  C_11
REMARK   11  A    between atoms: C_18  and  O_19
REMARK   12  A    between atoms: O_19  and  C_20
REMARK                            x       y       z     vdW  Elec       q    Type
REMARK                         _______ _______ _______ _____ _____    ______ ____
ROOT
ATOM      1  C   UNL     1       6.151   4.882  18.264  0.00  0.00    +0.000 A 
ATOM      2  C   UNL     1       6.887   5.879  18.781  0.00  0.00    +0.000 A 
ATOM      3  C   UNL     1       7.690   6.809  17.973  0.00  0.00    +0.000 A 
ATOM      4  O   UNL     1       8.380   7.667  18.514  0.00  0.00    +0.000 OA
ATOM      5  O   UNL     1       7.580   6.698  16.604  0.00  0.00    +0.000 OA
ATOM      6  C   UNL     1       6.926   5.592  16.030  0.00  0.00    +0.000 A 
ATOM      7  C   UNL     1       7.075   5.465  14.646  0.00  0.00    +0.000 A 
ATOM      8  C   UNL     1       6.563   4.343  14.007  0.00  0.00    +0.000 A 
ATOM      9  C   UNL     1       5.875   3.391  14.762  0.00  0.00    +0.000 A 
ATOM     10  C   UNL     1       5.692   3.558  16.144  0.00  0.00    +0.000 A 
ATOM     11  C   UNL     1       6.230   4.664  16.809  0.00  0.00    +0.000 A 
ENDROOT
BRANCH   8  12
ATOM     12  O   UNL     1       6.684   4.055  12.675  0.00  0.00    +0.000 OA
ATOM     13  C   UNL     1       5.668   3.235  12.108  0.00  0.00    +0.000 C 
ENDBRANCH   8  12
BRANCH   1  14
ATOM     14  C   UNL     1       5.236   4.070  19.163  0.00  0.00    +0.000 C 
BRANCH  14  15
ATOM     15  N   UNL     1       3.935   4.654  19.524  0.00  0.00    +0.000 NA
BRANCH  15  16
ATOM     16  C   UNL     1       3.279   5.270  18.345  0.00  0.00    +0.000 C 
BRANCH  16  17
ATOM     17  C   UNL     1       2.524   6.598  18.558  0.00  0.00    +0.000 C 
BRANCH  17  19
ATOM     18  C   UNL     1       2.305   8.809  17.786  0.00  0.00    +0.000 C 
ATOM     19  O   UNL     1       3.161   7.677  17.874  0.00  0.00    +0.000 OA
ENDBRANCH  17  19
ENDBRANCH  16  17
ENDBRANCH  15  16
BRANCH  15  20
ATOM     20  C   UNL     1       3.055   3.667  20.195  0.00  0.00    +0.000 C 
BRANCH  20  21
ATOM     21  C   UNL     1       1.833   4.192  20.990  0.00  0.00    +0.000 C 
BRANCH  21  22
ATOM     22  O   UNL     1       0.612   3.960  20.287  0.00  0.00    +0.000 OA
ATOM     23  C   UNL     1       0.721   2.854  19.396  0.00  0.00    +0.000 C 
ENDBRANCH  21  22
ENDBRANCH  20  21
ENDBRANCH  15  20
ENDBRANCH  14  15
ENDBRANCH   1  14
TORSDOF 9
ENDMDL
MODEL 7
REMARK VINA RESULT:      -6.2      0.943      2.326
REMARK  Name = 
REMARK  12 active torsions:
REMARK  status: ('A' for Active; 'I' for Inactive)
REMARK    1  A    between atoms: C_1  and  O_2
REMARK    2  A    between atoms: O_2  and  C_3
REMARK    3  A    between atoms: C_3  and  C_4
REMARK    4  A    between atoms: C_4  and  N_5
REMARK    5  A    between atoms: N_5  and  C_6
REMARK    6  A    between atoms: N_5  and  C_10
REMARK    7  A    between atoms: C_6  and  C_7
REMARK    8  A    between atoms: C_7  and  O_8
REMARK    9  A    between atoms: O_8  and  C_9
REMARK   10  A    between atoms: C_10  and  C_11
REMARK   11  A    between atoms: C_18  and  O_19
REMARK   12  A    between atoms: O_19  and  C_20
REMARK                            x       y       z     vdW  Elec       q    Type
REMARK                         _______ _______ _______ _____ _____    ______ ____
ROOT
ATOM      1  C   UNL     1       5.435   5.180  18.013  0.00  0.00    +0.000 A 
ATOM      2  C   UNL     1       6.328   5.942  18.665  0.00  0.00    +0.000 A 
ATOM      3  C   UNL     1       7.510   6.543  18.030  0.00  0.00    +0.000 A 
ATOM      4  O   UNL     1       8.314   7.187  18.696  0.00  0.00    +0.000 OA
ATOM      5  O   UNL     1       7.629   6.390  16.666  0.00  0.00    +0.000 OA
ATOM      6  C   UNL     1       6.790   5.498  15.973  0.00  0.00    +0.000 A 
ATOM      7  C   UNL     1       7.149   5.252  14.645  0.00  0.00    +0.000 A 
ATOM      8  C   UNL     1       6.450   4.297  13.917  0.00  0.00    +0.000 A 
ATOM      9  C   UNL     1       5.379   3.638  14.523  0.00  0.00    +0.000 A 
ATOM     10  C   UNL     1       5.000   3.931  15.842  0.00  0.00    +0.000 A 
ATOM     11  C   UNL     1       5.714   4.865  16.601  0.00  0.00    +0.000 A 
ENDROOT
BRANCH   8  12
ATOM     12  O   UNL     1       6.725   3.910  12.634  0.00  0.00    +0.000 OA
ATOM     13  C   UNL     1       5.807   3.000  12.036  0.00  0.00    +0.000 C 
ENDBRANCH   8  12
BRANCH   1  14
ATOM     14  C   UNL     1       4.167   4.729  18.714  0.00  0.00    +0.000 C 
BRANCH  14  15
ATOM     15  N   UNL     1       2.939   5.507  18.479  0.00  0.00    +0.000 NA
BRANCH  15  16
ATOM     16  C   UNL     1       1.922   4.697  17.765  0.00  0.00    +0.000 C 
BRANCH  16  17
ATOM     17  C   UNL     1       1.698   3.247  18.242  0.00  0.00    +0.000 C 
BRANCH  17  19
ATOM     18  C   UNL     1       3.303   1.535  18.078  0.00  0.00    +0.000 C 
ATOM     19  O   UNL     1       2.337   2.308  17.378  0.00  0.00    +0.000 OA
ENDBRANCH  17  19
ENDBRANCH  16  17
ENDBRANCH  15  16
BRANCH  15  20
ATOM     20  C   UNL     1       2.405   6.084  19.735  0.00  0.00    +0.000 C 
BRANCH  20  21
ATOM     21  C   UNL     1       1.565   5.173  20.665  0.00  0.00    +0.000 C 
BRANCH  21  22
ATOM     22  O   UNL     1       2.390   4.478  21.602  0.00  0.00    +0.000 OA
ATOM     23  C   UNL     1       2.034   3.102  21.694  0.00  0.00    +0.000 C 
ENDBRANCH  21  22
ENDBRANCH  20  21
ENDBRANCH  15  20
ENDBRANCH  14  15
ENDBRANCH   1  14
TORSDOF 9
ENDMDL
MODEL 8
REMARK VINA RESULT:      -6.2      2.301      7.027
REMARK  Name = 
REMARK  12 active torsions:
REMARK  status: ('A' for Active; 'I' for Inactive)
REMARK    1  A    between atoms: C_1  and  O_2
REMARK    2  A    between atoms: O_2  and  C_3
REMARK    3  A    between atoms: C_3  and  C_4
REMARK    4  A    between atoms: C_4  and  N_5
REMARK    5  A    between atoms: N_5  and  C_6
REMARK    6  A    between atoms: N_5  and  C_10
REMARK    7  A    between atoms: C_6  and  C_7
REMARK    8  A    between atoms: C_7  and  O_8
REMARK    9  A    between atoms: O_8  and  C_9
REMARK   10  A    between atoms: C_10  and  C_11
REMARK   11  A    between atoms: C_18  and  O_19
REMARK   12  A    between atoms: O_19  and  C_20
REMARK                            x       y       z     vdW  Elec       q    Type
REMARK                         _______ _______ _______ _____ _____    ______ ____
ROOT
ATOM      1  C   UNL     1       4.248   4.803  18.045  0.00  0.00    +0.000 A 
ATOM      2  C   UNL     1       4.518   3.661  18.698  0.00  0.00    +0.000 A 
ATOM      3  C   UNL     1       3.899   3.284  19.978  0.00  0.00    +0.000 A 
ATOM      4  O   UNL     1       4.229   2.249  20.547  0.00  0.00    +0.000 OA
ATOM      5  O   UNL     1       2.911   4.114  20.460  0.00  0.00    +0.000 OA
ATOM      6  C   UNL     1       2.693   5.375  19.875  0.00  0.00    +0.000 A 
ATOM      7  C   UNL     1       1.832   6.219  20.582  0.00  0.00    +0.000 A 
ATOM      8  C   UNL     1       1.647   7.525  20.145  0.00  0.00    +0.000 A 
ATOM      9  C   UNL     1       2.297   7.945  18.983  0.00  0.00    +0.000 A 
ATOM     10  C   UNL     1       3.120   7.070  18.256  0.00  0.00    +0.000 A 
ATOM     11  C   UNL     1       3.344   5.763  18.701  0.00  0.00    +0.000 A 
ENDROOT
BRANCH   8  12
ATOM     12  O   UNL     1       0.887   8.477  20.766  0.00  0.00    +0.000 OA
ATOM     13  C   UNL     1       1.385   8.981  22.001  0.00  0.00    +0.000 C 
ENDBRANCH   8  12
BRANCH   1  14
ATOM     14  C   UNL     1       4.820   5.036  16.658  0.00  0.00    +0.000 C 
BRANCH  14  15
ATOM     15  N   UNL     1       6.280   5.171  16.532  0.00  0.00    +0.000 NA
BRANCH  15  16
ATOM     16  C   UNL     1       6.707   5.054  15.117  0.00  0.00    +0.000 C 
BRANCH  16  17
ATOM     17  C   UNL     1       5.806   4.244  14.162  0.00  0.00    +0.000 C 
BRANCH  17  19
ATOM     18  C   UNL     1       5.684   3.104  12.108  0.00  0.00    +0.000 C 
ATOM     19  O   UNL     1       6.536   3.771  13.030  0.00  0.00    +0.000 OA
ENDBRANCH  17  19
ENDBRANCH  16  17
ENDBRANCH  15  16
BRANCH  15  20
ATOM     20  C   UNL     1       6.773   6.421  17.158  0.00  0.00    +0.000 C 
BRANCH  20  21
ATOM     21  C   UNL     1       7.715   6.309  18.383  0.00  0.00    +0.000 C 
BRANCH  21  22
ATOM     22  O   UNL     1       8.345   7.557  18.675  0.00  0.00    +0.000 OA
ATOM     23  C   UNL     1       7.970   8.565  17.741  0.00  0.00    +0.000 C 
ENDBRANCH  21  22
ENDBRANCH  20  21
ENDBRANCH  15  20
ENDBRANCH  14  15
ENDBRANCH   1  14
TORSDOF 9
ENDMDL
MODEL 9
REMARK VINA RESULT:      -6.2      1.932      2.760
REMARK  Name = 
REMARK  12 active torsions:
REMARK  status: ('A' for Active; 'I' for Inactive)
REMARK    1  A    between atoms: C_1  and  O_2
REMARK    2  A    between atoms: O_2  and  C_3
REMARK    3  A    between atoms: C_3  and  C_4
REMARK    4  A    between atoms: C_4  and  N_5
REMARK    5  A    between atoms: N_5  and  C_6
REMARK    6  A    between atoms: N_5  and  C_10
REMARK    7  A    between atoms: C_6  and  C_7
REMARK    8  A    between atoms: C_7  and  O_8
REMARK    9  A    between atoms: O_8  and  C_9
REMARK   10  A    between atoms: C_10  and  C_11
REMARK   11  A    between atoms: C_18  and  O_19
REMARK   12  A    between atoms: O_19  and  C_20
REMARK                            x       y       z     vdW  Elec       q    Type
REMARK                         _______ _______ _______ _____ _____    ______ ____
ROOT
ATOM      1  C   UNL     1       5.724   5.076  18.280  0.00  0.00    +0.000 A 
ATOM      2  C   UNL     1       6.590   5.932  18.847  0.00  0.00    +0.000 A 
ATOM      3  C   UNL     1       7.638   6.649  18.105  0.00  0.00    +0.000 A 
ATOM      4  O   UNL     1       8.429   7.378  18.694  0.00  0.00    +0.000 OA
ATOM      5  O   UNL     1       7.644   6.498  16.736  0.00  0.00    +0.000 OA
ATOM      6  C   UNL     1       6.842   5.517  16.123  0.00  0.00    +0.000 A 
ATOM      7  C   UNL     1       7.099   5.300  14.767  0.00  0.00    +0.000 A 
ATOM      8  C   UNL     1       6.439   4.272  14.106  0.00  0.00    +0.000 A 
ATOM      9  C   UNL     1       5.504   3.509  14.808  0.00  0.00    +0.000 A 
ATOM     10  C   UNL     1       5.222   3.772  16.158  0.00  0.00    +0.000 A 
ATOM     11  C   UNL     1       5.902   4.780  16.848  0.00  0.00    +0.000 A 
ENDROOT
BRANCH   8  12
ATOM     12  O   UNL     1       6.632   3.905  12.802  0.00  0.00    +0.000 OA
ATOM     13  C   UNL     1       5.577   3.172  12.187  0.00  0.00    +0.000 C 
ENDBRANCH   8  12
BRANCH   1  14
ATOM     14  C   UNL     1       4.581   4.501  19.097  0.00  0.00    +0.000 C 
BRANCH  14  15
ATOM     15  N   UNL     1       3.239   5.070  18.894  0.00  0.00    +0.000 NA
BRANCH  15  16
ATOM     16  C   UNL     1       2.500   5.166  20.177  0.00  0.00    +0.000 C 
BRANCH  16  17
ATOM     17  C   UNL     1       1.329   4.188  20.402  0.00  0.00    +0.000 C 
BRANCH  17  19
ATOM     18  C   UNL     1       0.821   2.524  18.819  0.00  0.00    +0.000 C 
ATOM     19  O   UNL     1       1.641   2.880  19.924  0.00  0.00    +0.000 OA
ENDBRANCH  17  19
ENDBRANCH  16  17
ENDBRANCH  15  16
BRANCH  15  20
ATOM     20  C   UNL     1       3.294   6.371  18.188  0.00  0.00    +0.000 C 
BRANCH  20  21
ATOM     21  C   UNL     1       2.337   7.500  18.648  0.00  0.00    +0.000 C 
BRANCH  21  22
ATOM     22  O   UNL     1       2.071   8.424  17.593  0.00  0.00    +0.000 OA
ATOM     23  C   UNL     1       1.693   9.702  18.097  0.00  0.00    +0.000 C 
ENDBRANCH  21  22
ENDBRANCH  20  21
ENDBRANCH  15  20
ENDBRANCH  14  15
ENDBRANCH   1  14
TORSDOF 9
ENDMDL
