MODEL 1
REMARK VINA RESULT:      -8.1      0.000      0.000
REMARK  Name = 
REMARK  8 active torsions:
REMARK  status: ('A' for Active; 'I' for Inactive)
REMARK    1  A    between atoms: C_5  and  O_6
REMARK    2  A    between atoms: O_6  and  C_7
REMARK    3  A    between atoms: C_12  and  C_13
REMARK    4  A    between atoms: C_16  and  O_17
REMARK    5  A    between atoms: O_17  and  C_18
REMARK    6  A    between atoms: C_18  and  C_19
REMARK    7  A    between atoms: C_19  and  C_20
REMARK    8  A    between atoms: C_20  and  N_21
REMARK                            x       y       z     vdW  Elec       q    Type
REMARK                         _______ _______ _______ _____ _____    ______ ____
ROOT
ATOM      1  C   UNL     1       4.448   4.341  16.889  0.00  0.00    +0.000 A 
ATOM      2  C   UNL     1       5.572   3.803  16.238  0.00  0.00    +0.000 A 
ATOM      3  C   UNL     1       6.745   4.550  16.082  0.00  0.00    +0.000 A 
ATOM      4  C   UNL     1       6.787   5.820  16.660  0.00  0.00    +0.000 A 
ATOM      5  N   UNL     1       7.787   6.742  16.695  0.00  0.00    +0.000 NA
ATOM      6  C   UNL     1       7.288   7.719  17.433  0.00  0.00    +0.000 A 
ATOM      7  O   UNL     1       6.001   7.524  17.855  0.00  0.00    +0.000 OA
ATOM      8  C   UNL     1       5.685   6.294  17.352  0.00  0.00    +0.000 A 
ATOM      9  C   UNL     1       4.490   5.604  17.495  0.00  0.00    +0.000 A 
ENDROOT
BRANCH   6  10
ATOM     10  C   UNL     1       7.977   8.924  17.868  0.00  0.00    +0.000 A 
ATOM     11  C   UNL     1       8.824   8.816  18.976  0.00  0.00    +0.000 A 
ATOM     12  C   UNL     1       9.471   9.935  19.493  0.00  0.00    +0.000 A 
ATOM     13  C   UNL     1       9.280  11.185  18.909  0.00  0.00    +0.000 A 
ATOM     14  C   UNL     1       8.449  11.303  17.792  0.00  0.00    +0.000 A 
ATOM     15  C   UNL     1       7.803  10.178  17.268  0.00  0.00    +0.000 A 
BRANCH  13  16
ATOM     16  O   UNL     1       9.852  12.343  19.360  0.00  0.00    +0.000 OA
BRANCH  16  17
ATOM     17  C   UNL     1      11.268  12.435  19.173  0.00  0.00    +0.000 C 
BRANCH  17  18
ATOM     18  C   UNL     1      11.575  13.376  18.021  0.00  0.00    +0.000 C 
BRANCH  18  19
ATOM     19  C   UNL     1      12.233  14.668  18.511  0.00  0.00    +0.000 C 
BRANCH  19  20
ATOM     20  N   UNL     1      11.255  15.635  19.041  0.00  0.00    +0.000 NA
ATOM     21  C   UNL     1      10.123  15.891  18.120  0.00  0.00    +0.000 C 
ATOM     22  C   UNL     1      10.534  16.646  16.849  0.00  0.00    +0.000 C 
ATOM     23  O   UNL     1      11.105  17.917  17.185  0.00  0.00    +0.000 OA
ATOM     24  C   UNL     1      12.240  17.757  18.047  0.00  0.00    +0.000 C 
ATOM     25  C   UNL     1      11.904  16.941  19.311  0.00  0.00    +0.000 C 
ENDBRANCH  19  20
ENDBRANCH  18  19
ENDBRANCH  17  18
ENDBRANCH  16  17
ENDBRANCH  13  16
ENDBRANCH   6  10
BRANCH   1  26
ATOM     26  O   UNL     1       3.260   3.661  17.042  0.00  0.00    +0.000 OA
BRANCH  26  31
ATOM     27  F   UNL     1       1.122   2.656  21.999  0.00  0.00    +0.000 F 
ATOM     28  C   UNL     1       1.661   2.879  20.793  0.00  0.00    +0.000 A 
ATOM     29  C   UNL     1       0.864   3.371  19.767  0.00  0.00    +0.000 A 
ATOM     30  C   UNL     1       1.432   3.623  18.519  0.00  0.00    +0.000 A 
ATOM     31  C   UNL     1       2.792   3.383  18.307  0.00  0.00    +0.000 A 
ATOM     32  C   UNL     1       3.574   2.836  19.332  0.00  0.00    +0.000 A 
ATOM     33  C   UNL     1       3.011   2.610  20.589  0.00  0.00    +0.000 A 
ENDBRANCH  26  31
ENDBRANCH   1  26
TORSDOF 8
ENDMDL
MODEL 2
REMARK VINA RESULT:      -8.0      1.158      1.570
REMARK  Name = 
REMARK  8 active torsions:
REMARK  status: ('A' for Active; 'I' for Inactive)
REMARK    1  A    between atoms: C_5  and  O_6
REMARK    2  A    between atoms: O_6  and  C_7
REMARK    3  A    between atoms: C_12  and  C_13
REMARK    4  A    between atoms: C_16  and  O_17
REMARK    5  A    between atoms: O_17  and  C_18
REMARK    6  A    between atoms: C_18  and  C_19
REMARK    7  A    between atoms: C_19  and  C_20
REMARK    8  A    between atoms: C_20  and  N_21
REMARK                            x       y       z     vdW  Elec       q    Type
REMARK                         _______ _______ _______ _____ _____    ______ ____
ROOT
ATOM      1  C   UNL     1       4.525   4.507  16.880  0.00  0.00    +0.000 A 
ATOM      2  C   UNL     1       5.661   3.968  16.252  0.00  0.00    +0.000 A 
ATOM      3  C   UNL     1       6.835   4.717  16.110  0.00  0.00    +0.000 A 
ATOM      4  C   UNL     1       6.865   5.991  16.682  0.00  0.00    +0.000 A 
ATOM      5  N   UNL     1       7.862   6.915  16.728  0.00  0.00    +0.000 NA
ATOM      6  C   UNL     1       7.349   7.895  17.452  0.00  0.00    +0.000 A 
ATOM      7  O   UNL     1       6.055   7.700  17.854  0.00  0.00    +0.000 OA
ATOM      8  C   UNL     1       5.750   6.466  17.352  0.00  0.00    +0.000 A 
ATOM      9  C   UNL     1       4.555   5.774  17.480  0.00  0.00    +0.000 A 
ENDROOT
BRANCH   6  10
ATOM     10  C   UNL     1       8.027   9.104  17.891  0.00  0.00    +0.000 A 
ATOM     11  C   UNL     1       8.907   8.991  18.972  0.00  0.00    +0.000 A 
ATOM     12  C   UNL     1       9.548  10.112  19.493  0.00  0.00    +0.000 A 
ATOM     13  C   UNL     1       9.318  11.369  18.940  0.00  0.00    +0.000 A 
ATOM     14  C   UNL     1       8.453  11.493  17.849  0.00  0.00    +0.000 A 
ATOM     15  C   UNL     1       7.813  10.366  17.322  0.00  0.00    +0.000 A 
BRANCH  13  16
ATOM     16  O   UNL     1       9.881  12.529  19.398  0.00  0.00    +0.000 OA
BRANCH  16  17
ATOM     17  C   UNL     1      11.113  12.897  18.768  0.00  0.00    +0.000 C 
BRANCH  17  18
ATOM     18  C   UNL     1      10.869  14.026  17.783  0.00  0.00    +0.000 C 
BRANCH  18  19
ATOM     19  C   UNL     1      10.276  15.257  18.473  0.00  0.00    +0.000 C 
BRANCH  19  20
ATOM     20  N   UNL     1       9.476  16.088  17.557  0.00  0.00    +0.000 NA
ATOM     21  C   UNL     1       9.750  17.539  17.689  0.00  0.00    +0.000 C 
ATOM     22  C   UNL     1       9.268  18.128  19.022  0.00  0.00    +0.000 C 
ATOM     23  O   UNL     1       7.853  17.946  19.166  0.00  0.00    +0.000 OA
ATOM     24  C   UNL     1       7.504  16.557  19.091  0.00  0.00    +0.000 C 
ATOM     25  C   UNL     1       8.027  15.892  17.802  0.00  0.00    +0.000 C 
ENDBRANCH  19  20
ENDBRANCH  18  19
ENDBRANCH  17  18
ENDBRANCH  16  17
ENDBRANCH  13  16
ENDBRANCH   6  10
BRANCH   1  26
ATOM     26  O   UNL     1       3.337   3.826  17.017  0.00  0.00    +0.000 OA
BRANCH  26  31
ATOM     27  F   UNL     1       1.178   2.774  21.955  0.00  0.00    +0.000 F 
ATOM     28  C   UNL     1       1.721   3.007  20.753  0.00  0.00    +0.000 A 
ATOM     29  C   UNL     1       0.951   3.597  19.757  0.00  0.00    +0.000 A 
ATOM     30  C   UNL     1       1.525   3.858  18.513  0.00  0.00    +0.000 A 
ATOM     31  C   UNL     1       2.861   3.530  18.276  0.00  0.00    +0.000 A 
ATOM     32  C   UNL     1       3.611   2.887  19.268  0.00  0.00    +0.000 A 
ATOM     33  C   UNL     1       3.045   2.651  20.521  0.00  0.00    +0.000 A 
ENDBRANCH  26  31
ENDBRANCH   1  26
TORSDOF 8
ENDMDL
MODEL 3
REMARK VINA RESULT:      -8.0      2.259      3.389
REMARK  Name = 
REMARK  8 active torsions:
REMARK  status: ('A' for Active; 'I' for Inactive)
REMARK    1  A    between atoms: C_5  and  O_6
REMARK    2  A    between atoms: O_6  and  C_7
REMARK    3  A    between atoms: C_12  and  C_13
REMARK    4  A    between atoms: C_16  and  O_17
REMARK    5  A    between atoms: O_17  and  C_18
REMARK    6  A    between atoms: C_18  and  C_19
REMARK    7  A    between atoms: C_19  and  C_20
REMARK    8  A    between atoms: C_20  and  N_21
REMARK                            x       y       z     vdW  Elec       q    Type
REMARK                         _______ _______ _______ _____ _____    ______ ____
ROOT
ATOM      1  C   UNL     1       5.623   5.336  17.149  0.00  0.00    +0.000 A 
ATOM      2  C   UNL     1       6.502   4.728  18.063  0.00  0.00    +0.000 A 
ATOM      3  C   UNL     1       7.574   5.437  18.618  0.00  0.00    +0.000 A 
ATOM      4  C   UNL     1       7.696   6.789  18.291  0.00  0.00    +0.000 A 
ATOM      5  N   UNL     1       8.604   7.716  18.698  0.00  0.00    +0.000 NA
ATOM      6  C   UNL     1       8.190   8.833  18.125  0.00  0.00    +0.000 A 
ATOM      7  O   UNL     1       7.087   8.698  17.326  0.00  0.00    +0.000 OA
ATOM      8  C   UNL     1       6.774   7.373  17.440  0.00  0.00    +0.000 A 
ATOM      9  C   UNL     1       5.723   6.698  16.837  0.00  0.00    +0.000 A 
ENDROOT
BRANCH   6  10
ATOM     10  C   UNL     1       8.750  10.165  18.298  0.00  0.00    +0.000 A 
ATOM     11  C   UNL     1       8.224  11.192  17.508  0.00  0.00    +0.000 A 
ATOM     12  C   UNL     1       8.747  12.480  17.569  0.00  0.00    +0.000 A 
ATOM     13  C   UNL     1       9.808  12.765  18.425  0.00  0.00    +0.000 A 
ATOM     14  C   UNL     1      10.331  11.751  19.232  0.00  0.00    +0.000 A 
ATOM     15  C   UNL     1       9.803  10.457  19.175  0.00  0.00    +0.000 A 
BRANCH  13  16
ATOM     16  O   UNL     1      10.403  13.992  18.535  0.00  0.00    +0.000 OA
BRANCH  16  17
ATOM     17  C   UNL     1       9.648  15.084  18.000  0.00  0.00    +0.000 C 
BRANCH  17  18
ATOM     18  C   UNL     1       9.298  16.060  19.109  0.00  0.00    +0.000 C 
BRANCH  18  19
ATOM     19  C   UNL     1       8.012  15.654  19.831  0.00  0.00    +0.000 C 
BRANCH  19  20
ATOM     20  N   UNL     1       8.015  16.041  21.253  0.00  0.00    +0.000 NA
ATOM     21  C   UNL     1       9.306  15.779  21.931  0.00  0.00    +0.000 C 
ATOM     22  C   UNL     1       9.611  14.284  22.096  0.00  0.00    +0.000 C 
ATOM     23  O   UNL     1       8.585  13.647  22.870  0.00  0.00    +0.000 OA
ATOM     24  C   UNL     1       7.300  13.819  22.257  0.00  0.00    +0.000 C 
ATOM     25  C   UNL     1       6.969  15.302  22.000  0.00  0.00    +0.000 C 
ENDBRANCH  19  20
ENDBRANCH  18  19
ENDBRANCH  17  18
ENDBRANCH  16  17
ENDBRANCH  13  16
ENDBRANCH   6  10
BRANCH   1  26
ATOM     26  O   UNL     1       4.573   4.676  16.551  0.00  0.00    +0.000 OA
BRANCH  26  31
ATOM     27  F   UNL     1       0.366   2.702  19.474  0.00  0.00    +0.000 F 
ATOM     28  C   UNL     1       1.398   3.201  18.783  0.00  0.00    +0.000 A 
ATOM     29  C   UNL     1       2.117   2.371  17.931  0.00  0.00    +0.000 A 
ATOM     30  C   UNL     1       3.178   2.898  17.195  0.00  0.00    +0.000 A 
ATOM     31  C   UNL     1       3.510   4.249  17.316  0.00  0.00    +0.000 A 
ATOM     32  C   UNL     1       2.814   5.063  18.218  0.00  0.00    +0.000 A 
ATOM     33  C   UNL     1       1.735   4.542  18.932  0.00  0.00    +0.000 A 
ENDBRANCH  26  31
ENDBRANCH   1  26
TORSDOF 8
ENDMDL
MODEL 4
REMARK VINA RESULT:      -8.0      2.222      2.939
REMARK  Name = 
REMARK  8 active torsions:
REMARK  status: ('A' for Active; 'I' for Inactive)
REMARK    1  A    between atoms: C_5  and  O_6
REMARK    2  A    between atoms: O_6  and  C_7
REMARK    3  A    between atoms: C_12  and  C_13
REMARK    4  A    between atoms: C_16  and  O_17
REMARK    5  A    between atoms: O_17  and  C_18
REMARK    6  A    between atoms: C_18  and  C_19
REMARK    7  A    between atoms: C_19  and  C_20
REMARK    8  A    between atoms: C_20  and  N_21
REMARK                            x       y       z     vdW  Elec       q    Type
REMARK                         _______ _______ _______ _____ _____    ______ ____
ROOT
ATOM      1  C   UNL     1       5.825   5.300  17.141  0.00  0.00    +0.000 A 
ATOM      2  C   UNL     1       6.549   4.757  18.216  0.00  0.00    +0.000 A 
ATOM      3  C   UNL     1       7.554   5.490  18.858  0.00  0.00    +0.000 A 
ATOM      4  C   UNL     1       7.762   6.806  18.443  0.00  0.00    +0.000 A 
ATOM      5  N   UNL     1       8.632   7.748  18.897  0.00  0.00    +0.000 NA
ATOM      6  C   UNL     1       8.336   8.820  18.181  0.00  0.00    +0.000 A 
ATOM      7  O   UNL     1       7.352   8.638  17.248  0.00  0.00    +0.000 OA
ATOM      8  C   UNL     1       6.986   7.333  17.424  0.00  0.00    +0.000 A 
ATOM      9  C   UNL     1       6.009   6.629  16.735  0.00  0.00    +0.000 A 
ENDROOT
BRANCH   6  10
ATOM     10  C   UNL     1       8.907  10.151  18.323  0.00  0.00    +0.000 A 
ATOM     11  C   UNL     1       8.288  11.193  17.625  0.00  0.00    +0.000 A 
ATOM     12  C   UNL     1       8.809  12.483  17.659  0.00  0.00    +0.000 A 
ATOM     13  C   UNL     1       9.961  12.754  18.393  0.00  0.00    +0.000 A 
ATOM     14  C   UNL     1      10.579  11.724  19.108  0.00  0.00    +0.000 A 
ATOM     15  C   UNL     1      10.053  10.429  19.080  0.00  0.00    +0.000 A 
BRANCH  13  16
ATOM     16  O   UNL     1      10.560  13.982  18.465  0.00  0.00    +0.000 OA
BRANCH  16  17
ATOM     17  C   UNL     1      10.742  14.492  19.791  0.00  0.00    +0.000 C 
BRANCH  17  18
ATOM     18  C   UNL     1       9.397  14.871  20.386  0.00  0.00    +0.000 C 
BRANCH  18  19
ATOM     19  C   UNL     1       9.347  16.353  20.765  0.00  0.00    +0.000 C 
BRANCH  19  20
ATOM     20  N   UNL     1       9.124  17.227  19.600  0.00  0.00    +0.000 NA
ATOM     21  C   UNL     1       8.679  18.592  19.967  0.00  0.00    +0.000 C 
ATOM     22  C   UNL     1       7.264  18.629  20.561  0.00  0.00    +0.000 C 
ATOM     23  O   UNL     1       6.314  18.107  19.623  0.00  0.00    +0.000 OA
ATOM     24  C   UNL     1       6.650  16.766  19.244  0.00  0.00    +0.000 C 
ATOM     25  C   UNL     1       8.090  16.654  18.705  0.00  0.00    +0.000 C 
ENDBRANCH  19  20
ENDBRANCH  18  19
ENDBRANCH  17  18
ENDBRANCH  16  17
ENDBRANCH  13  16
ENDBRANCH   6  10
BRANCH   1  26
ATOM     26  O   UNL     1       4.849   4.612  16.455  0.00  0.00    +0.000 OA
BRANCH  26  31
ATOM     27  F   UNL     1       0.497   2.776  19.254  0.00  0.00    +0.000 F 
ATOM     28  C   UNL     1       1.557   3.201  18.554  0.00  0.00    +0.000 A 
ATOM     29  C   UNL     1       1.762   4.565  18.383  0.00  0.00    +0.000 A 
ATOM     30  C   UNL     1       2.878   5.006  17.672  0.00  0.00    +0.000 A 
ATOM     31  C   UNL     1       3.780   4.081  17.141  0.00  0.00    +0.000 A 
ATOM     32  C   UNL     1       3.534   2.708  17.273  0.00  0.00    +0.000 A 
ATOM     33  C   UNL     1       2.433   2.268  18.008  0.00  0.00    +0.000 A 
ENDBRANCH  26  31
ENDBRANCH   1  26
TORSDOF 8
ENDMDL
MODEL 5
REMARK VINA RESULT:      -8.0      2.906      3.809
REMARK  Name = 
REMARK  8 active torsions:
REMARK  status: ('A' for Active; 'I' for Inactive)
REMARK    1  A    between atoms: C_5  and  O_6
REMARK    2  A    between atoms: O_6  and  C_7
REMARK    3  A    between atoms: C_12  and  C_13
REMARK    4  A    between atoms: C_16  and  O_17
REMARK    5  A    between atoms: O_17  and  C_18
REMARK    6  A    between atoms: C_18  and  C_19
REMARK    7  A    between atoms: C_19  and  C_20
REMARK    8  A    between atoms: C_20  and  N_21
REMARK                            x       y       z     vdW  Elec       q    Type
REMARK                         _______ _______ _______ _____ _____    ______ ____
ROOT
ATOM      1  C   UNL     1       5.655   5.391  17.086  0.00  0.00    +0.000 A 
ATOM      2  C   UNL     1       6.467   4.729  18.023  0.00  0.00    +0.000 A 
ATOM      3  C   UNL     1       7.533   5.385  18.650  0.00  0.00    +0.000 A 
ATOM      4  C   UNL     1       7.716   6.740  18.370  0.00  0.00    +0.000 A 
ATOM      5  N   UNL     1       8.632   7.625  18.848  0.00  0.00    +0.000 NA
ATOM      6  C   UNL     1       8.283   8.771  18.288  0.00  0.00    +0.000 A 
ATOM      7  O   UNL     1       7.218   8.696  17.433  0.00  0.00    +0.000 OA
ATOM      8  C   UNL     1       6.856   7.379  17.492  0.00  0.00    +0.000 A 
ATOM      9  C   UNL     1       5.814   6.758  16.820  0.00  0.00    +0.000 A 
ENDROOT
BRANCH   6  10
ATOM     10  C   UNL     1       8.877  10.077  18.528  0.00  0.00    +0.000 A 
ATOM     11  C   UNL     1       9.332  10.349  19.823  0.00  0.00    +0.000 A 
ATOM     12  C   UNL     1       9.856  11.596  20.149  0.00  0.00    +0.000 A 
ATOM     13  C   UNL     1       9.934  12.597  19.184  0.00  0.00    +0.000 A 
ATOM     14  C   UNL     1       9.498  12.332  17.883  0.00  0.00    +0.000 A 
ATOM     15  C   UNL     1       8.977  11.077  17.552  0.00  0.00    +0.000 A 
BRANCH  13  16
ATOM     16  O   UNL     1      10.409  13.858  19.416  0.00  0.00    +0.000 OA
BRANCH  16  17
ATOM     17  C   UNL     1       9.483  14.916  19.144  0.00  0.00    +0.000 C 
BRANCH  17  18
ATOM     18  C   UNL     1       8.292  14.811  20.081  0.00  0.00    +0.000 C 
BRANCH  18  19
ATOM     19  C   UNL     1       6.970  14.806  19.311  0.00  0.00    +0.000 C 
BRANCH  19  20
ATOM     20  N   UNL     1       6.046  15.859  19.766  0.00  0.00    +0.000 NA
ATOM     21  C   UNL     1       5.667  15.733  21.193  0.00  0.00    +0.000 C 
ATOM     22  C   UNL     1       4.786  14.510  21.480  0.00  0.00    +0.000 C 
ATOM     23  O   UNL     1       3.572  14.579  20.720  0.00  0.00    +0.000 OA
ATOM     24  C   UNL     1       3.849  14.662  19.316  0.00  0.00    +0.000 C 
ATOM     25  C   UNL     1       4.792  15.834  18.975  0.00  0.00    +0.000 C 
ENDBRANCH  19  20
ENDBRANCH  18  19
ENDBRANCH  17  18
ENDBRANCH  16  17
ENDBRANCH  13  16
ENDBRANCH   6  10
BRANCH   1  26
ATOM     26  O   UNL     1       4.615   4.785  16.418  0.00  0.00    +0.000 OA
BRANCH  26  31
ATOM     27  F   UNL     1       0.615   2.418  19.340  0.00  0.00    +0.000 F 
ATOM     28  C   UNL     1       1.590   2.973  18.610  0.00  0.00    +0.000 A 
ATOM     29  C   UNL     1       1.648   4.356  18.484  0.00  0.00    +0.000 A 
ATOM     30  C   UNL     1       2.678   4.933  17.740  0.00  0.00    +0.000 A 
ATOM     31  C   UNL     1       3.639   4.124  17.131  0.00  0.00    +0.000 A 
ATOM     32  C   UNL     1       3.540   2.730  17.219  0.00  0.00    +0.000 A 
ATOM     33  C   UNL     1       2.526   2.154  17.987  0.00  0.00    +0.000 A 
ENDBRANCH  26  31
ENDBRANCH   1  26
TORSDOF 8
ENDMDL
MODEL 6
REMARK VINA RESULT:      -7.9      1.775      2.167
REMARK  Name = 
REMARK  8 active torsions:
REMARK  status: ('A' for Active; 'I' for Inactive)
REMARK    1  A    between atoms: C_5  and  O_6
REMARK    2  A    between atoms: O_6  and  C_7
REMARK    3  A    between atoms: C_12  and  C_13
REMARK    4  A    between atoms: C_16  and  O_17
REMARK    5  A    between atoms: O_17  and  C_18
REMARK    6  A    between atoms: C_18  and  C_19
REMARK    7  A    between atoms: C_19  and  C_20
REMARK    8  A    between atoms: C_20  and  N_21
REMARK                            x       y       z     vdW  Elec       q    Type
REMARK                         _______ _______ _______ _____ _____    ______ ____
ROOT
ATOM      1  C   UNL     1       4.508   4.750  16.983  0.00  0.00    +0.000 A 
ATOM      2  C   UNL     1       5.647   4.150  16.419  0.00  0.00    +0.000 A 
ATOM      3  C   UNL     1       6.850   4.854  16.295  0.00  0.00    +0.000 A 
ATOM      4  C   UNL     1       6.903   6.147  16.819  0.00  0.00    +0.000 A 
ATOM      5  N   UNL     1       7.929   7.038  16.868  0.00  0.00    +0.000 NA
ATOM      6  C   UNL     1       7.424   8.062  17.534  0.00  0.00    +0.000 A 
ATOM      7  O   UNL     1       6.110   7.926  17.894  0.00  0.00    +0.000 OA
ATOM      8  C   UNL     1       5.781   6.684  17.428  0.00  0.00    +0.000 A 
ATOM      9  C   UNL     1       4.559   6.037  17.536  0.00  0.00    +0.000 A 
ENDROOT
BRANCH   6  10
ATOM     10  C   UNL     1       8.127   9.265  17.954  0.00  0.00    +0.000 A 
ATOM     11  C   UNL     1       8.964   9.164  19.070  0.00  0.00    +0.000 A 
ATOM     12  C   UNL     1       9.623  10.282  19.572  0.00  0.00    +0.000 A 
ATOM     13  C   UNL     1       9.457  11.524  18.965  0.00  0.00    +0.000 A 
ATOM     14  C   UNL     1       8.635  11.635  17.839  0.00  0.00    +0.000 A 
ATOM     15  C   UNL     1       7.977  10.510  17.330  0.00  0.00    +0.000 A 
BRANCH  13  16
ATOM     16  O   UNL     1      10.041  12.681  19.401  0.00  0.00    +0.000 OA
BRANCH  16  17
ATOM     17  C   UNL     1       9.702  13.068  20.737  0.00  0.00    +0.000 C 
BRANCH  17  18
ATOM     18  C   UNL     1       9.952  14.554  20.922  0.00  0.00    +0.000 C 
BRANCH  18  19
ATOM     19  C   UNL     1       8.653  15.358  20.833  0.00  0.00    +0.000 C 
BRANCH  19  20
ATOM     20  N   UNL     1       7.921  15.113  19.578  0.00  0.00    +0.000 NA
ATOM     21  C   UNL     1       8.451  15.883  18.428  0.00  0.00    +0.000 C 
ATOM     22  C   UNL     1       8.210  17.394  18.548  0.00  0.00    +0.000 C 
ATOM     23  O   UNL     1       6.806  17.671  18.637  0.00  0.00    +0.000 OA
ATOM     24  C   UNL     1       6.219  16.992  19.755  0.00  0.00    +0.000 C 
ATOM     25  C   UNL     1       6.491  15.475  19.727  0.00  0.00    +0.000 C 
ENDBRANCH  19  20
ENDBRANCH  18  19
ENDBRANCH  17  18
ENDBRANCH  16  17
ENDBRANCH  13  16
ENDBRANCH   6  10
BRANCH   1  26
ATOM     26  O   UNL     1       3.292   4.115  17.101  0.00  0.00    +0.000 OA
BRANCH  26  31
ATOM     27  F   UNL     1       1.234   2.684  21.986  0.00  0.00    +0.000 F 
ATOM     28  C   UNL     1       1.753   3.010  20.795  0.00  0.00    +0.000 A 
ATOM     29  C   UNL     1       0.950   3.631  19.845  0.00  0.00    +0.000 A 
ATOM     30  C   UNL     1       1.499   3.989  18.614  0.00  0.00    +0.000 A 
ATOM     31  C   UNL     1       2.843   3.725  18.343  0.00  0.00    +0.000 A 
ATOM     32  C   UNL     1       3.628   3.049  19.286  0.00  0.00    +0.000 A 
ATOM     33  C   UNL     1       3.086   2.717  20.528  0.00  0.00    +0.000 A 
ENDBRANCH  26  31
ENDBRANCH   1  26
TORSDOF 8
ENDMDL
MODEL 7
REMARK VINA RESULT:      -7.8      9.304     11.624
REMARK  Name = 
REMARK  8 active torsions:
REMARK  status: ('A' for Active; 'I' for Inactive)
REMARK    1  A    between atoms: C_5  and  O_6
REMARK    2  A    between atoms: O_6  and  C_7
REMARK    3  A    between atoms: C_12  and  C_13
REMARK    4  A    between atoms: C_16  and  O_17
REMARK    5  A    between atoms: O_17  and  C_18
REMARK    6  A    between atoms: C_18  and  C_19
REMARK    7  A    between atoms: C_19  and  C_20
REMARK    8  A    between atoms: C_20  and  N_21
REMARK                            x       y       z     vdW  Elec       q    Type
REMARK                         _______ _______ _______ _____ _____    ______ ____
ROOT
ATOM      1  C   UNL     1       2.177   7.606  19.546  0.00  0.00    +0.000 A 
ATOM      2  C   UNL     1       2.006   8.325  18.351  0.00  0.00    +0.000 A 
ATOM      3  C   UNL     1       1.248   9.502  18.316  0.00  0.00    +0.000 A 
ATOM      4  C   UNL     1       0.732   9.977  19.523  0.00  0.00    +0.000 A 
ATOM      5  N   UNL     1      -0.002  11.091  19.792  0.00  0.00    +0.000 NA
ATOM      6  C   UNL     1      -0.145  11.062  21.106  0.00  0.00    +0.000 A 
ATOM      7  O   UNL     1       0.410   9.975  21.725  0.00  0.00    +0.000 OA
ATOM      8  C   UNL     1       0.976   9.278  20.694  0.00  0.00    +0.000 A 
ATOM      9  C   UNL     1       1.686   8.089  20.766  0.00  0.00    +0.000 A 
ENDROOT
BRANCH   6  10
ATOM     10  C   UNL     1      -0.776  12.074  21.939  0.00  0.00    +0.000 A 
ATOM     11  C   UNL     1      -1.920  11.700  22.651  0.00  0.00    +0.000 A 
ATOM     12  C   UNL     1      -2.617  12.625  23.422  0.00  0.00    +0.000 A 
ATOM     13  C   UNL     1      -2.182  13.946  23.493  0.00  0.00    +0.000 A 
ATOM     14  C   UNL     1      -1.031  14.329  22.799  0.00  0.00    +0.000 A 
ATOM     15  C   UNL     1      -0.326  13.398  22.029  0.00  0.00    +0.000 A 
BRANCH  13  16
ATOM     16  O   UNL     1      -2.815  14.930  24.202  0.00  0.00    +0.000 OA
BRANCH  16  17
ATOM     17  C   UNL     1      -4.245  14.885  24.160  0.00  0.00    +0.000 C 
BRANCH  17  18
ATOM     18  C   UNL     1      -4.753  15.706  22.988  0.00  0.00    +0.000 C 
BRANCH  18  19
ATOM     19  C   UNL     1      -5.083  14.822  21.783  0.00  0.00    +0.000 C 
BRANCH  19  20
ATOM     20  N   UNL     1      -5.941  13.678  22.139  0.00  0.00    +0.000 NA
ATOM     21  C   UNL     1      -5.666  12.464  21.335  0.00  0.00    +0.000 C 
ATOM     22  C   UNL     1      -6.070  12.609  19.862  0.00  0.00    +0.000 C 
ATOM     23  O   UNL     1      -7.473  12.885  19.753  0.00  0.00    +0.000 OA
ATOM     24  C   UNL     1      -7.819  14.075  20.474  0.00  0.00    +0.000 C 
ATOM     25  C   UNL     1      -7.372  14.017  21.948  0.00  0.00    +0.000 C 
ENDBRANCH  19  20
ENDBRANCH  18  19
ENDBRANCH  17  18
ENDBRANCH  16  17
ENDBRANCH  13  16
ENDBRANCH   6  10
BRANCH   1  26
ATOM     26  O   UNL     1       2.886   6.428  19.629  0.00  0.00    +0.000 OA
BRANCH  26  31
ATOM     27  F   UNL     1       0.382   1.656  18.576  0.00  0.00    +0.000 F 
ATOM     28  C   UNL     1       0.986   2.829  18.806  0.00  0.00    +0.000 A 
ATOM     29  C   UNL     1       0.971   3.366  20.088  0.00  0.00    +0.000 A 
ATOM     30  C   UNL     1       1.619   4.577  20.331  0.00  0.00    +0.000 A 
ATOM     31  C   UNL     1       2.277   5.239  19.292  0.00  0.00    +0.000 A 
ATOM     32  C   UNL     1       2.238   4.717  17.993  0.00  0.00    +0.000 A 
ATOM     33  C   UNL     1       1.614   3.491  17.757  0.00  0.00    +0.000 A 
ENDBRANCH  26  31
ENDBRANCH   1  26
TORSDOF 8
ENDMDL
MODEL 8
REMARK VINA RESULT:      -7.8      9.057     11.703
REMARK  Name = 
REMARK  8 active torsions:
REMARK  status: ('A' for Active; 'I' for Inactive)
REMARK    1  A    between atoms: C_5  and  O_6
REMARK    2  A    between atoms: O_6  and  C_7
REMARK    3  A    between atoms: C_12  and  C_13
REMARK    4  A    between atoms: C_16  and  O_17
REMARK    5  A    between atoms: O_17  and  C_18
REMARK    6  A    between atoms: C_18  and  C_19
REMARK    7  A    between atoms: C_19  and  C_20
REMARK    8  A    between atoms: C_20  and  N_21
REMARK                            x       y       z     vdW  Elec       q    Type
REMARK                         _______ _______ _______ _____ _____    ______ ____
ROOT
ATOM      1  C   UNL     1       3.001   6.807  18.940  0.00  0.00    +0.000 A 
ATOM      2  C   UNL     1       3.067   7.665  17.828  0.00  0.00    +0.000 A 
ATOM      3  C   UNL     1       2.273   8.815  17.752  0.00  0.00    +0.000 A 
ATOM      4  C   UNL     1       1.469   9.122  18.851  0.00  0.00    +0.000 A 
ATOM      5  N   UNL     1       0.631  10.172  19.067  0.00  0.00    +0.000 NA
ATOM      6  C   UNL     1       0.193   9.977  20.298  0.00  0.00    +0.000 A 
ATOM      7  O   UNL     1       0.653   8.837  20.901  0.00  0.00    +0.000 OA
ATOM      8  C   UNL     1       1.477   8.290  19.959  0.00  0.00    +0.000 A 
ATOM      9  C   UNL     1       2.217   7.121  20.058  0.00  0.00    +0.000 A 
ENDROOT
BRANCH   6  10
ATOM     10  C   UNL     1      -0.667  10.860  21.071  0.00  0.00    +0.000 A 
ATOM     11  C   UNL     1      -1.457  11.770  20.361  0.00  0.00    +0.000 A 
ATOM     12  C   UNL     1      -2.261  12.691  21.027  0.00  0.00    +0.000 A 
ATOM     13  C   UNL     1      -2.288  12.717  22.420  0.00  0.00    +0.000 A 
ATOM     14  C   UNL     1      -1.515  11.802  23.140  0.00  0.00    +0.000 A 
ATOM     15  C   UNL     1      -0.712  10.872  22.471  0.00  0.00    +0.000 A 
BRANCH  13  16
ATOM     16  O   UNL     1      -3.025  13.600  23.161  0.00  0.00    +0.000 OA
BRANCH  16  17
ATOM     17  C   UNL     1      -2.872  14.976  22.795  0.00  0.00    +0.000 C 
BRANCH  17  18
ATOM     18  C   UNL     1      -4.220  15.673  22.839  0.00  0.00    +0.000 C 
BRANCH  18  19
ATOM     19  C   UNL     1      -5.202  14.941  23.756  0.00  0.00    +0.000 C 
BRANCH  19  20
ATOM     20  N   UNL     1      -6.544  14.814  23.162  0.00  0.00    +0.000 NA
ATOM     21  C   UNL     1      -7.458  13.956  23.952  0.00  0.00    +0.000 C 
ATOM     22  C   UNL     1      -7.058  12.475  23.943  0.00  0.00    +0.000 C 
ATOM     23  O   UNL     1      -7.049  11.967  22.602  0.00  0.00    +0.000 OA
ATOM     24  C   UNL     1      -6.152  12.721  21.775  0.00  0.00    +0.000 C 
ATOM     25  C   UNL     1      -6.462  14.231  21.801  0.00  0.00    +0.000 C 
ENDBRANCH  19  20
ENDBRANCH  18  19
ENDBRANCH  17  18
ENDBRANCH  16  17
ENDBRANCH  13  16
ENDBRANCH   6  10
BRANCH   1  26
ATOM     26  O   UNL     1       3.736   5.649  19.051  0.00  0.00    +0.000 OA
BRANCH  26  31
ATOM     27  F   UNL     1       7.458   4.439  15.200  0.00  0.00    +0.000 F 
ATOM     28  C   UNL     1       6.538   4.708  16.136  0.00  0.00    +0.000 A 
ATOM     29  C   UNL     1       6.875   5.520  17.213  0.00  0.00    +0.000 A 
ATOM     30  C   UNL     1       5.910   5.816  18.175  0.00  0.00    +0.000 A 
ATOM     31  C   UNL     1       4.618   5.301  18.052  0.00  0.00    +0.000 A 
ATOM     32  C   UNL     1       4.305   4.440  16.993  0.00  0.00    +0.000 A 
ATOM     33  C   UNL     1       5.263   4.167  16.015  0.00  0.00    +0.000 A 
ENDBRANCH  26  31
ENDBRANCH   1  26
TORSDOF 8
ENDMDL
MODEL 9
REMARK VINA RESULT:      -7.8      3.777     11.956
REMARK  Name = 
REMARK  8 active torsions:
REMARK  status: ('A' for Active; 'I' for Inactive)
REMARK    1  A    between atoms: C_5  and  O_6
REMARK    2  A    between atoms: O_6  and  C_7
REMARK    3  A    between atoms: C_12  and  C_13
REMARK    4  A    between atoms: C_16  and  O_17
REMARK    5  A    between atoms: O_17  and  C_18
REMARK    6  A    between atoms: C_18  and  C_19
REMARK    7  A    between atoms: C_19  and  C_20
REMARK    8  A    between atoms: C_20  and  N_21
REMARK                            x       y       z     vdW  Elec       q    Type
REMARK                         _______ _______ _______ _____ _____    ______ ____
ROOT
ATOM      1  C   UNL     1      10.031  13.449  18.542  0.00  0.00    +0.000 A 
ATOM      2  C   UNL     1      10.792  12.904  19.591  0.00  0.00    +0.000 A 
ATOM      3  C   UNL     1      10.610  11.580  20.007  0.00  0.00    +0.000 A 
ATOM      4  C   UNL     1       9.701  10.795  19.294  0.00  0.00    +0.000 A 
ATOM      5  N   UNL     1       9.350   9.490  19.450  0.00  0.00    +0.000 NA
ATOM      6  C   UNL     1       8.505   9.273  18.456  0.00  0.00    +0.000 A 
ATOM      7  O   UNL     1       8.238  10.364  17.675  0.00  0.00    +0.000 OA
ATOM      8  C   UNL     1       9.016  11.344  18.223  0.00  0.00    +0.000 A 
ATOM      9  C   UNL     1       9.136  12.661  17.805  0.00  0.00    +0.000 A 
ENDROOT
BRANCH   6  10
ATOM     10  C   UNL     1       7.888   8.005  18.095  0.00  0.00    +0.000 A 
ATOM     11  C   UNL     1       8.209   6.889  18.875  0.00  0.00    +0.000 A 
ATOM     12  C   UNL     1       7.710   5.629  18.558  0.00  0.00    +0.000 A 
ATOM     13  C   UNL     1       6.879   5.463  17.452  0.00  0.00    +0.000 A 
ATOM     14  C   UNL     1       6.539   6.573  16.675  0.00  0.00    +0.000 A 
ATOM     15  C   UNL     1       7.036   7.841  16.996  0.00  0.00    +0.000 A 
BRANCH  13  16
ATOM     16  O   UNL     1       6.363   4.262  17.049  0.00  0.00    +0.000 OA
BRANCH  16  17
ATOM     17  C   UNL     1       5.021   4.315  16.552  0.00  0.00    +0.000 C 
BRANCH  17  18
ATOM     18  C   UNL     1       4.217   3.158  17.120  0.00  0.00    +0.000 C 
BRANCH  18  19
ATOM     19  C   UNL     1       3.553   3.532  18.447  0.00  0.00    +0.000 C 
BRANCH  19  20
ATOM     20  N   UNL     1       3.086   2.354  19.198  0.00  0.00    +0.000 NA
ATOM     21  C   UNL     1       1.634   2.099  19.047  0.00  0.00    +0.000 C 
ATOM     22  C   UNL     1       0.758   3.166  19.718  0.00  0.00    +0.000 C 
ATOM     23  O   UNL     1       1.037   3.231  21.123  0.00  0.00    +0.000 OA
ATOM     24  C   UNL     1       2.422   3.516  21.358  0.00  0.00    +0.000 C 
ATOM     25  C   UNL     1       3.355   2.516  20.647  0.00  0.00    +0.000 C 
ENDBRANCH  19  20
ENDBRANCH  18  19
ENDBRANCH  17  18
ENDBRANCH  16  17
ENDBRANCH  13  16
ENDBRANCH   6  10
BRANCH   1  26
ATOM     26  O   UNL     1      10.147  14.752  18.115  0.00  0.00    +0.000 OA
BRANCH  26  31
ATOM     27  F   UNL     1       7.033  18.627  20.448  0.00  0.00    +0.000 F 
ATOM     28  C   UNL     1       7.785  17.691  19.853  0.00  0.00    +0.000 A 
ATOM     29  C   UNL     1       8.975  17.289  20.448  0.00  0.00    +0.000 A 
ATOM     30  C   UNL     1       9.745  16.299  19.838  0.00  0.00    +0.000 A 
ATOM     31  C   UNL     1       9.319  15.720  18.641  0.00  0.00    +0.000 A 
ATOM     32  C   UNL     1       8.147  16.171  18.023  0.00  0.00    +0.000 A 
ATOM     33  C   UNL     1       7.362  17.141  18.648  0.00  0.00    +0.000 A 
ENDBRANCH  26  31
ENDBRANCH   1  26
TORSDOF 8
ENDMDL
