MODEL 1
REMARK VINA RESULT:      -8.9      0.000      0.000
REMARK  Name = 
REMARK  7 active torsions:
REMARK  status: ('A' for Active; 'I' for Inactive)
REMARK    1  A    between atoms: C_1  and  C_2
REMARK    2  A    between atoms: C_8  and  C_9
REMARK    3  A    between atoms: C_9  and  N_10
REMARK    4  A    between atoms: C_12  and  C_13
REMARK    5  A    between atoms: C_14  and  C_15
REMARK    6  A    between atoms: C_15  and  O_16
REMARK    7  A    between atoms: N_24  and  C_25
REMARK                            x       y       z     vdW  Elec       q    Type
REMARK                         _______ _______ _______ _____ _____    ______ ____
ROOT
ATOM      1  C   UNL     1       4.814   1.755  20.746  0.00  0.00    +0.000 C 
ATOM      2  C   UNL     1       3.534   2.570  20.774  0.00  0.00    +0.000 A 
ATOM      3  C   UNL     1       2.407   1.958  21.307  0.00  0.00    +0.000 A 
ATOM      4  C   UNL     1       1.190   2.622  21.316  0.00  0.00    +0.000 A 
ATOM      5  C   UNL     1       1.074   3.926  20.781  0.00  0.00    +0.000 A 
ATOM      6  C   UNL     1       2.182   4.580  20.208  0.00  0.00    +0.000 A 
ATOM      7  C   UNL     1       2.055   5.919  19.533  0.00  0.00    +0.000 A 
ATOM      8  C   UNL     1       3.037   6.401  18.727  0.00  0.00    +0.000 A 
ATOM      9  N   UNL     1       4.210   5.642  18.649  0.00  0.00    +0.000 N 
ATOM     10  C   UNL     1       4.527   4.541  19.479  0.00  0.00    +0.000 A 
ATOM     11  O   UNL     1       5.653   4.043  19.519  0.00  0.00    +0.000 OA
ATOM     12  C   UNL     1       3.413   3.892  20.213  0.00  0.00    +0.000 A 
ENDROOT
BRANCH   9  13
ATOM     13  C   UNL     1       4.837   5.555  17.395  0.00  0.00    +0.000 A 
ATOM     14  C   UNL     1       5.888   6.405  17.093  0.00  0.00    +0.000 A 
ATOM     15  C   UNL     1       6.511   6.260  15.863  0.00  0.00    +0.000 A 
ATOM     16  C   UNL     1       6.064   5.293  14.950  0.00  0.00    +0.000 A 
ATOM     17  C   UNL     1       4.989   4.459  15.255  0.00  0.00    +0.000 A 
ATOM     18  C   UNL     1       4.391   4.579  16.489  0.00  0.00    +0.000 A 
ATOM     19  F   UNL     1       3.374   3.762  16.810  0.00  0.00    +0.000 F 
ENDBRANCH   9  13
BRANCH   8  20
ATOM     20  C   UNL     1       2.969   7.706  17.757  0.00  0.00    +0.000 C 
BRANCH  20  21
ATOM     21  N   UNL     1       2.213   8.892  18.266  0.00  0.00    +0.000 N 
ATOM     22  N   UNL     1       2.418  10.025  17.552  0.00  0.00    +0.000 NA
ATOM     23  C   UNL     1       1.848  10.973  18.282  0.00  0.00    +0.000 A 
ATOM     24  C   UNL     1       1.164  10.512  19.410  0.00  0.00    +0.000 A 
ATOM     25  C   UNL     1       0.433  11.113  20.444  0.00  0.00    +0.000 A 
ATOM     26  N   UNL     1       0.009  12.439  20.416  0.00  0.00    +0.000 N 
ATOM     27  N   UNL     1       0.148  10.388  21.526  0.00  0.00    +0.000 NA
ATOM     28  C   UNL     1       0.605   9.112  21.545  0.00  0.00    +0.000 A 
ATOM     29  N   UNL     1       1.256   8.398  20.573  0.00  0.00    +0.000 NA
ATOM     30  C   UNL     1       1.519   9.164  19.479  0.00  0.00    +0.000 A 
ATOM     31  H   UNL     1      -0.085  12.848  19.494  0.00  0.00    +0.000 HD
ATOM     32  H   UNL     1      -0.741  12.644  21.065  0.00  0.00    +0.000 HD
BRANCH  23  33
ATOM     33  C   UNL     1       2.261  12.301  18.034  0.00  0.00    +0.000 C 
ATOM     34  C   UNL     1       2.638  13.436  18.081  0.00  0.00    +0.000 C 
BRANCH  34  35
ATOM     35  C   UNL     1       3.156  14.781  18.282  0.00  0.00    +0.000 C 
BRANCH  35  36
ATOM     36  O   UNL     1       3.658  15.262  17.052  0.00  0.00    +0.000 OA
ATOM     37  H   UNL     1       4.556  14.899  16.964  0.00  0.00    +0.000 HD
ENDBRANCH  35  36
ENDBRANCH  34  35
ENDBRANCH  23  33
ENDBRANCH  20  21
ENDBRANCH   8  20
TORSDOF 6
ENDMDL
MODEL 2
REMARK VINA RESULT:      -8.8      1.040      1.125
REMARK  Name = 
REMARK  7 active torsions:
REMARK  status: ('A' for Active; 'I' for Inactive)
REMARK    1  A    between atoms: C_1  and  C_2
REMARK    2  A    between atoms: C_8  and  C_9
REMARK    3  A    between atoms: C_9  and  N_10
REMARK    4  A    between atoms: C_12  and  C_13
REMARK    5  A    between atoms: C_14  and  C_15
REMARK    6  A    between atoms: C_15  and  O_16
REMARK    7  A    between atoms: N_24  and  C_25
REMARK                            x       y       z     vdW  Elec       q    Type
REMARK                         _______ _______ _______ _____ _____    ______ ____
ROOT
ATOM      1  C   UNL     1       4.472   1.369  19.706  0.00  0.00    +0.000 C 
ATOM      2  C   UNL     1       3.190   2.108  19.369  0.00  0.00    +0.000 A 
ATOM      3  C   UNL     1       2.041   1.342  19.218  0.00  0.00    +0.000 A 
ATOM      4  C   UNL     1       0.844   1.943  18.857  0.00  0.00    +0.000 A 
ATOM      5  C   UNL     1       0.775   3.338  18.631  0.00  0.00    +0.000 A 
ATOM      6  C   UNL     1       1.917   4.153  18.749  0.00  0.00    +0.000 A 
ATOM      7  C   UNL     1       1.888   5.617  18.404  0.00  0.00    +0.000 A 
ATOM      8  C   UNL     1       3.035   6.324  18.224  0.00  0.00    +0.000 A 
ATOM      9  N   UNL     1       4.232   5.649  18.485  0.00  0.00    +0.000 N 
ATOM     10  C   UNL     1       4.337   4.379  19.099  0.00  0.00    +0.000 A 
ATOM     11  O   UNL     1       5.408   3.924  19.502  0.00  0.00    +0.000 OA
ATOM     12  C   UNL     1       3.123   3.526  19.123  0.00  0.00    +0.000 A 
ENDROOT
BRANCH   9  13
ATOM     13  C   UNL     1       5.318   5.914  17.633  0.00  0.00    +0.000 A 
ATOM     14  C   UNL     1       6.310   6.792  18.038  0.00  0.00    +0.000 A 
ATOM     15  C   UNL     1       7.387   6.994  17.190  0.00  0.00    +0.000 A 
ATOM     16  C   UNL     1       7.448   6.341  15.950  0.00  0.00    +0.000 A 
ATOM     17  C   UNL     1       6.431   5.478  15.542  0.00  0.00    +0.000 A 
ATOM     18  C   UNL     1       5.377   5.251  16.396  0.00  0.00    +0.000 A 
ATOM     19  F   UNL     1       4.406   4.398  16.031  0.00  0.00    +0.000 F 
ENDBRANCH   9  13
BRANCH   8  20
ATOM     20  C   UNL     1       3.183   7.836  17.638  0.00  0.00    +0.000 C 
BRANCH  20  21
ATOM     21  N   UNL     1       2.304   8.886  18.238  0.00  0.00    +0.000 N 
ATOM     22  N   UNL     1       2.354  10.078  17.597  0.00  0.00    +0.000 NA
ATOM     23  C   UNL     1       1.693  10.903  18.398  0.00  0.00    +0.000 A 
ATOM     24  C   UNL     1       1.099  10.292  19.505  0.00  0.00    +0.000 A 
ATOM     25  C   UNL     1       0.330  10.733  20.591  0.00  0.00    +0.000 A 
ATOM     26  N   UNL     1      -0.251  11.996  20.658  0.00  0.00    +0.000 N 
ATOM     27  N   UNL     1       0.163   9.912  21.627  0.00  0.00    +0.000 NA
ATOM     28  C   UNL     1       0.769   8.702  21.553  0.00  0.00    +0.000 A 
ATOM     29  N   UNL     1       1.475   8.135  20.525  0.00  0.00    +0.000 NA
ATOM     30  C   UNL     1       1.615   8.995  19.478  0.00  0.00    +0.000 A 
ATOM     31  H   UNL     1      -0.417  12.449  19.766  0.00  0.00    +0.000 HD
ATOM     32  H   UNL     1      -1.002  12.067  21.333  0.00  0.00    +0.000 HD
BRANCH  23  33
ATOM     33  C   UNL     1       1.938  12.284  18.230  0.00  0.00    +0.000 C 
ATOM     34  C   UNL     1       2.340  13.410  18.252  0.00  0.00    +0.000 C 
BRANCH  34  35
ATOM     35  C   UNL     1       2.968  14.721  18.332  0.00  0.00    +0.000 C 
BRANCH  35  36
ATOM     36  O   UNL     1       3.609  14.992  17.103  0.00  0.00    +0.000 OA
ATOM     37  H   UNL     1       2.925  15.354  16.513  0.00  0.00    +0.000 HD
ENDBRANCH  35  36
ENDBRANCH  34  35
ENDBRANCH  23  33
ENDBRANCH  20  21
ENDBRANCH   8  20
TORSDOF 6
ENDMDL
MODEL 3
REMARK VINA RESULT:      -8.7      1.336      4.210
REMARK  Name = 
REMARK  7 active torsions:
REMARK  status: ('A' for Active; 'I' for Inactive)
REMARK    1  A    between atoms: C_1  and  C_2
REMARK    2  A    between atoms: C_8  and  C_9
REMARK    3  A    between atoms: C_9  and  N_10
REMARK    4  A    between atoms: C_12  and  C_13
REMARK    5  A    between atoms: C_14  and  C_15
REMARK    6  A    between atoms: C_15  and  O_16
REMARK    7  A    between atoms: N_24  and  C_25
REMARK                            x       y       z     vdW  Elec       q    Type
REMARK                         _______ _______ _______ _____ _____    ______ ____
ROOT
ATOM      1  C   UNL     1       5.419   3.345  15.576  0.00  0.00    +0.000 C 
ATOM      2  C   UNL     1       5.596   4.744  16.139  0.00  0.00    +0.000 A 
ATOM      3  C   UNL     1       6.793   5.390  15.859  0.00  0.00    +0.000 A 
ATOM      4  C   UNL     1       7.047   6.648  16.384  0.00  0.00    +0.000 A 
ATOM      5  C   UNL     1       6.098   7.289  17.215  0.00  0.00    +0.000 A 
ATOM      6  C   UNL     1       4.881   6.665  17.548  0.00  0.00    +0.000 A 
ATOM      7  C   UNL     1       3.910   7.280  18.519  0.00  0.00    +0.000 A 
ATOM      8  C   UNL     1       2.900   6.553  19.066  0.00  0.00    +0.000 A 
ATOM      9  N   UNL     1       2.746   5.245  18.596  0.00  0.00    +0.000 N 
ATOM     10  C   UNL     1       3.416   4.695  17.478  0.00  0.00    +0.000 A 
ATOM     11  O   UNL     1       3.091   3.618  16.974  0.00  0.00    +0.000 OA
ATOM     12  C   UNL     1       4.637   5.389  16.999  0.00  0.00    +0.000 A 
ENDROOT
BRANCH   9  13
ATOM     13  C   UNL     1       2.393   4.262  19.535  0.00  0.00    +0.000 A 
ATOM     14  C   UNL     1       1.057   3.965  19.748  0.00  0.00    +0.000 A 
ATOM     15  C   UNL     1       0.749   2.958  20.650  0.00  0.00    +0.000 A 
ATOM     16  C   UNL     1       1.769   2.284  21.338  0.00  0.00    +0.000 A 
ATOM     17  C   UNL     1       3.109   2.609  21.134  0.00  0.00    +0.000 A 
ATOM     18  C   UNL     1       3.419   3.585  20.215  0.00  0.00    +0.000 A 
ATOM     19  F   UNL     1       4.707   3.887  19.984  0.00  0.00    +0.000 F 
ENDBRANCH   9  13
BRANCH   8  20
ATOM     20  C   UNL     1       1.913   6.993  20.283  0.00  0.00    +0.000 C 
BRANCH  20  21
ATOM     21  N   UNL     1       1.260   8.334  20.178  0.00  0.00    +0.000 N 
ATOM     22  N   UNL     1       1.662   9.061  19.108  0.00  0.00    +0.000 NA
ATOM     23  C   UNL     1       1.144  10.263  19.322  0.00  0.00    +0.000 A 
ATOM     24  C   UNL     1       0.312  10.351  20.440  0.00  0.00    +0.000 A 
ATOM     25  C   UNL     1      -0.432  11.372  21.048  0.00  0.00    +0.000 A 
ATOM     26  N   UNL     1      -0.692  12.598  20.443  0.00  0.00    +0.000 N 
ATOM     27  N   UNL     1      -0.896  11.172  22.282  0.00  0.00    +0.000 NA
ATOM     28  C   UNL     1      -0.598   9.985  22.863  0.00  0.00    +0.000 A 
ATOM     29  N   UNL     1       0.049   8.892  22.347  0.00  0.00    +0.000 NA
ATOM     30  C   UNL     1       0.498   9.126  21.083  0.00  0.00    +0.000 A 
ATOM     31  H   UNL     1      -0.653  12.602  19.430  0.00  0.00    +0.000 HD
ATOM     32  H   UNL     1      -1.467  13.103  20.855  0.00  0.00    +0.000 HD
BRANCH  23  33
ATOM     33  C   UNL     1       1.733  11.341  18.624  0.00  0.00    +0.000 C 
ATOM     34  C   UNL     1       2.133  12.396  18.226  0.00  0.00    +0.000 C 
BRANCH  34  35
ATOM     35  C   UNL     1       2.601  13.733  17.891  0.00  0.00    +0.000 C 
BRANCH  35  36
ATOM     36  O   UNL     1       4.013  13.728  17.872  0.00  0.00    +0.000 OA
ATOM     37  H   UNL     1       4.286  14.646  17.698  0.00  0.00    +0.000 HD
ENDBRANCH  35  36
ENDBRANCH  34  35
ENDBRANCH  23  33
ENDBRANCH  20  21
ENDBRANCH   8  20
TORSDOF 6
ENDMDL
MODEL 4
REMARK VINA RESULT:      -8.6      3.619      5.861
REMARK  Name = 
REMARK  7 active torsions:
REMARK  status: ('A' for Active; 'I' for Inactive)
REMARK    1  A    between atoms: C_1  and  C_2
REMARK    2  A    between atoms: C_8  and  C_9
REMARK    3  A    between atoms: C_9  and  N_10
REMARK    4  A    between atoms: C_12  and  C_13
REMARK    5  A    between atoms: C_14  and  C_15
REMARK    6  A    between atoms: C_15  and  O_16
REMARK    7  A    between atoms: N_24  and  C_25
REMARK                            x       y       z     vdW  Elec       q    Type
REMARK                         _______ _______ _______ _____ _____    ______ ____
ROOT
ATOM      1  C   UNL     1       2.887   3.823  20.387  0.00  0.00    +0.000 C 
ATOM      2  C   UNL     1       3.359   4.805  19.331  0.00  0.00    +0.000 A 
ATOM      3  C   UNL     1       4.534   4.494  18.660  0.00  0.00    +0.000 A 
ATOM      4  C   UNL     1       5.055   5.370  17.719  0.00  0.00    +0.000 A 
ATOM      5  C   UNL     1       4.403   6.593  17.432  0.00  0.00    +0.000 A 
ATOM      6  C   UNL     1       3.222   6.964  18.102  0.00  0.00    +0.000 A 
ATOM      7  C   UNL     1       2.577   8.308  17.894  0.00  0.00    +0.000 A 
ATOM      8  C   UNL     1       1.631   8.779  18.749  0.00  0.00    +0.000 A 
ATOM      9  N   UNL     1       1.214   7.907  19.760  0.00  0.00    +0.000 N 
ATOM     10  C   UNL     1       1.543   6.534  19.843  0.00  0.00    +0.000 A 
ATOM     11  O   UNL     1       0.982   5.763  20.623  0.00  0.00    +0.000 OA
ATOM     12  C   UNL     1       2.704   6.058  19.050  0.00  0.00    +0.000 A 
ENDROOT
BRANCH   9  13
ATOM     13  C   UNL     1       0.958   8.465  21.024  0.00  0.00    +0.000 A 
ATOM     14  C   UNL     1       2.014   8.895  21.811  0.00  0.00    +0.000 A 
ATOM     15  C   UNL     1       1.721   9.482  23.032  0.00  0.00    +0.000 A 
ATOM     16  C   UNL     1       0.390   9.607  23.458  0.00  0.00    +0.000 A 
ATOM     17  C   UNL     1      -0.664   9.148  22.669  0.00  0.00    +0.000 A 
ATOM     18  C   UNL     1      -0.377   8.596  21.441  0.00  0.00    +0.000 A 
ATOM     19  F   UNL     1      -1.383   8.179  20.656  0.00  0.00    +0.000 F 
ENDBRANCH   9  13
BRANCH   8  20
ATOM     20  C   UNL     1       1.003  10.280  18.798  0.00  0.00    +0.000 C 
BRANCH  20  21
ATOM     21  N   UNL     1      -0.460  10.413  18.521  0.00  0.00    +0.000 N 
ATOM     22  N   UNL     1      -0.841   9.921  17.318  0.00  0.00    +0.000 NA
ATOM     23  C   UNL     1      -2.096  10.328  17.185  0.00  0.00    +0.000 A 
ATOM     24  C   UNL     1      -2.619  10.983  18.303  0.00  0.00    +0.000 A 
ATOM     25  C   UNL     1      -3.850  11.572  18.624  0.00  0.00    +0.000 A 
ATOM     26  N   UNL     1      -5.008  11.393  17.871  0.00  0.00    +0.000 N 
ATOM     27  N   UNL     1      -3.916  12.365  19.693  0.00  0.00    +0.000 NA
ATOM     28  C   UNL     1      -2.768  12.552  20.388  0.00  0.00    +0.000 A 
ATOM     29  N   UNL     1      -1.535  11.978  20.218  0.00  0.00    +0.000 NA
ATOM     30  C   UNL     1      -1.507  11.164  19.126  0.00  0.00    +0.000 A 
ATOM     31  H   UNL     1      -5.037  10.551  17.309  0.00  0.00    +0.000 HD
ATOM     32  H   UNL     1      -5.860  11.619  18.368  0.00  0.00    +0.000 HD
BRANCH  23  33
ATOM     33  C   UNL     1      -2.621  10.351  15.874  0.00  0.00    +0.000 C 
ATOM     34  C   UNL     1      -2.946  10.143  14.742  0.00  0.00    +0.000 C 
BRANCH  34  35
ATOM     35  C   UNL     1      -3.309   9.735  13.392  0.00  0.00    +0.000 C 
BRANCH  35  36
ATOM     36  O   UNL     1      -2.127   9.498  12.657  0.00  0.00    +0.000 OA
ATOM     37  H   UNL     1      -1.460  10.115  13.007  0.00  0.00    +0.000 HD
ENDBRANCH  35  36
ENDBRANCH  34  35
ENDBRANCH  23  33
ENDBRANCH  20  21
ENDBRANCH   8  20
TORSDOF 6
ENDMDL
MODEL 5
REMARK VINA RESULT:      -8.6      0.817      1.169
REMARK  Name = 
REMARK  7 active torsions:
REMARK  status: ('A' for Active; 'I' for Inactive)
REMARK    1  A    between atoms: C_1  and  C_2
REMARK    2  A    between atoms: C_8  and  C_9
REMARK    3  A    between atoms: C_9  and  N_10
REMARK    4  A    between atoms: C_12  and  C_13
REMARK    5  A    between atoms: C_14  and  C_15
REMARK    6  A    between atoms: C_15  and  O_16
REMARK    7  A    between atoms: N_24  and  C_25
REMARK                            x       y       z     vdW  Elec       q    Type
REMARK                         _______ _______ _______ _____ _____    ______ ____
ROOT
ATOM      1  C   UNL     1       4.779   1.679  20.711  0.00  0.00    +0.000 C 
ATOM      2  C   UNL     1       3.526   2.534  20.753  0.00  0.00    +0.000 A 
ATOM      3  C   UNL     1       2.390   1.962  21.311  0.00  0.00    +0.000 A 
ATOM      4  C   UNL     1       1.194   2.664  21.335  0.00  0.00    +0.000 A 
ATOM      5  C   UNL     1       1.111   3.967  20.789  0.00  0.00    +0.000 A 
ATOM      6  C   UNL     1       2.228   4.581  20.192  0.00  0.00    +0.000 A 
ATOM      7  C   UNL     1       2.131   5.917  19.507  0.00  0.00    +0.000 A 
ATOM      8  C   UNL     1       3.114   6.361  18.680  0.00  0.00    +0.000 A 
ATOM      9  N   UNL     1       4.261   5.565  18.589  0.00  0.00    +0.000 N 
ATOM     10  C   UNL     1       4.558   4.462  19.423  0.00  0.00    +0.000 A 
ATOM     11  O   UNL     1       5.669   3.929  19.449  0.00  0.00    +0.000 OA
ATOM     12  C   UNL     1       3.437   3.855  20.183  0.00  0.00    +0.000 A 
ENDROOT
BRANCH   9  13
ATOM     13  C   UNL     1       4.863   5.448  17.325  0.00  0.00    +0.000 A 
ATOM     14  C   UNL     1       4.370   4.530  16.412  0.00  0.00    +0.000 A 
ATOM     15  C   UNL     1       4.961   4.474  15.160  0.00  0.00    +0.000 A 
ATOM     16  C   UNL     1       6.043   5.311  14.847  0.00  0.00    +0.000 A 
ATOM     17  C   UNL     1       6.547   6.214  15.782  0.00  0.00    +0.000 A 
ATOM     18  C   UNL     1       5.940   6.294  17.015  0.00  0.00    +0.000 A 
ATOM     19  F   UNL     1       6.394   7.181  17.915  0.00  0.00    +0.000 F 
ENDBRANCH   9  13
BRANCH   8  20
ATOM     20  C   UNL     1       3.069   7.659  17.699  0.00  0.00    +0.000 C 
BRANCH  20  21
ATOM     21  N   UNL     1       2.314   8.854  18.187  0.00  0.00    +0.000 N 
ATOM     22  N   UNL     1       2.582   9.993  17.504  0.00  0.00    +0.000 NA
ATOM     23  C   UNL     1       1.994  10.942  18.219  0.00  0.00    +0.000 A 
ATOM     24  C   UNL     1       1.241  10.479  19.300  0.00  0.00    +0.000 A 
ATOM     25  C   UNL     1       0.469  11.080  20.304  0.00  0.00    +0.000 A 
ATOM     26  N   UNL     1       0.076  12.415  20.276  0.00  0.00    +0.000 N 
ATOM     27  N   UNL     1       0.110  10.345  21.356  0.00  0.00    +0.000 NA
ATOM     28  C   UNL     1       0.537   9.059  21.378  0.00  0.00    +0.000 A 
ATOM     29  N   UNL     1       1.223   8.345  20.431  0.00  0.00    +0.000 NA
ATOM     30  C   UNL     1       1.562   9.122  19.365  0.00  0.00    +0.000 A 
ATOM     31  H   UNL     1       0.041  12.841  19.357  0.00  0.00    +0.000 HD
ATOM     32  H   UNL     1      -0.703  12.627  20.887  0.00  0.00    +0.000 HD
BRANCH  23  33
ATOM     33  C   UNL     1       2.450  12.264  18.016  0.00  0.00    +0.000 C 
ATOM     34  C   UNL     1       2.632  13.446  17.989  0.00  0.00    +0.000 C 
BRANCH  34  35
ATOM     35  C   UNL     1       2.761  14.893  18.087  0.00  0.00    +0.000 C 
BRANCH  35  36
ATOM     36  O   UNL     1       3.603  15.344  17.047  0.00  0.00    +0.000 OA
ATOM     37  H   UNL     1       3.716  14.590  16.442  0.00  0.00    +0.000 HD
ENDBRANCH  35  36
ENDBRANCH  34  35
ENDBRANCH  23  33
ENDBRANCH  20  21
ENDBRANCH   8  20
TORSDOF 6
ENDMDL
MODEL 6
REMARK VINA RESULT:      -8.3      2.206      2.955
REMARK  Name = 
REMARK  7 active torsions:
REMARK  status: ('A' for Active; 'I' for Inactive)
REMARK    1  A    between atoms: C_1  and  C_2
REMARK    2  A    between atoms: C_8  and  C_9
REMARK    3  A    between atoms: C_9  and  N_10
REMARK    4  A    between atoms: C_12  and  C_13
REMARK    5  A    between atoms: C_14  and  C_15
REMARK    6  A    between atoms: C_15  and  O_16
REMARK    7  A    between atoms: N_24  and  C_25
REMARK                            x       y       z     vdW  Elec       q    Type
REMARK                         _______ _______ _______ _____ _____    ______ ____
ROOT
ATOM      1  C   UNL     1       4.556   2.175  20.706  0.00  0.00    +0.000 C 
ATOM      2  C   UNL     1       3.271   2.979  20.645  0.00  0.00    +0.000 A 
ATOM      3  C   UNL     1       2.110   2.347  21.071  0.00  0.00    +0.000 A 
ATOM      4  C   UNL     1       0.890   3.001  20.994  0.00  0.00    +0.000 A 
ATOM      5  C   UNL     1       0.807   4.316  20.478  0.00  0.00    +0.000 A 
ATOM      6  C   UNL     1       1.951   4.991  20.012  0.00  0.00    +0.000 A 
ATOM      7  C   UNL     1       1.867   6.343  19.357  0.00  0.00    +0.000 A 
ATOM      8  C   UNL     1       2.908   6.849  18.645  0.00  0.00    +0.000 A 
ATOM      9  N   UNL     1       4.090   6.102  18.648  0.00  0.00    +0.000 N 
ATOM     10  C   UNL     1       4.348   4.985  19.478  0.00  0.00    +0.000 A 
ATOM     11  O   UNL     1       5.472   4.495  19.600  0.00  0.00    +0.000 OA
ATOM     12  C   UNL     1       3.184   4.312  20.105  0.00  0.00    +0.000 A 
ENDROOT
BRANCH   9  13
ATOM     13  C   UNL     1       4.819   6.046  17.448  0.00  0.00    +0.000 A 
ATOM     14  C   UNL     1       5.871   6.924  17.243  0.00  0.00    +0.000 A 
ATOM     15  C   UNL     1       6.595   6.810  16.067  0.00  0.00    +0.000 A 
ATOM     16  C   UNL     1       6.247   5.846  15.109  0.00  0.00    +0.000 A 
ATOM     17  C   UNL     1       5.170   4.984  15.315  0.00  0.00    +0.000 A 
ATOM     18  C   UNL     1       4.471   5.073  16.496  0.00  0.00    +0.000 A 
ATOM     19  F   UNL     1       3.452   4.229  16.724  0.00  0.00    +0.000 F 
ENDBRANCH   9  13
BRANCH   8  20
ATOM     20  C   UNL     1       2.907   8.175  17.700  0.00  0.00    +0.000 C 
BRANCH  20  21
ATOM     21  N   UNL     1       1.895   9.231  18.012  0.00  0.00    +0.000 N 
ATOM     22  N   UNL     1       0.611   8.813  17.907  0.00  0.00    +0.000 NA
ATOM     23  C   UNL     1      -0.100   9.928  18.005  0.00  0.00    +0.000 A 
ATOM     24  C   UNL     1       0.647  11.074  18.286  0.00  0.00    +0.000 A 
ATOM     25  C   UNL     1       0.351  12.432  18.473  0.00  0.00    +0.000 A 
ATOM     26  N   UNL     1      -0.940  12.919  18.658  0.00  0.00    +0.000 N 
ATOM     27  N   UNL     1       1.354  13.310  18.448  0.00  0.00    +0.000 NA
ATOM     28  C   UNL     1       2.595  12.815  18.229  0.00  0.00    +0.000 A 
ATOM     29  N   UNL     1       3.015  11.516  18.109  0.00  0.00    +0.000 NA
ATOM     30  C   UNL     1       1.968  10.645  18.152  0.00  0.00    +0.000 A 
ATOM     31  H   UNL     1      -1.611  12.252  19.020  0.00  0.00    +0.000 HD
ATOM     32  H   UNL     1      -0.974  13.844  19.069  0.00  0.00    +0.000 HD
BRANCH  23  33
ATOM     33  C   UNL     1      -1.420   9.885  17.505  0.00  0.00    +0.000 C 
ATOM     34  C   UNL     1      -2.498  10.099  17.033  0.00  0.00    +0.000 C 
BRANCH  34  35
ATOM     35  C   UNL     1      -3.745  10.489  16.389  0.00  0.00    +0.000 C 
BRANCH  35  36
ATOM     36  O   UNL     1      -4.013  11.840  16.702  0.00  0.00    +0.000 OA
ATOM     37  H   UNL     1      -4.968  11.892  16.886  0.00  0.00    +0.000 HD
ENDBRANCH  35  36
ENDBRANCH  34  35
ENDBRANCH  23  33
ENDBRANCH  20  21
ENDBRANCH   8  20
TORSDOF 6
ENDMDL
MODEL 7
REMARK VINA RESULT:      -8.3      1.392      4.131
REMARK  Name = 
REMARK  7 active torsions:
REMARK  status: ('A' for Active; 'I' for Inactive)
REMARK    1  A    between atoms: C_1  and  C_2
REMARK    2  A    between atoms: C_8  and  C_9
REMARK    3  A    between atoms: C_9  and  N_10
REMARK    4  A    between atoms: C_12  and  C_13
REMARK    5  A    between atoms: C_14  and  C_15
REMARK    6  A    between atoms: C_15  and  O_16
REMARK    7  A    between atoms: N_24  and  C_25
REMARK                            x       y       z     vdW  Elec       q    Type
REMARK                         _______ _______ _______ _____ _____    ______ ____
ROOT
ATOM      1  C   UNL     1       5.775   3.493  15.578  0.00  0.00    +0.000 C 
ATOM      2  C   UNL     1       5.875   4.874  16.198  0.00  0.00    +0.000 A 
ATOM      3  C   UNL     1       7.079   5.549  16.046  0.00  0.00    +0.000 A 
ATOM      4  C   UNL     1       7.262   6.792  16.632  0.00  0.00    +0.000 A 
ATOM      5  C   UNL     1       6.231   7.390  17.395  0.00  0.00    +0.000 A 
ATOM      6  C   UNL     1       5.001   6.736  17.598  0.00  0.00    +0.000 A 
ATOM      7  C   UNL     1       3.937   7.303  18.498  0.00  0.00    +0.000 A 
ATOM      8  C   UNL     1       2.897   6.543  18.930  0.00  0.00    +0.000 A 
ATOM      9  N   UNL     1       2.810   5.249  18.406  0.00  0.00    +0.000 N 
ATOM     10  C   UNL     1       3.586   4.746  17.336  0.00  0.00    +0.000 A 
ATOM     11  O   UNL     1       3.327   3.682  16.771  0.00  0.00    +0.000 OA
ATOM     12  C   UNL     1       4.831   5.476  16.990  0.00  0.00    +0.000 A 
ENDROOT
BRANCH   9  13
ATOM     13  C   UNL     1       2.393   4.229  19.279  0.00  0.00    +0.000 A 
ATOM     14  C   UNL     1       3.147   3.939  20.405  0.00  0.00    +0.000 A 
ATOM     15  C   UNL     1       2.681   2.959  21.266  0.00  0.00    +0.000 A 
ATOM     16  C   UNL     1       1.492   2.269  20.982  0.00  0.00    +0.000 A 
ATOM     17  C   UNL     1       0.755   2.552  19.833  0.00  0.00    +0.000 A 
ATOM     18  C   UNL     1       1.198   3.549  18.994  0.00  0.00    +0.000 A 
ATOM     19  F   UNL     1       0.482   3.855  17.900  0.00  0.00    +0.000 F 
ENDBRANCH   9  13
BRANCH   8  20
ATOM     20  C   UNL     1       1.797   6.926  20.067  0.00  0.00    +0.000 C 
BRANCH  20  21
ATOM     21  N   UNL     1       1.275   8.327  20.063  0.00  0.00    +0.000 N 
ATOM     22  N   UNL     1       1.669   9.059  18.993  0.00  0.00    +0.000 NA
ATOM     23  C   UNL     1       1.290  10.294  19.292  0.00  0.00    +0.000 A 
ATOM     24  C   UNL     1       0.553  10.411  20.473  0.00  0.00    +0.000 A 
ATOM     25  C   UNL     1      -0.041  11.471  21.173  0.00  0.00    +0.000 A 
ATOM     26  N   UNL     1      -0.221  12.742  20.636  0.00  0.00    +0.000 N 
ATOM     27  N   UNL     1      -0.433  11.261  22.430  0.00  0.00    +0.000 NA
ATOM     28  C   UNL     1      -0.212  10.026  22.941  0.00  0.00    +0.000 A 
ATOM     29  N   UNL     1       0.284   8.900  22.337  0.00  0.00    +0.000 NA
ATOM     30  C   UNL     1       0.662   9.146  21.052  0.00  0.00    +0.000 A 
ATOM     31  H   UNL     1      -0.255  12.789  19.625  0.00  0.00    +0.000 HD
ATOM     32  H   UNL     1      -0.910  13.300  21.125  0.00  0.00    +0.000 HD
BRANCH  23  33
ATOM     33  C   UNL     1       1.931  11.342  18.593  0.00  0.00    +0.000 C 
ATOM     34  C   UNL     1       2.355  12.379  18.175  0.00  0.00    +0.000 C 
BRANCH  34  35
ATOM     35  C   UNL     1       2.837  13.703  17.809  0.00  0.00    +0.000 C 
BRANCH  35  36
ATOM     36  O   UNL     1       3.754  14.138  18.791  0.00  0.00    +0.000 OA
ATOM     37  H   UNL     1       3.875  13.390  19.402  0.00  0.00    +0.000 HD
ENDBRANCH  35  36
ENDBRANCH  34  35
ENDBRANCH  23  33
ENDBRANCH  20  21
ENDBRANCH   8  20
TORSDOF 6
ENDMDL
MODEL 8
REMARK VINA RESULT:      -8.3      3.089      7.094
REMARK  Name = 
REMARK  7 active torsions:
REMARK  status: ('A' for Active; 'I' for Inactive)
REMARK    1  A    between atoms: C_1  and  C_2
REMARK    2  A    between atoms: C_8  and  C_9
REMARK    3  A    between atoms: C_9  and  N_10
REMARK    4  A    between atoms: C_12  and  C_13
REMARK    5  A    between atoms: C_14  and  C_15
REMARK    6  A    between atoms: C_15  and  O_16
REMARK    7  A    between atoms: N_24  and  C_25
REMARK                            x       y       z     vdW  Elec       q    Type
REMARK                         _______ _______ _______ _____ _____    ______ ____
ROOT
ATOM      1  C   UNL     1      -0.441   8.879  21.557  0.00  0.00    +0.000 C 
ATOM      2  C   UNL     1       0.326   9.016  20.255  0.00  0.00    +0.000 A 
ATOM      3  C   UNL     1      -0.075  10.025  19.390  0.00  0.00    +0.000 A 
ATOM      4  C   UNL     1       0.545  10.176  18.158  0.00  0.00    +0.000 A 
ATOM      5  C   UNL     1       1.587   9.306  17.762  0.00  0.00    +0.000 A 
ATOM      6  C   UNL     1       2.014   8.254  18.594  0.00  0.00    +0.000 A 
ATOM      7  C   UNL     1       3.042   7.250  18.145  0.00  0.00    +0.000 A 
ATOM      8  C   UNL     1       3.226   6.080  18.811  0.00  0.00    +0.000 A 
ATOM      9  N   UNL     1       2.494   5.911  19.991  0.00  0.00    +0.000 N 
ATOM     10  C   UNL     1       1.744   6.921  20.639  0.00  0.00    +0.000 A 
ATOM     11  O   UNL     1       1.297   6.787  21.780  0.00  0.00    +0.000 OA
ATOM     12  C   UNL     1       1.378   8.119  19.845  0.00  0.00    +0.000 A 
ENDROOT
BRANCH   9  13
ATOM     13  C   UNL     1       1.989   4.627  20.256  0.00  0.00    +0.000 A 
ATOM     14  C   UNL     1       2.263   4.018  21.469  0.00  0.00    +0.000 A 
ATOM     15  C   UNL     1       1.711   2.770  21.712  0.00  0.00    +0.000 A 
ATOM     16  C   UNL     1       0.918   2.143  20.739  0.00  0.00    +0.000 A 
ATOM     17  C   UNL     1       0.669   2.755  19.511  0.00  0.00    +0.000 A 
ATOM     18  C   UNL     1       1.189   4.008  19.281  0.00  0.00    +0.000 A 
ATOM     19  F   UNL     1       0.932   4.624  18.116  0.00  0.00    +0.000 F 
ENDBRANCH   9  13
BRANCH   8  20
ATOM     20  C   UNL     1       4.122   4.805  18.341  0.00  0.00    +0.000 C 
BRANCH  20  21
ATOM     21  N   UNL     1       5.329   5.093  17.507  0.00  0.00    +0.000 N 
ATOM     22  N   UNL     1       6.173   6.001  18.053  0.00  0.00    +0.000 NA
ATOM     23  C   UNL     1       7.034   6.267  17.080  0.00  0.00    +0.000 A 
ATOM     24  C   UNL     1       6.875   5.490  15.930  0.00  0.00    +0.000 A 
ATOM     25  C   UNL     1       7.519   5.410  14.687  0.00  0.00    +0.000 A 
ATOM     26  N   UNL     1       8.742   6.017  14.415  0.00  0.00    +0.000 N 
ATOM     27  N   UNL     1       6.921   4.738  13.703  0.00  0.00    +0.000 NA
ATOM     28  C   UNL     1       5.715   4.188  13.983  0.00  0.00    +0.000 A 
ATOM     29  N   UNL     1       5.027   4.135  15.167  0.00  0.00    +0.000 NA
ATOM     30  C   UNL     1       5.672   4.819  16.153  0.00  0.00    +0.000 A 
ATOM     31  H   UNL     1       9.327   6.203  15.221  0.00  0.00    +0.000 HD
ATOM     32  H   UNL     1       9.217   5.638  13.606  0.00  0.00    +0.000 HD
BRANCH  23  33
ATOM     33  C   UNL     1       7.759   7.474  17.186  0.00  0.00    +0.000 C 
ATOM     34  C   UNL     1       8.226   8.535  17.484  0.00  0.00    +0.000 C 
BRANCH  34  35
ATOM     35  C   UNL     1       8.736   9.799  17.994  0.00  0.00    +0.000 C 
BRANCH  35  36
ATOM     36  O   UNL     1       9.176   9.608  19.323  0.00  0.00    +0.000 OA
ATOM     37  H   UNL     1       8.555  10.100  19.889  0.00  0.00    +0.000 HD
ENDBRANCH  35  36
ENDBRANCH  34  35
ENDBRANCH  23  33
ENDBRANCH  20  21
ENDBRANCH   8  20
TORSDOF 6
ENDMDL
MODEL 9
REMARK VINA RESULT:      -8.2      1.550      4.001
REMARK  Name = 
REMARK  7 active torsions:
REMARK  status: ('A' for Active; 'I' for Inactive)
REMARK    1  A    between atoms: C_1  and  C_2
REMARK    2  A    between atoms: C_8  and  C_9
REMARK    3  A    between atoms: C_9  and  N_10
REMARK    4  A    between atoms: C_12  and  C_13
REMARK    5  A    between atoms: C_14  and  C_15
REMARK    6  A    between atoms: C_15  and  O_16
REMARK    7  A    between atoms: N_24  and  C_25
REMARK                            x       y       z     vdW  Elec       q    Type
REMARK                         _______ _______ _______ _____ _____    ______ ____
ROOT
ATOM      1  C   UNL     1       7.601   4.399  17.872  0.00  0.00    +0.000 C 
ATOM      2  C   UNL     1       7.188   5.852  17.720  0.00  0.00    +0.000 A 
ATOM      3  C   UNL     1       8.193   6.806  17.812  0.00  0.00    +0.000 A 
ATOM      4  C   UNL     1       7.883   8.156  17.737  0.00  0.00    +0.000 A 
ATOM      5  C   UNL     1       6.544   8.582  17.572  0.00  0.00    +0.000 A 
ATOM      6  C   UNL     1       5.488   7.654  17.497  0.00  0.00    +0.000 A 
ATOM      7  C   UNL     1       4.049   8.089  17.435  0.00  0.00    +0.000 A 
ATOM      8  C   UNL     1       3.035   7.215  17.669  0.00  0.00    +0.000 A 
ATOM      9  N   UNL     1       3.395   5.876  17.857  0.00  0.00    +0.000 N 
ATOM     10  C   UNL     1       4.683   5.337  17.631  0.00  0.00    +0.000 A 
ATOM     11  O   UNL     1       4.899   4.125  17.602  0.00  0.00    +0.000 OA
ATOM     12  C   UNL     1       5.822   6.286  17.568  0.00  0.00    +0.000 A 
ENDROOT
BRANCH   9  13
ATOM     13  C   UNL     1       2.681   5.149  18.825  0.00  0.00    +0.000 A 
ATOM     14  C   UNL     1       2.940   5.358  20.169  0.00  0.00    +0.000 A 
ATOM     15  C   UNL     1       2.185   4.656  21.095  0.00  0.00    +0.000 A 
ATOM     16  C   UNL     1       1.207   3.744  20.670  0.00  0.00    +0.000 A 
ATOM     17  C   UNL     1       0.972   3.523  19.313  0.00  0.00    +0.000 A 
ATOM     18  C   UNL     1       1.698   4.244  18.393  0.00  0.00    +0.000 A 
ATOM     19  F   UNL     1       1.461   4.066  17.083  0.00  0.00    +0.000 F 
ENDBRANCH   9  13
BRANCH   8  20
ATOM     20  C   UNL     1       1.456   7.561  17.859  0.00  0.00    +0.000 C 
BRANCH  20  21
ATOM     21  N   UNL     1       1.119   8.797  18.630  0.00  0.00    +0.000 N 
ATOM     22  N   UNL     1       1.203   9.938  17.905  0.00  0.00    +0.000 NA
ATOM     23  C   UNL     1       1.085  10.902  18.808  0.00  0.00    +0.000 A 
ATOM     24  C   UNL     1       0.810  10.460  20.104  0.00  0.00    +0.000 A 
ATOM     25  C   UNL     1       0.609  11.080  21.345  0.00  0.00    +0.000 A 
ATOM     26  N   UNL     1       0.397  12.448  21.495  0.00  0.00    +0.000 N 
ATOM     27  N   UNL     1       0.646  10.328  22.445  0.00  0.00    +0.000 NA
ATOM     28  C   UNL     1       0.891   9.006  22.275  0.00  0.00    +0.000 A 
ATOM     29  N   UNL     1       1.027   8.280  21.121  0.00  0.00    +0.000 NA
ATOM     30  C   UNL     1       0.971   9.076  20.017  0.00  0.00    +0.000 A 
ATOM     31  H   UNL     1       0.027  12.924  20.681  0.00  0.00    +0.000 HD
ATOM     32  H   UNL     1      -0.021  12.703  22.381  0.00  0.00    +0.000 HD
BRANCH  23  33
ATOM     33  C   UNL     1       1.561  12.180  18.439  0.00  0.00    +0.000 C 
ATOM     34  C   UNL     1       2.181  13.185  18.244  0.00  0.00    +0.000 C 
BRANCH  34  35
ATOM     35  C   UNL     1       3.066  14.320  18.032  0.00  0.00    +0.000 C 
BRANCH  35  36
ATOM     36  O   UNL     1       4.368  13.837  17.772  0.00  0.00    +0.000 OA
ATOM     37  H   UNL     1       4.271  13.148  17.091  0.00  0.00    +0.000 HD
ENDBRANCH  35  36
ENDBRANCH  34  35
ENDBRANCH  23  33
ENDBRANCH  20  21
ENDBRANCH   8  20
TORSDOF 6
ENDMDL
