MODEL 1
REMARK VINA RESULT:      -7.3      0.000      0.000
REMARK  Name = 
REMARK  10 active torsions:
REMARK  status: ('A' for Active; 'I' for Inactive)
REMARK    1  A    between atoms: C_1  and  C_2
REMARK    2  A    between atoms: C_2  and  O_3
REMARK    3  A    between atoms: O_3  and  C_4
REMARK    4  A    between atoms: C_4  and  C_6
REMARK    5  A    between atoms: C_7  and  N_8
REMARK    6  A    between atoms: C_9  and  C_11
REMARK    7  A    between atoms: C_11  and  S_12
REMARK    8  A    between atoms: S_12  and  C_15
REMARK    9  A    between atoms: N_17  and  C_18
REMARK   10  A    between atoms: C_18  and  C_19
REMARK                            x       y       z     vdW  Elec       q    Type
REMARK                         _______ _______ _______ _____ _____    ______ ____
ROOT
ATOM      1  N   UNL     1       1.144   8.001  19.602  0.00  0.00    +0.000 N 
ATOM      2  C   UNL     1       1.202   8.515  20.895  0.00  0.00    +0.000 C 
ATOM      3  O   UNL     1       2.121   8.369  21.698  0.00  0.00    +0.000 OA
ATOM      4  H   UNL     1       0.298   8.139  19.049  0.00  0.00    +0.000 HD
ENDROOT
BRANCH   1   6
ATOM      5  C   UNL     1       2.545   5.967  19.161  0.00  0.00    +0.000 A 
ATOM      6  C   UNL     1       2.155   7.291  18.942  0.00  0.00    +0.000 A 
ATOM      7  S   UNL     1       3.078   8.031  17.722  0.00  0.00    +0.000 S 
ATOM      8  C   UNL     1       4.003   6.643  17.454  0.00  0.00    +0.000 A 
ATOM      9  C   UNL     1       3.634   5.589  18.264  0.00  0.00    +0.000 A 
ATOM     10  C   UNL     1       4.337   4.257  18.146  0.00  0.00    +0.000 C 
ATOM     11  C   UNL     1       5.702   4.381  17.450  0.00  0.00    +0.000 C 
ATOM     12  C   UNL     1       5.612   5.220  16.172  0.00  0.00    +0.000 C 
ATOM     13  C   UNL     1       5.127   6.645  16.463  0.00  0.00    +0.000 C 
BRANCH   5  14
ATOM     14  C   UNL     1       1.944   5.151  20.221  0.00  0.00    +0.000 C 
ATOM     15  O   UNL     1       2.436   5.045  21.340  0.00  0.00    +0.000 OA
BRANCH  14  16
ATOM     16  O   UNL     1       0.865   4.437  19.790  0.00  0.00    +0.000 OA
BRANCH  16  18
ATOM     17  C   UNL     1       1.208   2.297  18.775  0.00  0.00    +0.000 C 
ATOM     18  C   UNL     1       0.883   3.031  20.066  0.00  0.00    +0.000 C 
ENDBRANCH  16  18
ENDBRANCH  14  16
ENDBRANCH   5  14
ENDBRANCH   1   6
BRANCH   2  19
ATOM     19  C   UNL     1      -0.029   9.257  21.343  0.00  0.00    +0.000 C 
BRANCH  19  20
ATOM     20  S   UNL     1       0.144  10.953  20.889  0.00  0.00    +0.000 S 
ATOM     21  O   UNL     1       0.257  11.794  22.064  0.00  0.00    +0.000 OA
ATOM     22  O   UNL     1       1.090  11.038  19.792  0.00  0.00    +0.000 OA
BRANCH  20  23
ATOM     23  C   UNL     1      -1.367  11.422  20.183  0.00  0.00    +0.000 A 
ATOM     24  C   UNL     1      -2.270  12.304  20.747  0.00  0.00    +0.000 A 
ATOM     25  N   UNL     1      -3.315  12.467  19.875  0.00  0.00    +0.000 N 
ATOM     26  C   UNL     1      -3.119  11.681  18.756  0.00  0.00    +0.000 A 
ATOM     27  C   UNL     1      -3.910  11.514  17.606  0.00  0.00    +0.000 A 
ATOM     28  C   UNL     1      -3.445  10.667  16.599  0.00  0.00    +0.000 A 
ATOM     29  C   UNL     1      -2.228  10.011  16.726  0.00  0.00    +0.000 A 
ATOM     30  C   UNL     1      -1.442  10.181  17.873  0.00  0.00    +0.000 A 
ATOM     31  C   UNL     1      -1.889  11.022  18.917  0.00  0.00    +0.000 A 
BRANCH  25  32
ATOM     32  C   UNL     1      -4.461  13.328  20.123  0.00  0.00    +0.000 C 
ATOM     33  C   UNL     1      -5.577  12.628  20.885  0.00  0.00    +0.000 C 
ENDBRANCH  25  32
ENDBRANCH  20  23
ENDBRANCH  19  20
ENDBRANCH   2  19
TORSDOF 8
ENDMDL
MODEL 2
REMARK VINA RESULT:      -7.1      3.080      8.772
REMARK  Name = 
REMARK  10 active torsions:
REMARK  status: ('A' for Active; 'I' for Inactive)
REMARK    1  A    between atoms: C_1  and  C_2
REMARK    2  A    between atoms: C_2  and  O_3
REMARK    3  A    between atoms: O_3  and  C_4
REMARK    4  A    between atoms: C_4  and  C_6
REMARK    5  A    between atoms: C_7  and  N_8
REMARK    6  A    between atoms: C_9  and  C_11
REMARK    7  A    between atoms: C_11  and  S_12
REMARK    8  A    between atoms: S_12  and  C_15
REMARK    9  A    between atoms: N_17  and  C_18
REMARK   10  A    between atoms: C_18  and  C_19
REMARK                            x       y       z     vdW  Elec       q    Type
REMARK                         _______ _______ _______ _____ _____    ______ ____
ROOT
ATOM      1  N   UNL     1       2.398   6.511  20.413  0.00  0.00    +0.000 N 
ATOM      2  C   UNL     1       1.854   5.230  20.446  0.00  0.00    +0.000 C 
ATOM      3  O   UNL     1       0.664   4.945  20.568  0.00  0.00    +0.000 OA
ATOM      4  H   UNL     1       3.412   6.621  20.369  0.00  0.00    +0.000 HD
ENDROOT
BRANCH   1   6
ATOM      5  C   UNL     1       1.544   8.634  19.384  0.00  0.00    +0.000 A 
ATOM      6  C   UNL     1       1.688   7.719  20.431  0.00  0.00    +0.000 A 
ATOM      7  S   UNL     1       0.877   8.227  21.835  0.00  0.00    +0.000 S 
ATOM      8  C   UNL     1       0.322   9.648  21.109  0.00  0.00    +0.000 A 
ATOM      9  C   UNL     1       0.721   9.769  19.794  0.00  0.00    +0.000 A 
ATOM     10  C   UNL     1       0.297  10.967  18.978  0.00  0.00    +0.000 C 
ATOM     11  C   UNL     1      -0.150  12.143  19.862  0.00  0.00    +0.000 C 
ATOM     12  C   UNL     1      -1.114  11.691  20.963  0.00  0.00    +0.000 C 
ATOM     13  C   UNL     1      -0.470  10.653  21.889  0.00  0.00    +0.000 C 
BRANCH   5  14
ATOM     14  C   UNL     1       2.222   8.448  18.097  0.00  0.00    +0.000 C 
ATOM     15  O   UNL     1       1.899   9.056  17.081  0.00  0.00    +0.000 OA
BRANCH  14  16
ATOM     16  O   UNL     1       3.149   7.449  18.128  0.00  0.00    +0.000 OA
BRANCH  16  18
ATOM     17  C   UNL     1       4.489   7.310  16.150  0.00  0.00    +0.000 C 
ATOM     18  C   UNL     1       4.442   7.767  17.599  0.00  0.00    +0.000 C 
ENDBRANCH  16  18
ENDBRANCH  14  16
ENDBRANCH   5  14
ENDBRANCH   1   6
BRANCH   2  19
ATOM     19  C   UNL     1       2.857   4.108  20.393  0.00  0.00    +0.000 C 
BRANCH  19  20
ATOM     20  S   UNL     1       3.092   3.646  18.708  0.00  0.00    +0.000 S 
ATOM     21  O   UNL     1       3.202   2.206  18.576  0.00  0.00    +0.000 OA
ATOM     22  O   UNL     1       2.179   4.423  17.889  0.00  0.00    +0.000 OA
BRANCH  20  23
ATOM     23  C   UNL     1       4.662   4.227  18.260  0.00  0.00    +0.000 A 
ATOM     24  C   UNL     1       5.591   4.763  19.132  0.00  0.00    +0.000 A 
ATOM     25  N   UNL     1       6.727   5.058  18.423  0.00  0.00    +0.000 N 
ATOM     26  C   UNL     1       6.542   4.744  17.090  0.00  0.00    +0.000 A 
ATOM     27  C   UNL     1       7.412   4.870  15.993  0.00  0.00    +0.000 A 
ATOM     28  C   UNL     1       6.967   4.437  14.742  0.00  0.00    +0.000 A 
ATOM     29  C   UNL     1       5.701   3.888  14.587  0.00  0.00    +0.000 A 
ATOM     30  C   UNL     1       4.838   3.763  15.684  0.00  0.00    +0.000 A 
ATOM     31  C   UNL     1       5.252   4.203  16.962  0.00  0.00    +0.000 A 
BRANCH  25  32
ATOM     32  C   UNL     1       7.928   5.636  19.005  0.00  0.00    +0.000 C 
ATOM     33  C   UNL     1       8.136   7.092  18.617  0.00  0.00    +0.000 C 
ENDBRANCH  25  32
ENDBRANCH  20  23
ENDBRANCH  19  20
ENDBRANCH   2  19
TORSDOF 8
ENDMDL
MODEL 3
REMARK VINA RESULT:      -7.1      1.081      1.404
REMARK  Name = 
REMARK  10 active torsions:
REMARK  status: ('A' for Active; 'I' for Inactive)
REMARK    1  A    between atoms: C_1  and  C_2
REMARK    2  A    between atoms: C_2  and  O_3
REMARK    3  A    between atoms: O_3  and  C_4
REMARK    4  A    between atoms: C_4  and  C_6
REMARK    5  A    between atoms: C_7  and  N_8
REMARK    6  A    between atoms: C_9  and  C_11
REMARK    7  A    between atoms: C_11  and  S_12
REMARK    8  A    between atoms: S_12  and  C_15
REMARK    9  A    between atoms: N_17  and  C_18
REMARK   10  A    between atoms: C_18  and  C_19
REMARK                            x       y       z     vdW  Elec       q    Type
REMARK                         _______ _______ _______ _____ _____    ______ ____
ROOT
ATOM      1  N   UNL     1       1.683   7.614  18.806  0.00  0.00    +0.000 N 
ATOM      2  C   UNL     1       1.606   7.905  20.165  0.00  0.00    +0.000 C 
ATOM      3  O   UNL     1       2.392   7.537  21.035  0.00  0.00    +0.000 OA
ATOM      4  H   UNL     1       0.934   7.927  18.186  0.00  0.00    +0.000 HD
ENDROOT
BRANCH   1   6
ATOM      5  C   UNL     1       2.775   5.546  17.897  0.00  0.00    +0.000 A 
ATOM      6  C   UNL     1       2.712   6.918  18.159  0.00  0.00    +0.000 A 
ATOM      7  S   UNL     1       4.090   7.736  17.594  0.00  0.00    +0.000 S 
ATOM      8  C   UNL     1       4.796   6.322  16.996  0.00  0.00    +0.000 A 
ATOM      9  C   UNL     1       4.009   5.205  17.196  0.00  0.00    +0.000 A 
ATOM     10  C   UNL     1       4.471   3.854  16.704  0.00  0.00    +0.000 C 
ATOM     11  C   UNL     1       5.986   3.815  16.448  0.00  0.00    +0.000 C 
ATOM     12  C   UNL     1       6.457   5.030  15.644  0.00  0.00    +0.000 C 
ATOM     13  C   UNL     1       6.160   6.344  16.377  0.00  0.00    +0.000 C 
BRANCH   5  14
ATOM     14  C   UNL     1       1.734   4.623  18.363  0.00  0.00    +0.000 C 
ATOM     15  O   UNL     1       1.008   3.998  17.596  0.00  0.00    +0.000 OA
BRANCH  14  16
ATOM     16  O   UNL     1       1.586   4.635  19.717  0.00  0.00    +0.000 OA
BRANCH  16  18
ATOM     17  C   UNL     1       1.847   3.085  21.523  0.00  0.00    +0.000 C 
ATOM     18  C   UNL     1       1.018   3.457  20.304  0.00  0.00    +0.000 C 
ENDBRANCH  16  18
ENDBRANCH  14  16
ENDBRANCH   5  14
ENDBRANCH   1   6
BRANCH   2  19
ATOM     19  C   UNL     1       0.391   8.691  20.582  0.00  0.00    +0.000 C 
BRANCH  19  20
ATOM     20  S   UNL     1       0.660  10.388  20.186  0.00  0.00    +0.000 S 
ATOM     21  O   UNL     1       1.063  11.137  21.361  0.00  0.00    +0.000 OA
ATOM     22  O   UNL     1       1.404  10.455  18.941  0.00  0.00    +0.000 OA
BRANCH  20  23
ATOM     23  C   UNL     1      -0.894  11.045  19.787  0.00  0.00    +0.000 A 
ATOM     24  C   UNL     1      -1.586  11.969  20.546  0.00  0.00    +0.000 A 
ATOM     25  N   UNL     1      -2.745  12.287  19.885  0.00  0.00    +0.000 N 
ATOM     26  C   UNL     1      -2.831  11.561  18.712  0.00  0.00    +0.000 A 
ATOM     27  C   UNL     1      -3.824  11.545  17.718  0.00  0.00    +0.000 A 
ATOM     28  C   UNL     1      -3.634  10.724  16.605  0.00  0.00    +0.000 A 
ATOM     29  C   UNL     1      -2.489   9.949  16.479  0.00  0.00    +0.000 A 
ATOM     30  C   UNL     1      -1.501   9.969  17.473  0.00  0.00    +0.000 A 
ATOM     31  C   UNL     1      -1.667  10.779  18.618  0.00  0.00    +0.000 A 
BRANCH  25  32
ATOM     32  C   UNL     1      -3.733  13.235  20.376  0.00  0.00    +0.000 C 
ATOM     33  C   UNL     1      -3.111  14.447  21.052  0.00  0.00    +0.000 C 
ENDBRANCH  25  32
ENDBRANCH  20  23
ENDBRANCH  19  20
ENDBRANCH   2  19
TORSDOF 8
ENDMDL
MODEL 4
REMARK VINA RESULT:      -7.0      1.845      3.254
REMARK  Name = 
REMARK  10 active torsions:
REMARK  status: ('A' for Active; 'I' for Inactive)
REMARK    1  A    between atoms: C_1  and  C_2
REMARK    2  A    between atoms: C_2  and  O_3
REMARK    3  A    between atoms: O_3  and  C_4
REMARK    4  A    between atoms: C_4  and  C_6
REMARK    5  A    between atoms: C_7  and  N_8
REMARK    6  A    between atoms: C_9  and  C_11
REMARK    7  A    between atoms: C_11  and  S_12
REMARK    8  A    between atoms: S_12  and  C_15
REMARK    9  A    between atoms: N_17  and  C_18
REMARK   10  A    between atoms: C_18  and  C_19
REMARK                            x       y       z     vdW  Elec       q    Type
REMARK                         _______ _______ _______ _____ _____    ______ ____
ROOT
ATOM      1  N   UNL     1       2.135   7.749  20.158  0.00  0.00    +0.000 N 
ATOM      2  C   UNL     1       1.039   8.324  20.795  0.00  0.00    +0.000 C 
ATOM      3  O   UNL     1      -0.004   7.755  21.108  0.00  0.00    +0.000 OA
ATOM      4  H   UNL     1       2.924   8.340  19.894  0.00  0.00    +0.000 HD
ENDROOT
BRANCH   1   6
ATOM      5  C   UNL     1       3.143   5.853  18.860  0.00  0.00    +0.000 A 
ATOM      6  C   UNL     1       2.291   6.397  19.824  0.00  0.00    +0.000 A 
ATOM      7  S   UNL     1       1.385   5.199  20.619  0.00  0.00    +0.000 S 
ATOM      8  C   UNL     1       2.083   3.949  19.723  0.00  0.00    +0.000 A 
ATOM      9  C   UNL     1       3.022   4.398  18.817  0.00  0.00    +0.000 A 
ATOM     10  C   UNL     1       3.768   3.416  17.945  0.00  0.00    +0.000 C 
ATOM     11  C   UNL     1       3.049   2.060  17.851  0.00  0.00    +0.000 C 
ATOM     12  C   UNL     1       2.611   1.554  19.228  0.00  0.00    +0.000 C 
ATOM     13  C   UNL     1       1.642   2.528  19.908  0.00  0.00    +0.000 C 
BRANCH   5  14
ATOM     14  C   UNL     1       3.968   6.701  17.992  0.00  0.00    +0.000 C 
ATOM     15  O   UNL     1       3.506   7.628  17.333  0.00  0.00    +0.000 OA
BRANCH  14  16
ATOM     16  O   UNL     1       5.258   6.270  17.904  0.00  0.00    +0.000 OA
BRANCH  16  18
ATOM     17  C   UNL     1       7.357   7.346  17.503  0.00  0.00    +0.000 C 
ATOM     18  C   UNL     1       6.058   6.866  16.876  0.00  0.00    +0.000 C 
ENDBRANCH  16  18
ENDBRANCH  14  16
ENDBRANCH   5  14
ENDBRANCH   1   6
BRANCH   2  19
ATOM     19  C   UNL     1       1.152   9.804  21.050  0.00  0.00    +0.000 C 
BRANCH  19  20
ATOM     20  S   UNL     1       0.951  10.651  19.516  0.00  0.00    +0.000 S 
ATOM     21  O   UNL     1       1.708  11.889  19.506  0.00  0.00    +0.000 OA
ATOM     22  O   UNL     1       1.052   9.682  18.441  0.00  0.00    +0.000 OA
BRANCH  20  23
ATOM     23  C   UNL     1      -0.701  11.172  19.464  0.00  0.00    +0.000 A 
ATOM     24  C   UNL     1      -1.309  11.986  20.401  0.00  0.00    +0.000 A 
ATOM     25  N   UNL     1      -2.597  12.223  19.995  0.00  0.00    +0.000 N 
ATOM     26  C   UNL     1      -2.847  11.551  18.814  0.00  0.00    +0.000 A 
ATOM     27  C   UNL     1      -4.010  11.488  18.027  0.00  0.00    +0.000 A 
ATOM     28  C   UNL     1      -3.971  10.746  16.845  0.00  0.00    +0.000 A 
ATOM     29  C   UNL     1      -2.810  10.094  16.452  0.00  0.00    +0.000 A 
ATOM     30  C   UNL     1      -1.653  10.160  17.239  0.00  0.00    +0.000 A 
ATOM     31  C   UNL     1      -1.662  10.892  18.448  0.00  0.00    +0.000 A 
BRANCH  25  32
ATOM     32  C   UNL     1      -3.549  13.044  20.728  0.00  0.00    +0.000 C 
ATOM     33  C   UNL     1      -3.620  12.697  22.207  0.00  0.00    +0.000 C 
ENDBRANCH  25  32
ENDBRANCH  20  23
ENDBRANCH  19  20
ENDBRANCH   2  19
TORSDOF 8
ENDMDL
MODEL 5
REMARK VINA RESULT:      -6.8      1.137      1.324
REMARK  Name = 
REMARK  10 active torsions:
REMARK  status: ('A' for Active; 'I' for Inactive)
REMARK    1  A    between atoms: C_1  and  C_2
REMARK    2  A    between atoms: C_2  and  O_3
REMARK    3  A    between atoms: O_3  and  C_4
REMARK    4  A    between atoms: C_4  and  C_6
REMARK    5  A    between atoms: C_7  and  N_8
REMARK    6  A    between atoms: C_9  and  C_11
REMARK    7  A    between atoms: C_11  and  S_12
REMARK    8  A    between atoms: S_12  and  C_15
REMARK    9  A    between atoms: N_17  and  C_18
REMARK   10  A    between atoms: C_18  and  C_19
REMARK                            x       y       z     vdW  Elec       q    Type
REMARK                         _______ _______ _______ _____ _____    ______ ____
ROOT
ATOM      1  N   UNL     1       2.347   7.550  19.419  0.00  0.00    +0.000 N 
ATOM      2  C   UNL     1       1.469   8.586  19.111  0.00  0.00    +0.000 C 
ATOM      3  O   UNL     1       1.262   9.060  17.996  0.00  0.00    +0.000 OA
ATOM      4  H   UNL     1       2.480   7.282  20.395  0.00  0.00    +0.000 HD
ENDROOT
BRANCH   1   6
ATOM      5  C   UNL     1       3.286   5.411  18.502  0.00  0.00    +0.000 A 
ATOM      6  C   UNL     1       3.099   6.796  18.508  0.00  0.00    +0.000 A 
ATOM      7  S   UNL     1       3.922   7.553  17.229  0.00  0.00    +0.000 S 
ATOM      8  C   UNL     1       4.539   6.094  16.641  0.00  0.00    +0.000 A 
ATOM      9  C   UNL     1       4.131   5.004  17.383  0.00  0.00    +0.000 A 
ATOM     10  C   UNL     1       4.567   3.612  16.989  0.00  0.00    +0.000 C 
ATOM     11  C   UNL     1       5.800   3.627  16.071  0.00  0.00    +0.000 C 
ATOM     12  C   UNL     1       5.648   4.641  14.934  0.00  0.00    +0.000 C 
ATOM     13  C   UNL     1       5.469   6.068  15.467  0.00  0.00    +0.000 C 
BRANCH   5  14
ATOM     14  C   UNL     1       2.735   4.553  19.556  0.00  0.00    +0.000 C 
ATOM     15  O   UNL     1       3.440   3.883  20.305  0.00  0.00    +0.000 OA
BRANCH  14  16
ATOM     16  O   UNL     1       1.374   4.490  19.527  0.00  0.00    +0.000 OA
BRANCH  16  18
ATOM     17  C   UNL     1       0.876   2.303  18.693  0.00  0.00    +0.000 C 
ATOM     18  C   UNL     1       0.789   3.233  19.892  0.00  0.00    +0.000 C 
ENDBRANCH  16  18
ENDBRANCH  14  16
ENDBRANCH   5  14
ENDBRANCH   1   6
BRANCH   2  19
ATOM     19  C   UNL     1       0.775   9.207  20.294  0.00  0.00    +0.000 C 
BRANCH  19  20
ATOM     20  S   UNL     1       0.786  10.959  20.092  0.00  0.00    +0.000 S 
ATOM     21  O   UNL     1       1.128  11.621  21.337  0.00  0.00    +0.000 OA
ATOM     22  O   UNL     1       1.462  11.272  18.847  0.00  0.00    +0.000 OA
BRANCH  20  23
ATOM     23  C   UNL     1      -0.859  11.424  19.810  0.00  0.00    +0.000 A 
ATOM     24  C   UNL     1      -1.584  12.300  20.596  0.00  0.00    +0.000 A 
ATOM     25  N   UNL     1      -2.823  12.462  20.030  0.00  0.00    +0.000 N 
ATOM     26  C   UNL     1      -2.925  11.680  18.894  0.00  0.00    +0.000 A 
ATOM     27  C   UNL     1      -3.990  11.514  17.992  0.00  0.00    +0.000 A 
ATOM     28  C   UNL     1      -3.803  10.672  16.895  0.00  0.00    +0.000 A 
ATOM     29  C   UNL     1      -2.593  10.021  16.694  0.00  0.00    +0.000 A 
ATOM     30  C   UNL     1      -1.533  10.191  17.596  0.00  0.00    +0.000 A 
ATOM     31  C   UNL     1      -1.693  11.027  18.724  0.00  0.00    +0.000 A 
BRANCH  25  32
ATOM     32  C   UNL     1      -3.867  13.316  20.574  0.00  0.00    +0.000 C 
ATOM     33  C   UNL     1      -3.348  14.670  21.035  0.00  0.00    +0.000 C 
ENDBRANCH  25  32
ENDBRANCH  20  23
ENDBRANCH  19  20
ENDBRANCH   2  19
TORSDOF 8
ENDMDL
MODEL 6
REMARK VINA RESULT:      -6.8      2.041      3.306
REMARK  Name = 
REMARK  10 active torsions:
REMARK  status: ('A' for Active; 'I' for Inactive)
REMARK    1  A    between atoms: C_1  and  C_2
REMARK    2  A    between atoms: C_2  and  O_3
REMARK    3  A    between atoms: O_3  and  C_4
REMARK    4  A    between atoms: C_4  and  C_6
REMARK    5  A    between atoms: C_7  and  N_8
REMARK    6  A    between atoms: C_9  and  C_11
REMARK    7  A    between atoms: C_11  and  S_12
REMARK    8  A    between atoms: S_12  and  C_15
REMARK    9  A    between atoms: N_17  and  C_18
REMARK   10  A    between atoms: C_18  and  C_19
REMARK                            x       y       z     vdW  Elec       q    Type
REMARK                         _______ _______ _______ _____ _____    ______ ____
ROOT
ATOM      1  N   UNL     1       2.427   7.959  19.285  0.00  0.00    +0.000 N 
ATOM      2  C   UNL     1       1.731   8.802  18.423  0.00  0.00    +0.000 C 
ATOM      3  O   UNL     1       1.292   8.509  17.313  0.00  0.00    +0.000 OA
ATOM      4  H   UNL     1       2.797   8.336  20.158  0.00  0.00    +0.000 HD
ENDROOT
BRANCH   1   6
ATOM      5  C   UNL     1       3.631   6.028  18.229  0.00  0.00    +0.000 A 
ATOM      6  C   UNL     1       2.687   6.597  19.089  0.00  0.00    +0.000 A 
ATOM      7  S   UNL     1       1.809   5.416  19.938  0.00  0.00    +0.000 S 
ATOM      8  C   UNL     1       2.640   4.141  19.205  0.00  0.00    +0.000 A 
ATOM      9  C   UNL     1       3.603   4.570  18.315  0.00  0.00    +0.000 A 
ATOM     10  C   UNL     1       4.462   3.567  17.582  0.00  0.00    +0.000 C 
ATOM     11  C   UNL     1       3.837   2.163  17.575  0.00  0.00    +0.000 C 
ATOM     12  C   UNL     1       3.346   1.753  18.966  0.00  0.00    +0.000 C 
ATOM     13  C   UNL     1       2.277   2.716  19.496  0.00  0.00    +0.000 C 
BRANCH   5  14
ATOM     14  C   UNL     1       4.454   6.849  17.334  0.00  0.00    +0.000 C 
ATOM     15  O   UNL     1       4.288   6.879  16.118  0.00  0.00    +0.000 OA
BRANCH  14  16
ATOM     16  O   UNL     1       5.485   7.463  17.980  0.00  0.00    +0.000 OA
BRANCH  16  18
ATOM     17  C   UNL     1       7.375   5.999  17.864  0.00  0.00    +0.000 C 
ATOM     18  C   UNL     1       6.782   7.317  17.390  0.00  0.00    +0.000 C 
ENDBRANCH  16  18
ENDBRANCH  14  16
ENDBRANCH   5  14
ENDBRANCH   1   6
BRANCH   2  19
ATOM     19  C   UNL     1       1.582  10.223  18.900  0.00  0.00    +0.000 C 
BRANCH  19  20
ATOM     20  S   UNL     1       0.609  10.218  20.371  0.00  0.00    +0.000 S 
ATOM     21  O   UNL     1       0.206   8.870  20.721  0.00  0.00    +0.000 OA
ATOM     22  O   UNL     1       1.232  11.107  21.335  0.00  0.00    +0.000 OA
BRANCH  20  23
ATOM     23  C   UNL     1      -0.881  11.007  19.969  0.00  0.00    +0.000 A 
ATOM     24  C   UNL     1      -1.480  12.005  20.714  0.00  0.00    +0.000 A 
ATOM     25  N   UNL     1      -2.609  12.416  20.054  0.00  0.00    +0.000 N 
ATOM     26  C   UNL     1      -2.770  11.679  18.896  0.00  0.00    +0.000 A 
ATOM     27  C   UNL     1      -3.768  11.736  17.908  0.00  0.00    +0.000 A 
ATOM     28  C   UNL     1      -3.663  10.881  16.810  0.00  0.00    +0.000 A 
ATOM     29  C   UNL     1      -2.595  10.002  16.692  0.00  0.00    +0.000 A 
ATOM     30  C   UNL     1      -1.601   9.949  17.679  0.00  0.00    +0.000 A 
ATOM     31  C   UNL     1      -1.684  10.792  18.810  0.00  0.00    +0.000 A 
BRANCH  25  32
ATOM     32  C   UNL     1      -3.503  13.460  20.532  0.00  0.00    +0.000 C 
ATOM     33  C   UNL     1      -4.670  12.919  21.344  0.00  0.00    +0.000 C 
ENDBRANCH  25  32
ENDBRANCH  20  23
ENDBRANCH  19  20
ENDBRANCH   2  19
TORSDOF 8
ENDMDL
MODEL 7
REMARK VINA RESULT:      -6.8      1.258      1.524
REMARK  Name = 
REMARK  10 active torsions:
REMARK  status: ('A' for Active; 'I' for Inactive)
REMARK    1  A    between atoms: C_1  and  C_2
REMARK    2  A    between atoms: C_2  and  O_3
REMARK    3  A    between atoms: O_3  and  C_4
REMARK    4  A    between atoms: C_4  and  C_6
REMARK    5  A    between atoms: C_7  and  N_8
REMARK    6  A    between atoms: C_9  and  C_11
REMARK    7  A    between atoms: C_11  and  S_12
REMARK    8  A    between atoms: S_12  and  C_15
REMARK    9  A    between atoms: N_17  and  C_18
REMARK   10  A    between atoms: C_18  and  C_19
REMARK                            x       y       z     vdW  Elec       q    Type
REMARK                         _______ _______ _______ _____ _____    ______ ____
ROOT
ATOM      1  N   UNL     1       2.291   7.575  19.425  0.00  0.00    +0.000 N 
ATOM      2  C   UNL     1       1.455   8.643  19.112  0.00  0.00    +0.000 C 
ATOM      3  O   UNL     1       1.288   9.138  17.999  0.00  0.00    +0.000 OA
ATOM      4  H   UNL     1       2.394   7.291  20.399  0.00  0.00    +0.000 HD
ENDROOT
BRANCH   1   6
ATOM      5  C   UNL     1       3.091   5.415  18.430  0.00  0.00    +0.000 A 
ATOM      6  C   UNL     1       3.037   6.808  18.520  0.00  0.00    +0.000 A 
ATOM      7  S   UNL     1       4.029   7.557  17.361  0.00  0.00    +0.000 S 
ATOM      8  C   UNL     1       4.547   6.083  16.719  0.00  0.00    +0.000 A 
ATOM      9  C   UNL     1       3.979   4.995  17.350  0.00  0.00    +0.000 A 
ATOM     10  C   UNL     1       4.309   3.594  16.892  0.00  0.00    +0.000 C 
ATOM     11  C   UNL     1       5.607   3.542  16.069  0.00  0.00    +0.000 C 
ATOM     12  C   UNL     1       5.644   4.636  14.999  0.00  0.00    +0.000 C 
ATOM     13  C   UNL     1       5.561   6.036  15.617  0.00  0.00    +0.000 C 
BRANCH   5  14
ATOM     14  C   UNL     1       2.378   4.552  19.379  0.00  0.00    +0.000 C 
ATOM     15  O   UNL     1       1.158   4.423  19.375  0.00  0.00    +0.000 OA
BRANCH  14  16
ATOM     16  O   UNL     1       3.200   4.019  20.327  0.00  0.00    +0.000 OA
BRANCH  16  18
ATOM     17  C   UNL     1       4.540   2.038  20.225  0.00  0.00    +0.000 C 
ATOM     18  C   UNL     1       3.149   2.595  20.482  0.00  0.00    +0.000 C 
ENDBRANCH  16  18
ENDBRANCH  14  16
ENDBRANCH   5  14
ENDBRANCH   1   6
BRANCH   2  19
ATOM     19  C   UNL     1       0.757   9.273  20.288  0.00  0.00    +0.000 C 
BRANCH  19  20
ATOM     20  S   UNL     1       0.766  11.023  20.073  0.00  0.00    +0.000 S 
ATOM     21  O   UNL     1       1.130  11.694  21.305  0.00  0.00    +0.000 OA
ATOM     22  O   UNL     1       1.420  11.326  18.813  0.00  0.00    +0.000 OA
BRANCH  20  23
ATOM     23  C   UNL     1      -0.884  11.488  19.816  0.00  0.00    +0.000 A 
ATOM     24  C   UNL     1      -1.589  12.384  20.598  0.00  0.00    +0.000 A 
ATOM     25  N   UNL     1      -2.839  12.538  20.055  0.00  0.00    +0.000 N 
ATOM     26  C   UNL     1      -2.969  11.731  18.941  0.00  0.00    +0.000 A 
ATOM     27  C   UNL     1      -4.054  11.548  18.067  0.00  0.00    +0.000 A 
ATOM     28  C   UNL     1      -3.895  10.680  16.985  0.00  0.00    +0.000 A 
ATOM     29  C   UNL     1      -2.691  10.020  16.773  0.00  0.00    +0.000 A 
ATOM     30  C   UNL     1      -1.611  10.207  17.646  0.00  0.00    +0.000 A 
ATOM     31  C   UNL     1      -1.743  11.069  18.758  0.00  0.00    +0.000 A 
BRANCH  25  32
ATOM     32  C   UNL     1      -3.868  13.408  20.603  0.00  0.00    +0.000 C 
ATOM     33  C   UNL     1      -4.786  12.700  21.587  0.00  0.00    +0.000 C 
ENDBRANCH  25  32
ENDBRANCH  20  23
ENDBRANCH  19  20
ENDBRANCH   2  19
TORSDOF 8
ENDMDL
MODEL 8
REMARK VINA RESULT:      -6.8      2.447      8.852
REMARK  Name = 
REMARK  10 active torsions:
REMARK  status: ('A' for Active; 'I' for Inactive)
REMARK    1  A    between atoms: C_1  and  C_2
REMARK    2  A    between atoms: C_2  and  O_3
REMARK    3  A    between atoms: O_3  and  C_4
REMARK    4  A    between atoms: C_4  and  C_6
REMARK    5  A    between atoms: C_7  and  N_8
REMARK    6  A    between atoms: C_9  and  C_11
REMARK    7  A    between atoms: C_11  and  S_12
REMARK    8  A    between atoms: S_12  and  C_15
REMARK    9  A    between atoms: N_17  and  C_18
REMARK   10  A    between atoms: C_18  and  C_19
REMARK                            x       y       z     vdW  Elec       q    Type
REMARK                         _______ _______ _______ _____ _____    ______ ____
ROOT
ATOM      1  N   UNL     1       2.013   7.811  20.566  0.00  0.00    +0.000 N 
ATOM      2  C   UNL     1       1.747   6.447  20.477  0.00  0.00    +0.000 C 
ATOM      3  O   UNL     1       0.683   5.892  20.743  0.00  0.00    +0.000 OA
ATOM      4  H   UNL     1       2.957   8.148  20.375  0.00  0.00    +0.000 HD
ENDROOT
BRANCH   1   6
ATOM      5  C   UNL     1       0.523   9.759  20.037  0.00  0.00    +0.000 A 
ATOM      6  C   UNL     1       1.097   8.818  20.897  0.00  0.00    +0.000 A 
ATOM      7  S   UNL     1       0.560   9.010  22.497  0.00  0.00    +0.000 S 
ATOM      8  C   UNL     1      -0.430  10.321  22.105  0.00  0.00    +0.000 A 
ATOM      9  C   UNL     1      -0.391  10.638  20.762  0.00  0.00    +0.000 A 
ATOM     10  C   UNL     1      -1.234  11.770  20.224  0.00  0.00    +0.000 C 
ATOM     11  C   UNL     1      -1.685  12.736  21.333  0.00  0.00    +0.000 C 
ATOM     12  C   UNL     1      -2.244  11.986  22.545  0.00  0.00    +0.000 C 
ATOM     13  C   UNL     1      -1.199  11.051  23.164  0.00  0.00    +0.000 C 
BRANCH   5  14
ATOM     14  C   UNL     1       0.895   9.840  18.621  0.00  0.00    +0.000 C 
ATOM     15  O   UNL     1       2.024   9.583  18.213  0.00  0.00    +0.000 OA
BRANCH  14  16
ATOM     16  O   UNL     1      -0.103  10.344  17.841  0.00  0.00    +0.000 OA
BRANCH  16  18
ATOM     17  C   UNL     1      -2.221  10.205  16.735  0.00  0.00    +0.000 C 
ATOM     18  C   UNL     1      -1.139   9.427  17.466  0.00  0.00    +0.000 C 
ENDBRANCH  16  18
ENDBRANCH  14  16
ENDBRANCH   5  14
ENDBRANCH   1   6
BRANCH   2  19
ATOM     19  C   UNL     1       2.921   5.593  20.078  0.00  0.00    +0.000 C 
BRANCH  19  20
ATOM     20  S   UNL     1       2.887   5.377  18.328  0.00  0.00    +0.000 S 
ATOM     21  O   UNL     1       2.614   3.995  17.982  0.00  0.00    +0.000 OA
ATOM     22  O   UNL     1       2.137   6.475  17.746  0.00  0.00    +0.000 OA
BRANCH  20  23
ATOM     23  C   UNL     1       4.510   5.632  17.776  0.00  0.00    +0.000 A 
ATOM     24  C   UNL     1       5.483   6.334  18.463  0.00  0.00    +0.000 A 
ATOM     25  N   UNL     1       6.646   6.275  17.740  0.00  0.00    +0.000 N 
ATOM     26  C   UNL     1       6.438   5.564  16.573  0.00  0.00    +0.000 A 
ATOM     27  C   UNL     1       7.322   5.246  15.528  0.00  0.00    +0.000 A 
ATOM     28  C   UNL     1       6.843   4.474  14.468  0.00  0.00    +0.000 A 
ATOM     29  C   UNL     1       5.530   4.024  14.451  0.00  0.00    +0.000 A 
ATOM     30  C   UNL     1       4.653   4.343  15.496  0.00  0.00    +0.000 A 
ATOM     31  C   UNL     1       5.102   5.134  16.578  0.00  0.00    +0.000 A 
BRANCH  25  32
ATOM     32  C   UNL     1       7.896   6.897  18.149  0.00  0.00    +0.000 C 
ATOM     33  C   UNL     1       7.964   8.378  17.808  0.00  0.00    +0.000 C 
ENDBRANCH  25  32
ENDBRANCH  20  23
ENDBRANCH  19  20
ENDBRANCH   2  19
TORSDOF 8
ENDMDL
MODEL 9
REMARK VINA RESULT:      -6.8      3.180      8.966
REMARK  Name = 
REMARK  10 active torsions:
REMARK  status: ('A' for Active; 'I' for Inactive)
REMARK    1  A    between atoms: C_1  and  C_2
REMARK    2  A    between atoms: C_2  and  O_3
REMARK    3  A    between atoms: O_3  and  C_4
REMARK    4  A    between atoms: C_4  and  C_6
REMARK    5  A    between atoms: C_7  and  N_8
REMARK    6  A    between atoms: C_9  and  C_11
REMARK    7  A    between atoms: C_11  and  S_12
REMARK    8  A    between atoms: S_12  and  C_15
REMARK    9  A    between atoms: N_17  and  C_18
REMARK   10  A    between atoms: C_18  and  C_19
REMARK                            x       y       z     vdW  Elec       q    Type
REMARK                         _______ _______ _______ _____ _____    ______ ____
ROOT
ATOM      1  N   UNL     1       2.443   6.320  20.042  0.00  0.00    +0.000 N 
ATOM      2  C   UNL     1       1.908   5.045  20.199  0.00  0.00    +0.000 C 
ATOM      3  O   UNL     1       0.774   4.771  20.587  0.00  0.00    +0.000 OA
ATOM      4  H   UNL     1       3.421   6.421  19.770  0.00  0.00    +0.000 HD
ENDROOT
BRANCH   1   6
ATOM      5  C   UNL     1       1.644   8.578  19.295  0.00  0.00    +0.000 A 
ATOM      6  C   UNL     1       1.766   7.535  20.216  0.00  0.00    +0.000 A 
ATOM      7  S   UNL     1       0.974   7.883  21.679  0.00  0.00    +0.000 S 
ATOM      8  C   UNL     1       0.456   9.398  21.142  0.00  0.00    +0.000 A 
ATOM      9  C   UNL     1       0.854   9.674  19.850  0.00  0.00    +0.000 A 
ATOM     10  C   UNL     1       0.459  10.977  19.195  0.00  0.00    +0.000 C 
ATOM     11  C   UNL     1       0.048  12.043  20.224  0.00  0.00    +0.000 C 
ATOM     12  C   UNL     1      -0.924  11.481  21.265  0.00  0.00    +0.000 C 
ATOM     13  C   UNL     1      -0.305  10.318  22.048  0.00  0.00    +0.000 C 
BRANCH   5  14
ATOM     14  C   UNL     1       2.311   8.538  17.989  0.00  0.00    +0.000 C 
ATOM     15  O   UNL     1       2.107   9.371  17.111  0.00  0.00    +0.000 OA
BRANCH  14  16
ATOM     16  O   UNL     1       3.074   7.421  17.821  0.00  0.00    +0.000 OA
BRANCH  16  18
ATOM     17  C   UNL     1       4.582   7.201  15.975  0.00  0.00    +0.000 C 
ATOM     18  C   UNL     1       4.434   7.635  17.425  0.00  0.00    +0.000 C 
ENDBRANCH  16  18
ENDBRANCH  14  16
ENDBRANCH   5  14
ENDBRANCH   1   6
BRANCH   2  19
ATOM     19  C   UNL     1       2.864   3.913  19.923  0.00  0.00    +0.000 C 
BRANCH  19  20
ATOM     20  S   UNL     1       2.701   3.444  18.232  0.00  0.00    +0.000 S 
ATOM     21  O   UNL     1       2.562   2.006  18.105  0.00  0.00    +0.000 OA
ATOM     22  O   UNL     1       1.781   4.363  17.588  0.00  0.00    +0.000 OA
BRANCH  20  23
ATOM     23  C   UNL     1       4.229   3.782  17.486  0.00  0.00    +0.000 A 
ATOM     24  C   UNL     1       4.539   3.539  16.161  0.00  0.00    +0.000 A 
ATOM     25  N   UNL     1       5.815   3.986  15.929  0.00  0.00    +0.000 N 
ATOM     26  C   UNL     1       6.353   4.495  17.096  0.00  0.00    +0.000 A 
ATOM     27  C   UNL     1       7.616   5.057  17.350  0.00  0.00    +0.000 A 
ATOM     28  C   UNL     1       7.884   5.527  18.637  0.00  0.00    +0.000 A 
ATOM     29  C   UNL     1       6.925   5.450  19.638  0.00  0.00    +0.000 A 
ATOM     30  C   UNL     1       5.667   4.890  19.379  0.00  0.00    +0.000 A 
ATOM     31  C   UNL     1       5.367   4.392  18.091  0.00  0.00    +0.000 A 
BRANCH  25  32
ATOM     32  C   UNL     1       6.489   3.904  14.643  0.00  0.00    +0.000 C 
ATOM     33  C   UNL     1       5.526   3.786  13.471  0.00  0.00    +0.000 C 
ENDBRANCH  25  32
ENDBRANCH  20  23
ENDBRANCH  19  20
ENDBRANCH   2  19
TORSDOF 8
ENDMDL
