MODEL 1
REMARK VINA RESULT:      -6.7      0.000      0.000
REMARK  Name = 
REMARK  3 active torsions:
REMARK  status: ('A' for Active; 'I' for Inactive)
REMARK    1  A    between atoms: C_1  and  C_2
REMARK    2  A    between atoms: C_5  and  C_6
REMARK    3  A    between atoms: C_9  and  N_10
REMARK                            x       y       z     vdW  Elec       q    Type
REMARK                         _______ _______ _______ _____ _____    ______ ____
ROOT
ATOM      1  C   UNL     1       2.964   6.201  18.158  0.00  0.00    +0.000 A 
ATOM      2  C   UNL     1       2.337   4.986  17.990  0.00  0.00    +0.000 A 
ATOM      3  S   UNL     1       3.456   3.839  17.379  0.00  0.00    +0.000 S 
ATOM      4  C   UNL     1       4.705   5.036  17.404  0.00  0.00    +0.000 A 
ATOM      5  N   UNL     1       4.298   6.227  17.811  0.00  0.00    +0.000 NA
ENDROOT
BRANCH   4   6
ATOM      6  N   UNL     1       5.972   4.659  17.061  0.00  0.00    +0.000 NA
ATOM      7  C   UNL     1       6.885   4.685  17.970  0.00  0.00    +0.000 C 
ATOM      8  N   UNL     1       6.817   5.124  19.256  0.00  0.00    +0.000 N 
ATOM      9  N   UNL     1       8.137   4.239  17.709  0.00  0.00    +0.000 N 
ATOM     10  H   UNL     1       5.845   5.222  19.562  0.00  0.00    +0.000 HD
ATOM     11  H   UNL     1       7.365   4.591  19.920  0.00  0.00    +0.000 HD
ATOM     12  H   UNL     1       8.343   4.208  16.719  0.00  0.00    +0.000 HD
ATOM     13  H   UNL     1       8.876   4.649  18.262  0.00  0.00    +0.000 HD
ENDBRANCH   4   6
BRANCH   1  18
ATOM     14  C   UNL     1       0.285  10.856  20.266  0.00  0.00    +0.000 C 
ATOM     15  C   UNL     1       1.001   9.659  19.703  0.00  0.00    +0.000 A 
ATOM     16  C   UNL     1       1.348   9.596  18.354  0.00  0.00    +0.000 A 
ATOM     17  C   UNL     1       2.003   8.473  17.841  0.00  0.00    +0.000 A 
ATOM     18  C   UNL     1       2.316   7.399  18.672  0.00  0.00    +0.000 A 
ATOM     19  C   UNL     1       1.963   7.455  20.029  0.00  0.00    +0.000 A 
ATOM     20  C   UNL     1       1.315   8.579  20.541  0.00  0.00    +0.000 A 
ENDBRANCH   1  18
TORSDOF 2
ENDMDL
MODEL 2
REMARK VINA RESULT:      -6.7      1.975      2.549
REMARK  Name = 
REMARK  3 active torsions:
REMARK  status: ('A' for Active; 'I' for Inactive)
REMARK    1  A    between atoms: C_1  and  C_2
REMARK    2  A    between atoms: C_5  and  C_6
REMARK    3  A    between atoms: C_9  and  N_10
REMARK                            x       y       z     vdW  Elec       q    Type
REMARK                         _______ _______ _______ _____ _____    ______ ____
ROOT
ATOM      1  C   UNL     1       3.217   6.372  18.005  0.00  0.00    +0.000 A 
ATOM      2  C   UNL     1       4.320   6.565  17.202  0.00  0.00    +0.000 A 
ATOM      3  S   UNL     1       4.942   5.048  16.701  0.00  0.00    +0.000 S 
ATOM      4  C   UNL     1       3.683   4.239  17.570  0.00  0.00    +0.000 A 
ATOM      5  N   UNL     1       2.872   5.055  18.221  0.00  0.00    +0.000 NA
ENDROOT
BRANCH   4   6
ATOM      6  N   UNL     1       3.603   2.878  17.478  0.00  0.00    +0.000 NA
ATOM      7  C   UNL     1       4.079   2.171  18.443  0.00  0.00    +0.000 C 
ATOM      8  N   UNL     1       4.758   2.565  19.556  0.00  0.00    +0.000 N 
ATOM      9  N   UNL     1       3.949   0.823  18.446  0.00  0.00    +0.000 N 
ATOM     10  H   UNL     1       4.651   3.570  19.717  0.00  0.00    +0.000 HD
ATOM     11  H   UNL     1       4.557   2.029  20.391  0.00  0.00    +0.000 HD
ATOM     12  H   UNL     1       3.757   0.446  17.526  0.00  0.00    +0.000 HD
ATOM     13  H   UNL     1       4.658   0.311  18.950  0.00  0.00    +0.000 HD
ENDBRANCH   4   6
BRANCH   1  18
ATOM     14  C   UNL     1       0.202  10.728  20.291  0.00  0.00    +0.000 C 
ATOM     15  C   UNL     1       0.971   9.574  19.708  0.00  0.00    +0.000 A 
ATOM     16  C   UNL     1       1.343   8.485  20.495  0.00  0.00    +0.000 A 
ATOM     17  C   UNL     1       2.067   7.425  19.944  0.00  0.00    +0.000 A 
ATOM     18  C   UNL     1       2.431   7.444  18.598  0.00  0.00    +0.000 A 
ATOM     19  C   UNL     1       2.065   8.541  17.804  0.00  0.00    +0.000 A 
ATOM     20  C   UNL     1       1.336   9.596  18.354  0.00  0.00    +0.000 A 
ENDBRANCH   1  18
TORSDOF 2
ENDMDL
MODEL 3
REMARK VINA RESULT:      -6.7      1.401      1.859
REMARK  Name = 
REMARK  3 active torsions:
REMARK  status: ('A' for Active; 'I' for Inactive)
REMARK    1  A    between atoms: C_1  and  C_2
REMARK    2  A    between atoms: C_5  and  C_6
REMARK    3  A    between atoms: C_9  and  N_10
REMARK                            x       y       z     vdW  Elec       q    Type
REMARK                         _______ _______ _______ _____ _____    ______ ____
ROOT
ATOM      1  C   UNL     1       3.350   6.369  18.617  0.00  0.00    +0.000 A 
ATOM      2  C   UNL     1       3.659   5.383  19.529  0.00  0.00    +0.000 A 
ATOM      3  S   UNL     1       4.769   4.279  18.832  0.00  0.00    +0.000 S 
ATOM      4  C   UNL     1       4.781   5.204  17.370  0.00  0.00    +0.000 A 
ATOM      5  N   UNL     1       3.976   6.254  17.394  0.00  0.00    +0.000 NA
ENDROOT
BRANCH   4   6
ATOM      6  N   UNL     1       5.623   4.821  16.366  0.00  0.00    +0.000 NA
ATOM      7  C   UNL     1       6.645   5.562  16.108  0.00  0.00    +0.000 C 
ATOM      8  N   UNL     1       7.001   6.764  16.637  0.00  0.00    +0.000 N 
ATOM      9  N   UNL     1       7.559   5.185  15.183  0.00  0.00    +0.000 N 
ATOM     10  H   UNL     1       6.489   6.953  17.503  0.00  0.00    +0.000 HD
ATOM     11  H   UNL     1       7.997   6.902  16.755  0.00  0.00    +0.000 HD
ATOM     12  H   UNL     1       7.202   4.493  14.538  0.00  0.00    +0.000 HD
ATOM     13  H   UNL     1       8.065   5.934  14.731  0.00  0.00    +0.000 HD
ENDBRANCH   4   6
BRANCH   1  18
ATOM     14  C   UNL     1      -0.132  10.868  19.581  0.00  0.00    +0.000 C 
ATOM     15  C   UNL     1       0.758   9.679  19.343  0.00  0.00    +0.000 A 
ATOM     16  C   UNL     1       1.077   8.799  20.378  0.00  0.00    +0.000 A 
ATOM     17  C   UNL     1       1.914   7.705  20.147  0.00  0.00    +0.000 A 
ATOM     18  C   UNL     1       2.446   7.479  18.878  0.00  0.00    +0.000 A 
ATOM     19  C   UNL     1       2.133   8.365  17.836  0.00  0.00    +0.000 A 
ATOM     20  C   UNL     1       1.292   9.454  18.066  0.00  0.00    +0.000 A 
ENDBRANCH   1  18
TORSDOF 2
ENDMDL
MODEL 4
REMARK VINA RESULT:      -6.6      1.093      1.765
REMARK  Name = 
REMARK  3 active torsions:
REMARK  status: ('A' for Active; 'I' for Inactive)
REMARK    1  A    between atoms: C_1  and  C_2
REMARK    2  A    between atoms: C_5  and  C_6
REMARK    3  A    between atoms: C_9  and  N_10
REMARK                            x       y       z     vdW  Elec       q    Type
REMARK                         _______ _______ _______ _____ _____    ______ ____
ROOT
ATOM      1  C   UNL     1       3.069   6.018  19.277  0.00  0.00    +0.000 A 
ATOM      2  C   UNL     1       2.564   4.823  19.743  0.00  0.00    +0.000 A 
ATOM      3  S   UNL     1       3.765   3.605  19.629  0.00  0.00    +0.000 S 
ATOM      4  C   UNL     1       4.884   4.760  18.989  0.00  0.00    +0.000 A 
ATOM      5  N   UNL     1       4.375   5.972  18.839  0.00  0.00    +0.000 NA
ENDROOT
BRANCH   4   6
ATOM      6  N   UNL     1       6.165   4.356  18.745  0.00  0.00    +0.000 NA
ATOM      7  C   UNL     1       6.673   4.599  17.586  0.00  0.00    +0.000 C 
ATOM      8  N   UNL     1       6.093   5.142  16.481  0.00  0.00    +0.000 N 
ATOM      9  N   UNL     1       7.966   4.299  17.318  0.00  0.00    +0.000 N 
ATOM     10  H   UNL     1       5.214   5.611  16.717  0.00  0.00    +0.000 HD
ATOM     11  H   UNL     1       6.698   5.740  15.931  0.00  0.00    +0.000 HD
ATOM     12  H   UNL     1       8.350   3.616  17.958  0.00  0.00    +0.000 HD
ATOM     13  H   UNL     1       8.185   4.112  16.350  0.00  0.00    +0.000 HD
ENDBRANCH   4   6
BRANCH   1  18
ATOM     14  C   UNL     1       0.243  11.043  19.059  0.00  0.00    +0.000 C 
ATOM     15  C   UNL     1       0.958   9.722  19.130  0.00  0.00    +0.000 A 
ATOM     16  C   UNL     1       1.040   9.010  20.327  0.00  0.00    +0.000 A 
ATOM     17  C   UNL     1       1.717   7.790  20.382  0.00  0.00    +0.000 A 
ATOM     18  C   UNL     1       2.325   7.268  19.241  0.00  0.00    +0.000 A 
ATOM     19  C   UNL     1       2.251   7.984  18.037  0.00  0.00    +0.000 A 
ATOM     20  C   UNL     1       1.569   9.199  17.981  0.00  0.00    +0.000 A 
ENDBRANCH   1  18
TORSDOF 2
ENDMDL
MODEL 5
REMARK VINA RESULT:      -6.6      1.962      2.516
REMARK  Name = 
REMARK  3 active torsions:
REMARK  status: ('A' for Active; 'I' for Inactive)
REMARK    1  A    between atoms: C_1  and  C_2
REMARK    2  A    between atoms: C_5  and  C_6
REMARK    3  A    between atoms: C_9  and  N_10
REMARK                            x       y       z     vdW  Elec       q    Type
REMARK                         _______ _______ _______ _____ _____    ______ ____
ROOT
ATOM      1  C   UNL     1       3.452   6.627  18.400  0.00  0.00    +0.000 A 
ATOM      2  C   UNL     1       4.023   6.503  17.152  0.00  0.00    +0.000 A 
ATOM      3  S   UNL     1       5.112   5.178  17.145  0.00  0.00    +0.000 S 
ATOM      4  C   UNL     1       4.727   4.846  18.799  0.00  0.00    +0.000 A 
ATOM      5  N   UNL     1       3.865   5.697  19.330  0.00  0.00    +0.000 NA
ENDROOT
BRANCH   4   6
ATOM      6  N   UNL     1       5.286   3.747  19.388  0.00  0.00    +0.000 NA
ATOM      7  C   UNL     1       4.524   2.743  19.654  0.00  0.00    +0.000 C 
ATOM      8  N   UNL     1       3.176   2.616  19.519  0.00  0.00    +0.000 N 
ATOM      9  N   UNL     1       5.039   1.596  20.157  0.00  0.00    +0.000 N 
ATOM     10  H   UNL     1       2.795   3.348  18.913  0.00  0.00    +0.000 HD
ATOM     11  H   UNL     1       2.859   1.696  19.237  0.00  0.00    +0.000 HD
ATOM     12  H   UNL     1       5.949   1.727  20.579  0.00  0.00    +0.000 HD
ATOM     13  H   UNL     1       4.411   1.039  20.719  0.00  0.00    +0.000 HD
ENDBRANCH   4   6
BRANCH   1  18
ATOM     14  C   UNL     1      -0.349  10.751  19.757  0.00  0.00    +0.000 C 
ATOM     15  C   UNL     1       0.626   9.657  19.416  0.00  0.00    +0.000 A 
ATOM     16  C   UNL     1       1.049   8.742  20.381  0.00  0.00    +0.000 A 
ATOM     17  C   UNL     1       1.963   7.738  20.055  0.00  0.00    +0.000 A 
ATOM     18  C   UNL     1       2.470   7.640  18.759  0.00  0.00    +0.000 A 
ATOM     19  C   UNL     1       2.052   8.561  17.788  0.00  0.00    +0.000 A 
ATOM     20  C   UNL     1       1.134   9.559  18.113  0.00  0.00    +0.000 A 
ENDBRANCH   1  18
TORSDOF 2
ENDMDL
MODEL 6
REMARK VINA RESULT:      -6.6      3.491      4.789
REMARK  Name = 
REMARK  3 active torsions:
REMARK  status: ('A' for Active; 'I' for Inactive)
REMARK    1  A    between atoms: C_1  and  C_2
REMARK    2  A    between atoms: C_5  and  C_6
REMARK    3  A    between atoms: C_9  and  N_10
REMARK                            x       y       z     vdW  Elec       q    Type
REMARK                         _______ _______ _______ _____ _____    ______ ____
ROOT
ATOM      1  C   UNL     1       5.634   4.994  18.711  0.00  0.00    +0.000 A 
ATOM      2  C   UNL     1       6.673   5.632  19.353  0.00  0.00    +0.000 A 
ATOM      3  S   UNL     1       7.799   6.208  18.195  0.00  0.00    +0.000 S 
ATOM      4  C   UNL     1       6.811   5.588  16.918  0.00  0.00    +0.000 A 
ATOM      5  N   UNL     1       5.725   4.959  17.337  0.00  0.00    +0.000 NA
ENDROOT
BRANCH   4   6
ATOM      6  N   UNL     1       7.190   5.829  15.628  0.00  0.00    +0.000 NA
ATOM      7  C   UNL     1       6.985   4.911  14.748  0.00  0.00    +0.000 C 
ATOM      8  N   UNL     1       6.505   3.647  14.907  0.00  0.00    +0.000 N 
ATOM      9  N   UNL     1       7.261   5.129  13.440  0.00  0.00    +0.000 N 
ATOM     10  H   UNL     1       6.051   3.537  15.818  0.00  0.00    +0.000 HD
ATOM     11  H   UNL     1       5.916   3.315  14.153  0.00  0.00    +0.000 HD
ATOM     12  H   UNL     1       7.905   5.896  13.298  0.00  0.00    +0.000 HD
ATOM     13  H   UNL     1       7.484   4.310  12.893  0.00  0.00    +0.000 HD
ENDBRANCH   4   6
BRANCH   1  18
ATOM     14  C   UNL     1       1.124   2.725  21.505  0.00  0.00    +0.000 C 
ATOM     15  C   UNL     1       2.297   3.296  20.758  0.00  0.00    +0.000 A 
ATOM     16  C   UNL     1       3.336   2.478  20.314  0.00  0.00    +0.000 A 
ATOM     17  C   UNL     1       4.426   3.022  19.631  0.00  0.00    +0.000 A 
ATOM     18  C   UNL     1       4.492   4.394  19.388  0.00  0.00    +0.000 A 
ATOM     19  C   UNL     1       3.453   5.221  19.838  0.00  0.00    +0.000 A 
ATOM     20  C   UNL     1       2.362   4.676  20.514  0.00  0.00    +0.000 A 
ENDBRANCH   1  18
TORSDOF 2
ENDMDL
MODEL 7
REMARK VINA RESULT:      -6.6      1.363      1.370
REMARK  Name = 
REMARK  3 active torsions:
REMARK  status: ('A' for Active; 'I' for Inactive)
REMARK    1  A    between atoms: C_1  and  C_2
REMARK    2  A    between atoms: C_5  and  C_6
REMARK    3  A    between atoms: C_9  and  N_10
REMARK                            x       y       z     vdW  Elec       q    Type
REMARK                         _______ _______ _______ _____ _____    ______ ____
ROOT
ATOM      1  C   UNL     1       3.279   6.390  18.578  0.00  0.00    +0.000 A 
ATOM      2  C   UNL     1       3.460   5.333  19.444  0.00  0.00    +0.000 A 
ATOM      3  S   UNL     1       4.555   4.206  18.759  0.00  0.00    +0.000 S 
ATOM      4  C   UNL     1       4.731   5.217  17.365  0.00  0.00    +0.000 A 
ATOM      5  N   UNL     1       3.989   6.311  17.399  0.00  0.00    +0.000 NA
ENDROOT
BRANCH   4   6
ATOM      6  N   UNL     1       5.624   4.843  16.402  0.00  0.00    +0.000 NA
ATOM      7  C   UNL     1       6.629   5.614  16.167  0.00  0.00    +0.000 C 
ATOM      8  N   UNL     1       6.923   6.839  16.683  0.00  0.00    +0.000 N 
ATOM      9  N   UNL     1       7.591   5.252  15.285  0.00  0.00    +0.000 N 
ATOM     10  H   UNL     1       6.372   7.027  17.525  0.00  0.00    +0.000 HD
ATOM     11  H   UNL     1       7.909   7.014  16.835  0.00  0.00    +0.000 HD
ATOM     12  H   UNL     1       7.282   4.535  14.641  0.00  0.00    +0.000 HD
ATOM     13  H   UNL     1       8.087   6.009  14.837  0.00  0.00    +0.000 HD
ENDBRANCH   4   6
BRANCH   1  18
ATOM     14  C   UNL     1      -0.216  10.839  19.709  0.00  0.00    +0.000 C 
ATOM     15  C   UNL     1       0.712   9.696  19.400  0.00  0.00    +0.000 A 
ATOM     16  C   UNL     1       1.209   9.499  18.112  0.00  0.00    +0.000 A 
ATOM     17  C   UNL     1       2.061   8.427  17.835  0.00  0.00    +0.000 A 
ATOM     18  C   UNL     1       2.423   7.537  18.845  0.00  0.00    +0.000 A 
ATOM     19  C   UNL     1       1.921   7.727  20.141  0.00  0.00    +0.000 A 
ATOM     20  C   UNL     1       1.075   8.802  20.417  0.00  0.00    +0.000 A 
ENDBRANCH   1  18
TORSDOF 2
ENDMDL
MODEL 8
REMARK VINA RESULT:      -6.6      3.353      6.084
REMARK  Name = 
REMARK  3 active torsions:
REMARK  status: ('A' for Active; 'I' for Inactive)
REMARK    1  A    between atoms: C_1  and  C_2
REMARK    2  A    between atoms: C_5  and  C_6
REMARK    3  A    between atoms: C_9  and  N_10
REMARK                            x       y       z     vdW  Elec       q    Type
REMARK                         _______ _______ _______ _____ _____    ______ ____
ROOT
ATOM      1  C   UNL     1       3.617   5.523  18.254  0.00  0.00    +0.000 A 
ATOM      2  C   UNL     1       3.001   6.718  18.556  0.00  0.00    +0.000 A 
ATOM      3  S   UNL     1       2.159   6.574  20.043  0.00  0.00    +0.000 S 
ATOM      4  C   UNL     1       2.694   4.936  20.193  0.00  0.00    +0.000 A 
ATOM      5  N   UNL     1       3.428   4.516  19.176  0.00  0.00    +0.000 NA
ENDROOT
BRANCH   4   6
ATOM      6  N   UNL     1       2.370   4.249  21.329  0.00  0.00    +0.000 NA
ATOM      7  C   UNL     1       1.506   3.298  21.242  0.00  0.00    +0.000 C 
ATOM      8  N   UNL     1       0.763   2.894  20.176  0.00  0.00    +0.000 N 
ATOM      9  N   UNL     1       1.212   2.528  22.317  0.00  0.00    +0.000 N 
ATOM     10  H   UNL     1       1.137   3.270  19.301  0.00  0.00    +0.000 HD
ATOM     11  H   UNL     1       0.608   1.895  20.116  0.00  0.00    +0.000 HD
ATOM     12  H   UNL     1       1.469   2.964  23.194  0.00  0.00    +0.000 HD
ATOM     13  H   UNL     1       0.290   2.116  22.327  0.00  0.00    +0.000 HD
ENDBRANCH   4   6
BRANCH   1  18
ATOM     14  C   UNL     1       6.931   4.508  13.641  0.00  0.00    +0.000 C 
ATOM     15  C   UNL     1       6.052   4.791  14.829  0.00  0.00    +0.000 A 
ATOM     16  C   UNL     1       5.719   6.098  15.184  0.00  0.00    +0.000 A 
ATOM     17  C   UNL     1       4.911   6.347  16.296  0.00  0.00    +0.000 A 
ATOM     18  C   UNL     1       4.430   5.291  17.069  0.00  0.00    +0.000 A 
ATOM     19  C   UNL     1       4.767   3.975  16.719  0.00  0.00    +0.000 A 
ATOM     20  C   UNL     1       5.569   3.727  15.604  0.00  0.00    +0.000 A 
ENDBRANCH   1  18
TORSDOF 2
ENDMDL
MODEL 9
REMARK VINA RESULT:      -6.6      3.650      4.869
REMARK  Name = 
REMARK  3 active torsions:
REMARK  status: ('A' for Active; 'I' for Inactive)
REMARK    1  A    between atoms: C_1  and  C_2
REMARK    2  A    between atoms: C_5  and  C_6
REMARK    3  A    between atoms: C_9  and  N_10
REMARK                            x       y       z     vdW  Elec       q    Type
REMARK                         _______ _______ _______ _____ _____    ______ ____
ROOT
ATOM      1  C   UNL     1       5.025   4.665  16.889  0.00  0.00    +0.000 A 
ATOM      2  C   UNL     1       5.914   4.122  15.987  0.00  0.00    +0.000 A 
ATOM      3  S   UNL     1       7.148   5.260  15.637  0.00  0.00    +0.000 S 
ATOM      4  C   UNL     1       6.426   6.388  16.732  0.00  0.00    +0.000 A 
ATOM      5  N   UNL     1       5.312   5.950  17.295  0.00  0.00    +0.000 NA
ENDROOT
BRANCH   4   6
ATOM      6  N   UNL     1       7.064   7.575  16.956  0.00  0.00    +0.000 NA
ATOM      7  C   UNL     1       7.852   7.663  17.971  0.00  0.00    +0.000 C 
ATOM      8  N   UNL     1       8.107   6.757  18.954  0.00  0.00    +0.000 N 
ATOM      9  N   UNL     1       8.577   8.786  18.190  0.00  0.00    +0.000 N 
ATOM     10  H   UNL     1       7.787   5.823  18.686  0.00  0.00    +0.000 HD
ATOM     11  H   UNL     1       9.064   6.743  19.285  0.00  0.00    +0.000 HD
ATOM     12  H   UNL     1       8.204   9.594  17.708  0.00  0.00    +0.000 HD
ATOM     13  H   UNL     1       8.825   8.971  19.152  0.00  0.00    +0.000 HD
ENDBRANCH   4   6
BRANCH   1  18
ATOM     14  C   UNL     1       0.392   2.024  19.092  0.00  0.00    +0.000 C 
ATOM     15  C   UNL     1       1.603   2.692  18.500  0.00  0.00    +0.000 A 
ATOM     16  C   UNL     1       2.775   1.975  18.258  0.00  0.00    +0.000 A 
ATOM     17  C   UNL     1       3.896   2.609  17.719  0.00  0.00    +0.000 A 
ATOM     18  C   UNL     1       3.860   3.970  17.418  0.00  0.00    +0.000 A 
ATOM     19  C   UNL     1       2.686   4.696  17.665  0.00  0.00    +0.000 A 
ATOM     20  C   UNL     1       1.564   4.060  18.198  0.00  0.00    +0.000 A 
ENDBRANCH   1  18
TORSDOF 2
ENDMDL
