MODEL 1
REMARK VINA RESULT:      -8.6      0.000      0.000
REMARK  Name = 
REMARK  6 active torsions:
REMARK  status: ('A' for Active; 'I' for Inactive)
REMARK    1  A    between atoms: C_1  and  C_2
REMARK    2  A    between atoms: C_2  and  C_3
REMARK    3  A    between atoms: C_2  and  N_4
REMARK    4  A    between atoms: C_6  and  C_7
REMARK    5  A    between atoms: C_18  and  C_19
REMARK    6  A    between atoms: N_21  and  C_22
REMARK                            x       y       z     vdW  Elec       q    Type
REMARK                         _______ _______ _______ _____ _____    ______ ____
ROOT
ATOM      1  N   UNL     1       2.449   5.118  19.449  0.00  0.00    +0.000 N 
ATOM      2  N   UNL     1       3.210   4.432  18.573  0.00  0.00    +0.000 NA
ATOM      3  C   UNL     1       3.806   5.378  17.815  0.00  0.00    +0.000 A 
ATOM      4  C   UNL     1       3.246   6.650  18.088  0.00  0.00    +0.000 A 
ATOM      5  C   UNL     1       2.549   6.469  19.260  0.00  0.00    +0.000 A 
ENDROOT
BRANCH   3   6
ATOM      6  C   UNL     1       5.011   5.104  17.018  0.00  0.00    +0.000 A 
ATOM      7  C   UNL     1       6.147   5.888  17.243  0.00  0.00    +0.000 A 
ATOM      8  N   UNL     1       7.241   5.970  16.446  0.00  0.00    +0.000 NA
ATOM      9  C   UNL     1       7.083   5.317  15.298  0.00  0.00    +0.000 A 
ATOM     10  N   UNL     1       7.948   5.437  14.243  0.00  0.00    +0.000 N 
ATOM     11  C   UNL     1       7.399   4.850  13.135  0.00  0.00    +0.000 A 
ATOM     12  C   UNL     1       6.253   4.187  13.536  0.00  0.00    +0.000 A 
ATOM     13 CL   UNL     1       5.205   3.319  12.519  0.00  0.00    +0.000 Cl
ATOM     14  C   UNL     1       6.021   4.498  14.910  0.00  0.00    +0.000 A 
ATOM     15  C   UNL     1       4.994   4.293  15.862  0.00  0.00    +0.000 A 
ATOM     16  H   UNL     1       8.776   6.003  14.284  0.00  0.00    +0.000 HD
ENDBRANCH   3   6
BRANCH   5  17
ATOM     17  C   UNL     1       2.110   7.552  20.223  0.00  0.00    +0.000 C 
ATOM     18  C   UNL     1       1.427   8.768  19.564  0.00  0.00    +0.000 C 
ATOM     19  N   UNL     1       0.420   8.790  20.652  0.00  0.00    +0.000 NA
ATOM     20  C   UNL     1       0.736   7.349  20.895  0.00  0.00    +0.000 C 
BRANCH  19  21
ATOM     21  C   UNL     1       0.806   9.624  21.807  0.00  0.00    +0.000 C 
ATOM     22  C   UNL     1       0.249  11.060  21.759  0.00  0.00    +0.000 C 
ATOM     23  O   UNL     1      -0.267  10.910  23.114  0.00  0.00    +0.000 OA
ATOM     24  C   UNL     1      -0.265   9.461  22.907  0.00  0.00    +0.000 C 
ENDBRANCH  19  21
ENDBRANCH   5  17
BRANCH   1  26
ATOM     25  C   UNL     1       0.658   3.465  19.857  0.00  0.00    +0.000 C 
ATOM     26  C   UNL     1       1.644   4.456  20.477  0.00  0.00    +0.000 C 
ATOM     27  C   UNL     1       2.413   3.833  21.641  0.00  0.00    +0.000 C 
ENDBRANCH   1  26
TORSDOF 4
ENDMDL
MODEL 2
REMARK VINA RESULT:      -8.0      4.173      8.416
REMARK  Name = 
REMARK  6 active torsions:
REMARK  status: ('A' for Active; 'I' for Inactive)
REMARK    1  A    between atoms: C_1  and  C_2
REMARK    2  A    between atoms: C_2  and  C_3
REMARK    3  A    between atoms: C_2  and  N_4
REMARK    4  A    between atoms: C_6  and  C_7
REMARK    5  A    between atoms: C_18  and  C_19
REMARK    6  A    between atoms: N_21  and  C_22
REMARK                            x       y       z     vdW  Elec       q    Type
REMARK                         _______ _______ _______ _____ _____    ______ ____
ROOT
ATOM      1  N   UNL     1       3.744   4.568  18.424  0.00  0.00    +0.000 N 
ATOM      2  N   UNL     1       2.880   5.316  19.139  0.00  0.00    +0.000 NA
ATOM      3  C   UNL     1       3.103   6.585  18.736  0.00  0.00    +0.000 A 
ATOM      4  C   UNL     1       4.258   6.646  17.920  0.00  0.00    +0.000 A 
ATOM      5  C   UNL     1       4.505   5.335  17.585  0.00  0.00    +0.000 A 
ENDROOT
BRANCH   3   6
ATOM      6  C   UNL     1       2.124   7.661  18.950  0.00  0.00    +0.000 A 
ATOM      7  C   UNL     1       2.027   8.671  17.986  0.00  0.00    +0.000 A 
ATOM      8  N   UNL     1       1.396   9.863  18.127  0.00  0.00    +0.000 NA
ATOM      9  C   UNL     1       0.968  10.068  19.370  0.00  0.00    +0.000 A 
ATOM     10  N   UNL     1       0.506  11.277  19.813  0.00  0.00    +0.000 N 
ATOM     11  C   UNL     1       0.376  11.244  21.176  0.00  0.00    +0.000 A 
ATOM     12  C   UNL     1       0.581   9.939  21.584  0.00  0.00    +0.000 A 
ATOM     13 CL   UNL     1       0.546   9.388  23.191  0.00  0.00    +0.000 Cl
ATOM     14  C   UNL     1       0.989   9.179  20.447  0.00  0.00    +0.000 A 
ATOM     15  C   UNL     1       1.485   7.878  20.191  0.00  0.00    +0.000 A 
ATOM     16  H   UNL     1       0.430  12.080  19.215  0.00  0.00    +0.000 HD
ENDBRANCH   3   6
BRANCH   5  17
ATOM     17  C   UNL     1       5.340   4.845  16.420  0.00  0.00    +0.000 C 
ATOM     18  C   UNL     1       5.185   5.663  15.122  0.00  0.00    +0.000 C 
ATOM     19  N   UNL     1       6.650   5.591  14.902  0.00  0.00    +0.000 NA
ATOM     20  C   UNL     1       6.798   5.347  16.370  0.00  0.00    +0.000 C 
BRANCH  19  21
ATOM     21  C   UNL     1       7.079   4.416  14.119  0.00  0.00    +0.000 C 
ATOM     22  C   UNL     1       6.019   3.901  13.126  0.00  0.00    +0.000 C 
ATOM     23  O   UNL     1       7.007   3.920  12.055  0.00  0.00    +0.000 OA
ATOM     24  C   UNL     1       7.758   4.913  12.824  0.00  0.00    +0.000 C 
ENDBRANCH  19  21
ENDBRANCH   5  17
BRANCH   1  26
ATOM     25  C   UNL     1       3.865   2.680  20.013  0.00  0.00    +0.000 C 
ATOM     26  C   UNL     1       3.813   3.111  18.547  0.00  0.00    +0.000 C 
ATOM     27  C   UNL     1       2.768   2.318  17.763  0.00  0.00    +0.000 C 
ENDBRANCH   1  26
TORSDOF 4
ENDMDL
MODEL 3
REMARK VINA RESULT:      -7.9      0.767      1.089
REMARK  Name = 
REMARK  6 active torsions:
REMARK  status: ('A' for Active; 'I' for Inactive)
REMARK    1  A    between atoms: C_1  and  C_2
REMARK    2  A    between atoms: C_2  and  C_3
REMARK    3  A    between atoms: C_2  and  N_4
REMARK    4  A    between atoms: C_6  and  C_7
REMARK    5  A    between atoms: C_18  and  C_19
REMARK    6  A    between atoms: N_21  and  C_22
REMARK                            x       y       z     vdW  Elec       q    Type
REMARK                         _______ _______ _______ _____ _____    ______ ____
ROOT
ATOM      1  N   UNL     1       2.619   4.392  19.409  0.00  0.00    +0.000 N 
ATOM      2  N   UNL     1       3.559   3.799  18.647  0.00  0.00    +0.000 NA
ATOM      3  C   UNL     1       3.843   4.699  17.682  0.00  0.00    +0.000 A 
ATOM      4  C   UNL     1       2.921   5.773  17.724  0.00  0.00    +0.000 A 
ATOM      5  C   UNL     1       2.303   5.640  18.946  0.00  0.00    +0.000 A 
ENDROOT
BRANCH   3   6
ATOM      6  C   UNL     1       5.081   4.638  16.889  0.00  0.00    +0.000 A 
ATOM      7  C   UNL     1       6.092   5.565  17.167  0.00  0.00    +0.000 A 
ATOM      8  N   UNL     1       7.168   5.840  16.389  0.00  0.00    +0.000 NA
ATOM      9  C   UNL     1       7.113   5.228  15.210  0.00  0.00    +0.000 A 
ATOM     10  N   UNL     1       7.959   5.521  14.174  0.00  0.00    +0.000 N 
ATOM     11  C   UNL     1       7.507   4.916  13.031  0.00  0.00    +0.000 A 
ATOM     12  C   UNL     1       6.465   4.077  13.386  0.00  0.00    +0.000 A 
ATOM     13 CL   UNL     1       5.558   3.119  12.315  0.00  0.00    +0.000 Cl
ATOM     14  C   UNL     1       6.182   4.285  14.769  0.00  0.00    +0.000 A 
ATOM     15  C   UNL     1       5.187   3.890  15.697  0.00  0.00    +0.000 A 
ATOM     16  H   UNL     1       8.698   6.196  14.252  0.00  0.00    +0.000 HD
ENDBRANCH   3   6
BRANCH   5  17
ATOM     17  C   UNL     1       1.548   6.719  19.695  0.00  0.00    +0.000 C 
ATOM     18  C   UNL     1       2.199   7.165  21.020  0.00  0.00    +0.000 C 
ATOM     19  N   UNL     1       1.889   8.578  20.695  0.00  0.00    +0.000 NA
ATOM     20  C   UNL     1       1.825   8.172  19.258  0.00  0.00    +0.000 C 
BRANCH  19  21
ATOM     21  C   UNL     1       0.571   9.029  21.183  0.00  0.00    +0.000 C 
ATOM     22  C   UNL     1       0.529   9.326  22.694  0.00  0.00    +0.000 C 
ATOM     23  O   UNL     1      -0.066  10.629  22.426  0.00  0.00    +0.000 OA
ATOM     24  C   UNL     1       0.514  10.568  21.084  0.00  0.00    +0.000 C 
ENDBRANCH  19  21
ENDBRANCH   5  17
BRANCH   1  26
ATOM     25  C   UNL     1       0.653   3.189  20.301  0.00  0.00    +0.000 C 
ATOM     26  C   UNL     1       2.045   3.750  20.593  0.00  0.00    +0.000 C 
ATOM     27  C   UNL     1       2.930   2.723  21.299  0.00  0.00    +0.000 C 
ENDBRANCH   1  26
TORSDOF 4
ENDMDL
MODEL 4
REMARK VINA RESULT:      -7.6      3.178      4.710
REMARK  Name = 
REMARK  6 active torsions:
REMARK  status: ('A' for Active; 'I' for Inactive)
REMARK    1  A    between atoms: C_1  and  C_2
REMARK    2  A    between atoms: C_2  and  C_3
REMARK    3  A    between atoms: C_2  and  N_4
REMARK    4  A    between atoms: C_6  and  C_7
REMARK    5  A    between atoms: C_18  and  C_19
REMARK    6  A    between atoms: N_21  and  C_22
REMARK                            x       y       z     vdW  Elec       q    Type
REMARK                         _______ _______ _______ _____ _____    ______ ____
ROOT
ATOM      1  N   UNL     1       1.159   9.016  20.196  0.00  0.00    +0.000 N 
ATOM      2  N   UNL     1       1.597   7.796  19.826  0.00  0.00    +0.000 NA
ATOM      3  C   UNL     1       2.095   7.968  18.583  0.00  0.00    +0.000 A 
ATOM      4  C   UNL     1       1.772   9.258  18.098  0.00  0.00    +0.000 A 
ATOM      5  C   UNL     1       1.366   9.948  19.217  0.00  0.00    +0.000 A 
ENDROOT
BRANCH   3   6
ATOM      6  C   UNL     1       3.028   7.010  17.971  0.00  0.00    +0.000 A 
ATOM      7  C   UNL     1       2.721   5.647  18.042  0.00  0.00    +0.000 A 
ATOM      8  N   UNL     1       3.563   4.616  17.784  0.00  0.00    +0.000 NA
ATOM      9  C   UNL     1       4.814   5.020  17.581  0.00  0.00    +0.000 A 
ATOM     10  N   UNL     1       5.879   4.162  17.525  0.00  0.00    +0.000 N 
ATOM     11  C   UNL     1       7.045   4.880  17.554  0.00  0.00    +0.000 A 
ATOM     12  C   UNL     1       6.715   6.218  17.439  0.00  0.00    +0.000 A 
ATOM     13 CL   UNL     1       7.817   7.512  17.444  0.00  0.00    +0.000 Cl
ATOM     14  C   UNL     1       5.293   6.329  17.483  0.00  0.00    +0.000 A 
ATOM     15  C   UNL     1       4.334   7.367  17.569  0.00  0.00    +0.000 A 
ATOM     16  H   UNL     1       5.776   3.166  17.602  0.00  0.00    +0.000 HD
ENDBRANCH   3   6
BRANCH   5  17
ATOM     17  C   UNL     1       1.306  11.454  19.374  0.00  0.00    +0.000 C 
ATOM     18  C   UNL     1       2.105  12.248  18.320  0.00  0.00    +0.000 C 
ATOM     19  N   UNL     1       0.992  13.221  18.210  0.00  0.00    +0.000 NA
ATOM     20  C   UNL     1       0.086  12.155  18.740  0.00  0.00    +0.000 C 
BRANCH  19  21
ATOM     21  C   UNL     1       1.092  14.353  19.151  0.00  0.00    +0.000 C 
ATOM     22  C   UNL     1       2.027  15.483  18.675  0.00  0.00    +0.000 C 
ATOM     23  O   UNL     1       0.978  16.462  18.927  0.00  0.00    +0.000 OA
ATOM     24  C   UNL     1      -0.002  15.383  18.795  0.00  0.00    +0.000 C 
ENDBRANCH  19  21
ENDBRANCH   5  17
BRANCH   1  26
ATOM     25  C   UNL     1      -0.642   8.357  21.755  0.00  0.00    +0.000 C 
ATOM     26  C   UNL     1       0.557   9.272  21.506  0.00  0.00    +0.000 C 
ATOM     27  C   UNL     1       1.514   9.284  22.697  0.00  0.00    +0.000 C 
ENDBRANCH   1  26
TORSDOF 4
ENDMDL
MODEL 5
REMARK VINA RESULT:      -7.5      3.944      6.359
REMARK  Name = 
REMARK  6 active torsions:
REMARK  status: ('A' for Active; 'I' for Inactive)
REMARK    1  A    between atoms: C_1  and  C_2
REMARK    2  A    between atoms: C_2  and  C_3
REMARK    3  A    between atoms: C_2  and  N_4
REMARK    4  A    between atoms: C_6  and  C_7
REMARK    5  A    between atoms: C_18  and  C_19
REMARK    6  A    between atoms: N_21  and  C_22
REMARK                            x       y       z     vdW  Elec       q    Type
REMARK                         _______ _______ _______ _____ _____    ______ ____
ROOT
ATOM      1  N   UNL     1       0.511  10.584  20.328  0.00  0.00    +0.000 N 
ATOM      2  N   UNL     1       0.717   9.253  20.367  0.00  0.00    +0.000 NA
ATOM      3  C   UNL     1       1.457   8.983  19.270  0.00  0.00    +0.000 A 
ATOM      4  C   UNL     1       1.531  10.125  18.434  0.00  0.00    +0.000 A 
ATOM      5  C   UNL     1       1.100  11.158  19.235  0.00  0.00    +0.000 A 
ENDROOT
BRANCH   3   6
ATOM      6  C   UNL     1       2.240   7.746  19.133  0.00  0.00    +0.000 A 
ATOM      7  C   UNL     1       3.021   7.579  17.985  0.00  0.00    +0.000 A 
ATOM      8  N   UNL     1       3.588   6.424  17.555  0.00  0.00    +0.000 NA
ATOM      9  C   UNL     1       3.207   5.373  18.277  0.00  0.00    +0.000 A 
ATOM     10  N   UNL     1       3.461   4.080  17.907  0.00  0.00    +0.000 N 
ATOM     11  C   UNL     1       2.744   3.229  18.704  0.00  0.00    +0.000 A 
ATOM     12  C   UNL     1       2.172   3.982  19.713  0.00  0.00    +0.000 A 
ATOM     13 CL   UNL     1       1.168   3.385  20.947  0.00  0.00    +0.000 Cl
ATOM     14  C   UNL     1       2.434   5.359  19.439  0.00  0.00    +0.000 A 
ATOM     15  C   UNL     1       2.029   6.615  19.952  0.00  0.00    +0.000 A 
ATOM     16  H   UNL     1       3.982   3.845  17.080  0.00  0.00    +0.000 HD
ENDBRANCH   3   6
BRANCH   5  17
ATOM     17  C   UNL     1       1.359  12.634  19.017  0.00  0.00    +0.000 C 
ATOM     18  C   UNL     1       2.302  13.286  20.049  0.00  0.00    +0.000 C 
ATOM     19  N   UNL     1       2.976  14.032  18.961  0.00  0.00    +0.000 NA
ATOM     20  C   UNL     1       2.478  12.987  18.015  0.00  0.00    +0.000 C 
BRANCH  19  21
ATOM     21  C   UNL     1       2.371  15.347  18.673  0.00  0.00    +0.000 C 
ATOM     22  C   UNL     1       2.849  16.476  19.606  0.00  0.00    +0.000 C 
ATOM     23  O   UNL     1       3.156  17.308  18.450  0.00  0.00    +0.000 OA
ATOM     24  C   UNL     1       3.267  16.085  17.654  0.00  0.00    +0.000 C 
ENDBRANCH  19  21
ENDBRANCH   5  17
BRANCH   1  26
ATOM     25  C   UNL     1      -1.530  11.894  20.801  0.00  0.00    +0.000 C 
ATOM     26  C   UNL     1      -0.241  11.294  21.364  0.00  0.00    +0.000 C 
ATOM     27  C   UNL     1      -0.497  10.525  22.659  0.00  0.00    +0.000 C 
ENDBRANCH   1  26
TORSDOF 4
ENDMDL
MODEL 6
REMARK VINA RESULT:      -7.4      0.856      1.162
REMARK  Name = 
REMARK  6 active torsions:
REMARK  status: ('A' for Active; 'I' for Inactive)
REMARK    1  A    between atoms: C_1  and  C_2
REMARK    2  A    between atoms: C_2  and  C_3
REMARK    3  A    between atoms: C_2  and  N_4
REMARK    4  A    between atoms: C_6  and  C_7
REMARK    5  A    between atoms: C_18  and  C_19
REMARK    6  A    between atoms: N_21  and  C_22
REMARK                            x       y       z     vdW  Elec       q    Type
REMARK                         _______ _______ _______ _____ _____    ______ ____
ROOT
ATOM      1  N   UNL     1       2.833   4.065  19.151  0.00  0.00    +0.000 N 
ATOM      2  N   UNL     1       3.611   3.555  18.175  0.00  0.00    +0.000 NA
ATOM      3  C   UNL     1       4.067   4.630  17.497  0.00  0.00    +0.000 A 
ATOM      4  C   UNL     1       3.399   5.803  17.927  0.00  0.00    +0.000 A 
ATOM      5  C   UNL     1       2.787   5.431  19.103  0.00  0.00    +0.000 A 
ENDROOT
BRANCH   3   6
ATOM      6  C   UNL     1       5.249   4.566  16.624  0.00  0.00    +0.000 A 
ATOM      7  C   UNL     1       6.270   5.503  16.820  0.00  0.00    +0.000 A 
ATOM      8  N   UNL     1       7.290   5.774  15.969  0.00  0.00    +0.000 NA
ATOM      9  C   UNL     1       7.160   5.145  14.804  0.00  0.00    +0.000 A 
ATOM     10  N   UNL     1       7.932   5.429  13.710  0.00  0.00    +0.000 N 
ATOM     11  C   UNL     1       7.409   4.805  12.609  0.00  0.00    +0.000 A 
ATOM     12  C   UNL     1       6.400   3.965  13.044  0.00  0.00    +0.000 A 
ATOM     13 CL   UNL     1       5.430   2.986  12.049  0.00  0.00    +0.000 Cl
ATOM     14  C   UNL     1       6.208   4.190  14.440  0.00  0.00    +0.000 A 
ATOM     15  C   UNL     1       5.281   3.802  15.437  0.00  0.00    +0.000 A 
ATOM     16  H   UNL     1       8.670   6.110  13.730  0.00  0.00    +0.000 HD
ENDBRANCH   3   6
BRANCH   5  17
ATOM     17  C   UNL     1       2.295   6.360  20.194  0.00  0.00    +0.000 C 
ATOM     18  C   UNL     1       2.187   7.842  19.784  0.00  0.00    +0.000 C 
ATOM     19  N   UNL     1       0.894   7.946  20.500  0.00  0.00    +0.000 NA
ATOM     20  C   UNL     1       0.765   6.462  20.359  0.00  0.00    +0.000 C 
BRANCH  19  21
ATOM     21  C   UNL     1       1.024   8.339  21.916  0.00  0.00    +0.000 C 
ATOM     22  C   UNL     1       1.478   9.797  22.124  0.00  0.00    +0.000 C 
ATOM     23  O   UNL     1       0.367  10.017  23.041  0.00  0.00    +0.000 OA
ATOM     24  C   UNL     1      -0.331   8.906  22.393  0.00  0.00    +0.000 C 
ENDBRANCH  19  21
ENDBRANCH   5  17
BRANCH   1  26
ATOM     25  C   UNL     1       2.511   3.639  21.564  0.00  0.00    +0.000 C 
ATOM     26  C   UNL     1       2.154   3.222  20.137  0.00  0.00    +0.000 C 
ATOM     27  C   UNL     1       0.645   3.058  19.959  0.00  0.00    +0.000 C 
ENDBRANCH   1  26
TORSDOF 4
ENDMDL
MODEL 7
REMARK VINA RESULT:      -7.3      3.375      5.172
REMARK  Name = 
REMARK  6 active torsions:
REMARK  status: ('A' for Active; 'I' for Inactive)
REMARK    1  A    between atoms: C_1  and  C_2
REMARK    2  A    between atoms: C_2  and  C_3
REMARK    3  A    between atoms: C_2  and  N_4
REMARK    4  A    between atoms: C_6  and  C_7
REMARK    5  A    between atoms: C_18  and  C_19
REMARK    6  A    between atoms: N_21  and  C_22
REMARK                            x       y       z     vdW  Elec       q    Type
REMARK                         _______ _______ _______ _____ _____    ______ ____
ROOT
ATOM      1  N   UNL     1       1.181   9.607  19.986  0.00  0.00    +0.000 N 
ATOM      2  N   UNL     1       1.540   8.321  19.805  0.00  0.00    +0.000 NA
ATOM      3  C   UNL     1       1.977   8.258  18.529  0.00  0.00    +0.000 A 
ATOM      4  C   UNL     1       1.687   9.467  17.850  0.00  0.00    +0.000 A 
ATOM      5  C   UNL     1       1.376  10.353  18.856  0.00  0.00    +0.000 A 
ENDROOT
BRANCH   3   6
ATOM      6  C   UNL     1       2.829   7.163  18.041  0.00  0.00    +0.000 A 
ATOM      7  C   UNL     1       2.433   5.848  18.305  0.00  0.00    +0.000 A 
ATOM      8  N   UNL     1       3.198   4.735  18.180  0.00  0.00    +0.000 NA
ATOM      9  C   UNL     1       4.468   5.020  17.905  0.00  0.00    +0.000 A 
ATOM     10  N   UNL     1       5.471   4.090  17.955  0.00  0.00    +0.000 N 
ATOM     11  C   UNL     1       6.683   4.722  17.868  0.00  0.00    +0.000 A 
ATOM     12  C   UNL     1       6.441   6.052  17.573  0.00  0.00    +0.000 A 
ATOM     13 CL   UNL     1       7.627   7.254  17.385  0.00  0.00    +0.000 Cl
ATOM     14  C   UNL     1       5.031   6.266  17.622  0.00  0.00    +0.000 A 
ATOM     15  C   UNL     1       4.146   7.370  17.576  0.00  0.00    +0.000 A 
ATOM     16  H   UNL     1       5.304   3.123  18.170  0.00  0.00    +0.000 HD
ENDBRANCH   3   6
BRANCH   5  17
ATOM     17  C   UNL     1       1.395  11.865  18.762  0.00  0.00    +0.000 C 
ATOM     18  C   UNL     1       1.990  12.584  19.990  0.00  0.00    +0.000 C 
ATOM     19  N   UNL     1       2.707  13.521  19.093  0.00  0.00    +0.000 NA
ATOM     20  C   UNL     1       2.596  12.485  18.020  0.00  0.00    +0.000 C 
BRANCH  19  21
ATOM     21  C   UNL     1       1.934  14.730  18.750  0.00  0.00    +0.000 C 
ATOM     22  C   UNL     1       1.923  15.802  19.857  0.00  0.00    +0.000 C 
ATOM     23  O   UNL     1       2.328  16.813  18.889  0.00  0.00    +0.000 OA
ATOM     24  C   UNL     1       2.882  15.738  18.065  0.00  0.00    +0.000 C 
ENDBRANCH  19  21
ENDBRANCH   5  17
BRANCH   1  26
ATOM     25  C   UNL     1      -0.810  10.494  21.151  0.00  0.00    +0.000 C 
ATOM     26  C   UNL     1       0.665  10.108  21.261  0.00  0.00    +0.000 C 
ATOM     27  C   UNL     1       0.929   9.233  22.486  0.00  0.00    +0.000 C 
ENDBRANCH   1  26
TORSDOF 4
ENDMDL
MODEL 8
REMARK VINA RESULT:      -7.3      3.975      8.199
REMARK  Name = 
REMARK  6 active torsions:
REMARK  status: ('A' for Active; 'I' for Inactive)
REMARK    1  A    between atoms: C_1  and  C_2
REMARK    2  A    between atoms: C_2  and  C_3
REMARK    3  A    between atoms: C_2  and  N_4
REMARK    4  A    between atoms: C_6  and  C_7
REMARK    5  A    between atoms: C_18  and  C_19
REMARK    6  A    between atoms: N_21  and  C_22
REMARK                            x       y       z     vdW  Elec       q    Type
REMARK                         _______ _______ _______ _____ _____    ______ ____
ROOT
ATOM      1  N   UNL     1       2.687   5.978  19.074  0.00  0.00    +0.000 N 
ATOM      2  N   UNL     1       1.838   6.915  19.541  0.00  0.00    +0.000 NA
ATOM      3  C   UNL     1       2.169   8.044  18.878  0.00  0.00    +0.000 A 
ATOM      4  C   UNL     1       3.370   7.854  18.151  0.00  0.00    +0.000 A 
ATOM      5  C   UNL     1       3.544   6.489  18.139  0.00  0.00    +0.000 A 
ENDROOT
BRANCH   3   6
ATOM      6  C   UNL     1       1.256   9.192  18.775  0.00  0.00    +0.000 A 
ATOM      7  C   UNL     1       1.038   9.971  19.917  0.00  0.00    +0.000 A 
ATOM      8  N   UNL     1       0.051  10.884  20.094  0.00  0.00    +0.000 NA
ATOM      9  C   UNL     1      -0.828  10.883  19.096  0.00  0.00    +0.000 A 
ATOM     10  N   UNL     1      -2.023  11.547  19.150  0.00  0.00    +0.000 N 
ATOM     11  C   UNL     1      -2.806  11.163  18.094  0.00  0.00    +0.000 A 
ATOM     12  C   UNL     1      -2.028  10.384  17.257  0.00  0.00    +0.000 A 
ATOM     13 CL   UNL     1      -2.552   9.650  15.817  0.00  0.00    +0.000 Cl
ATOM     14  C   UNL     1      -0.769  10.171  17.895  0.00  0.00    +0.000 A 
ATOM     15  C   UNL     1       0.384   9.379  17.680  0.00  0.00    +0.000 A 
ATOM     16  H   UNL     1      -2.297  12.106  19.938  0.00  0.00    +0.000 HD
ENDBRANCH   3   6
BRANCH   5  17
ATOM     17  C   UNL     1       4.407   5.700  17.175  0.00  0.00    +0.000 C 
ATOM     18  C   UNL     1       4.810   6.461  15.895  0.00  0.00    +0.000 C 
ATOM     19  N   UNL     1       6.183   5.911  16.002  0.00  0.00    +0.000 NA
ATOM     20  C   UNL     1       5.923   5.705  17.460  0.00  0.00    +0.000 C 
BRANCH  19  21
ATOM     21  C   UNL     1       6.368   4.624  15.305  0.00  0.00    +0.000 C 
ATOM     22  C   UNL     1       5.413   4.412  14.113  0.00  0.00    +0.000 C 
ATOM     23  O   UNL     1       6.546   4.073  13.261  0.00  0.00    +0.000 OA
ATOM     24  C   UNL     1       7.405   4.822  14.178  0.00  0.00    +0.000 C 
ENDBRANCH  19  21
ENDBRANCH   5  17
BRANCH   1  26
ATOM     25  C   UNL     1       2.344   4.498  21.023  0.00  0.00    +0.000 C 
ATOM     26  C   UNL     1       2.649   4.586  19.528  0.00  0.00    +0.000 C 
ATOM     27  C   UNL     1       1.769   3.636  18.716  0.00  0.00    +0.000 C 
ENDBRANCH   1  26
TORSDOF 4
ENDMDL
MODEL 9
REMARK VINA RESULT:      -7.2      3.706      6.122
REMARK  Name = 
REMARK  6 active torsions:
REMARK  status: ('A' for Active; 'I' for Inactive)
REMARK    1  A    between atoms: C_1  and  C_2
REMARK    2  A    between atoms: C_2  and  C_3
REMARK    3  A    between atoms: C_2  and  N_4
REMARK    4  A    between atoms: C_6  and  C_7
REMARK    5  A    between atoms: C_18  and  C_19
REMARK    6  A    between atoms: N_21  and  C_22
REMARK                            x       y       z     vdW  Elec       q    Type
REMARK                         _______ _______ _______ _____ _____    ______ ____
ROOT
ATOM      1  N   UNL     1       0.461  10.781  20.383  0.00  0.00    +0.000 N 
ATOM      2  N   UNL     1       0.472   9.437  20.276  0.00  0.00    +0.000 NA
ATOM      3  C   UNL     1       1.281   9.179  19.226  0.00  0.00    +0.000 A 
ATOM      4  C   UNL     1       1.605  10.380  18.548  0.00  0.00    +0.000 A 
ATOM      5  C   UNL     1       1.239  11.373  19.427  0.00  0.00    +0.000 A 
ENDROOT
BRANCH   3   6
ATOM      6  C   UNL     1       1.893   7.859  19.009  0.00  0.00    +0.000 A 
ATOM      7  C   UNL     1       2.034   7.006  20.109  0.00  0.00    +0.000 A 
ATOM      8  N   UNL     1       2.798   5.886  20.168  0.00  0.00    +0.000 NA
ATOM      9  C   UNL     1       3.554   5.729  19.085  0.00  0.00    +0.000 A 
ATOM     10  N   UNL     1       4.564   4.810  19.004  0.00  0.00    +0.000 N 
ATOM     11  C   UNL     1       5.310   5.049  17.881  0.00  0.00    +0.000 A 
ATOM     12  C   UNL     1       4.654   6.017  17.142  0.00  0.00    +0.000 A 
ATOM     13 CL   UNL     1       5.193   6.671  15.669  0.00  0.00    +0.000 Cl
ATOM     14  C   UNL     1       3.545   6.484  17.910  0.00  0.00    +0.000 A 
ATOM     15  C   UNL     1       2.589   7.525  17.827  0.00  0.00    +0.000 A 
ATOM     16  H   UNL     1       4.776   4.171  19.750  0.00  0.00    +0.000 HD
ENDBRANCH   3   6
BRANCH   5  17
ATOM     17  C   UNL     1       1.725  12.808  19.418  0.00  0.00    +0.000 C 
ATOM     18  C   UNL     1       2.776  13.129  18.336  0.00  0.00    +0.000 C 
ATOM     19  N   UNL     1       2.093  14.414  18.055  0.00  0.00    +0.000 NA
ATOM     20  C   UNL     1       0.854  13.816  18.640  0.00  0.00    +0.000 C 
BRANCH  19  21
ATOM     21  C   UNL     1       2.580  15.542  18.873  0.00  0.00    +0.000 C 
ATOM     22  C   UNL     1       3.977  16.053  18.469  0.00  0.00    +0.000 C 
ATOM     23  O   UNL     1       3.465  17.416  18.411  0.00  0.00    +0.000 OA
ATOM     24  C   UNL     1       2.127  16.860  18.208  0.00  0.00    +0.000 C 
ENDBRANCH  19  21
ENDBRANCH   5  17
BRANCH   1  26
ATOM     25  C   UNL     1      -1.574  12.096  20.867  0.00  0.00    +0.000 C 
ATOM     26  C   UNL     1      -0.292  11.480  21.426  0.00  0.00    +0.000 C 
ATOM     27  C   UNL     1      -0.558  10.693  22.709  0.00  0.00    +0.000 C 
ENDBRANCH   1  26
TORSDOF 4
ENDMDL
