MODEL 1
REMARK VINA RESULT:      -6.5      0.000      0.000
REMARK  Name = 
REMARK  2 active torsions:
REMARK  status: ('A' for Active; 'I' for Inactive)
REMARK    1  A    between atoms: N_3  and  C_4
REMARK    2  A    between atoms: N_11  and  N_12
REMARK                            x       y       z     vdW  Elec       q    Type
REMARK                         _______ _______ _______ _____ _____    ______ ____
ROOT
ATOM      1  O   UNL     1       4.041   4.981  19.192  0.00  0.00    +0.000 OA
ATOM      2  C   UNL     1       4.782   4.078  18.818  0.00  0.00    +0.000 C 
ATOM      3  N   UNL     1       6.096   4.236  18.417  0.00  0.00    +0.000 N 
ATOM      4  N   UNL     1       4.352   2.779  18.692  0.00  0.00    +0.000 N 
ATOM      5  H   UNL     1       6.560   3.423  18.041  0.00  0.00    +0.000 HD
ATOM      6  H   UNL     1       4.979   2.010  18.527  0.00  0.00    +0.000 HD
ENDROOT
BRANCH   3   7
ATOM      7  C   UNL     1       6.794   5.459  18.303  0.00  0.00    +0.000 A 
ATOM      8  C   UNL     1       7.839   5.839  19.150  0.00  0.00    +0.000 A 
ATOM      9  C   UNL     1       8.433   7.101  19.038  0.00  0.00    +0.000 A 
ATOM     10  C   UNL     1       7.990   7.990  18.065  0.00  0.00    +0.000 A 
ATOM     11 CL   UNL     1       8.691   9.556  17.955  0.00  0.00    +0.000 Cl
ATOM     12  C   UNL     1       6.977   7.615  17.187  0.00  0.00    +0.000 A 
ATOM     13  C   UNL     1       6.387   6.350  17.300  0.00  0.00    +0.000 A 
ENDBRANCH   3   7
BRANCH   4  14
ATOM     14  N   UNL     1       3.075   2.453  19.024  0.00  0.00    +0.000 N 
ATOM     15  C   UNL     1       2.516   2.455  20.264  0.00  0.00    +0.000 A 
ATOM     16  N   UNL     1       1.220   2.275  20.148  0.00  0.00    +0.000 NA
ATOM     17  N   UNL     1       0.928   2.174  18.798  0.00  0.00    +0.000 NA
ATOM     18  C   UNL     1       2.060   2.293  18.138  0.00  0.00    +0.000 A 
ENDBRANCH   4  14
TORSDOF 2
ENDMDL
MODEL 2
REMARK VINA RESULT:      -6.4      4.014      6.793
REMARK  Name = 
REMARK  2 active torsions:
REMARK  status: ('A' for Active; 'I' for Inactive)
REMARK    1  A    between atoms: N_3  and  C_4
REMARK    2  A    between atoms: N_11  and  N_12
REMARK                            x       y       z     vdW  Elec       q    Type
REMARK                         _______ _______ _______ _____ _____    ______ ____
ROOT
ATOM      1  O   UNL     1       4.666   4.608  16.943  0.00  0.00    +0.000 OA
ATOM      2  C   UNL     1       4.939   3.440  16.683  0.00  0.00    +0.000 C 
ATOM      3  N   UNL     1       4.428   2.334  17.336  0.00  0.00    +0.000 N 
ATOM      4  N   UNL     1       5.862   3.098  15.724  0.00  0.00    +0.000 N 
ATOM      5  H   UNL     1       4.812   1.436  17.083  0.00  0.00    +0.000 HD
ATOM      6  H   UNL     1       5.989   2.154  15.401  0.00  0.00    +0.000 HD
ENDROOT
BRANCH   3   7
ATOM      7  C   UNL     1       3.560   2.348  18.452  0.00  0.00    +0.000 A 
ATOM      8  C   UNL     1       2.167   2.318  18.352  0.00  0.00    +0.000 A 
ATOM      9  C   UNL     1       1.362   2.422  19.493  0.00  0.00    +0.000 A 
ATOM     10  C   UNL     1       1.952   2.544  20.746  0.00  0.00    +0.000 A 
ATOM     11 CL   UNL     1       0.964   2.713  22.143  0.00  0.00    +0.000 Cl
ATOM     12  C   UNL     1       3.339   2.537  20.868  0.00  0.00    +0.000 A 
ATOM     13  C   UNL     1       4.141   2.430  19.725  0.00  0.00    +0.000 A 
ENDBRANCH   3   7
BRANCH   4  14
ATOM     14  N   UNL     1       6.478   4.069  15.000  0.00  0.00    +0.000 N 
ATOM     15  C   UNL     1       7.448   4.925  15.421  0.00  0.00    +0.000 A 
ATOM     16  N   UNL     1       7.923   5.574  14.382  0.00  0.00    +0.000 NA
ATOM     17  N   UNL     1       7.261   5.113  13.258  0.00  0.00    +0.000 NA
ATOM     18  C   UNL     1       6.399   4.200  13.652  0.00  0.00    +0.000 A 
ENDBRANCH   4  14
TORSDOF 2
ENDMDL
MODEL 3
REMARK VINA RESULT:      -6.3      4.536      5.967
REMARK  Name = 
REMARK  2 active torsions:
REMARK  status: ('A' for Active; 'I' for Inactive)
REMARK    1  A    between atoms: N_3  and  C_4
REMARK    2  A    between atoms: N_11  and  N_12
REMARK                            x       y       z     vdW  Elec       q    Type
REMARK                         _______ _______ _______ _____ _____    ______ ____
ROOT
ATOM      1  O   UNL     1       4.843   7.194  17.422  0.00  0.00    +0.000 OA
ATOM      2  C   UNL     1       4.149   6.224  17.708  0.00  0.00    +0.000 C 
ATOM      3  N   UNL     1       2.917   6.279  18.335  0.00  0.00    +0.000 N 
ATOM      4  N   UNL     1       4.563   4.933  17.487  0.00  0.00    +0.000 N 
ATOM      5  H   UNL     1       2.499   5.399  18.598  0.00  0.00    +0.000 HD
ATOM      6  H   UNL     1       3.952   4.140  17.581  0.00  0.00    +0.000 HD
ENDROOT
BRANCH   3   7
ATOM      7  C   UNL     1       2.273   7.443  18.814  0.00  0.00    +0.000 A 
ATOM      8  C   UNL     1       1.886   7.624  20.144  0.00  0.00    +0.000 A 
ATOM      9  C   UNL     1       1.175   8.763  20.537  0.00  0.00    +0.000 A 
ATOM     10  C   UNL     1       0.857   9.738  19.598  0.00  0.00    +0.000 A 
ATOM     11 CL   UNL     1      -0.052  11.117  20.072  0.00  0.00    +0.000 Cl
ATOM     12  C   UNL     1       1.268   9.593  18.276  0.00  0.00    +0.000 A 
ATOM     13  C   UNL     1       1.982   8.453  17.887  0.00  0.00    +0.000 A 
ENDBRANCH   3   7
BRANCH   4  14
ATOM     14  N   UNL     1       5.764   4.699  16.897  0.00  0.00    +0.000 N 
ATOM     15  C   UNL     1       6.078   4.822  15.579  0.00  0.00    +0.000 A 
ATOM     16  N   UNL     1       7.378   4.700  15.437  0.00  0.00    +0.000 NA
ATOM     17  N   UNL     1       7.924   4.516  16.695  0.00  0.00    +0.000 NA
ATOM     18  C   UNL     1       6.935   4.526  17.562  0.00  0.00    +0.000 A 
ENDBRANCH   4  14
TORSDOF 2
ENDMDL
MODEL 4
REMARK VINA RESULT:      -6.3      4.147      6.720
REMARK  Name = 
REMARK  2 active torsions:
REMARK  status: ('A' for Active; 'I' for Inactive)
REMARK    1  A    between atoms: N_3  and  C_4
REMARK    2  A    between atoms: N_11  and  N_12
REMARK                            x       y       z     vdW  Elec       q    Type
REMARK                         _______ _______ _______ _____ _____    ______ ____
ROOT
ATOM      1  O   UNL     1       4.718   4.721  16.551  0.00  0.00    +0.000 OA
ATOM      2  C   UNL     1       5.006   3.537  16.411  0.00  0.00    +0.000 C 
ATOM      3  N   UNL     1       4.543   2.502  17.202  0.00  0.00    +0.000 N 
ATOM      4  N   UNL     1       5.900   3.106  15.460  0.00  0.00    +0.000 N 
ATOM      5  H   UNL     1       4.936   1.588  17.035  0.00  0.00    +0.000 HD
ATOM      6  H   UNL     1       6.035   2.134  15.239  0.00  0.00    +0.000 HD
ENDROOT
BRANCH   3   7
ATOM      7  C   UNL     1       3.717   2.626  18.343  0.00  0.00    +0.000 A 
ATOM      8  C   UNL     1       4.171   3.083  19.583  0.00  0.00    +0.000 A 
ATOM      9  C   UNL     1       3.323   3.101  20.696  0.00  0.00    +0.000 A 
ATOM     10  C   UNL     1       2.007   2.670  20.570  0.00  0.00    +0.000 A 
ATOM     11 CL   UNL     1       0.978   2.653  21.947  0.00  0.00    +0.000 Cl
ATOM     12  C   UNL     1       1.526   2.248  19.334  0.00  0.00    +0.000 A 
ATOM     13  C   UNL     1       2.377   2.234  18.221  0.00  0.00    +0.000 A 
ENDBRANCH   3   7
BRANCH   4  14
ATOM     14  N   UNL     1       6.468   4.001  14.610  0.00  0.00    +0.000 N 
ATOM     15  C   UNL     1       7.353   4.988  14.917  0.00  0.00    +0.000 A 
ATOM     16  N   UNL     1       7.817   5.506  13.802  0.00  0.00    +0.000 NA
ATOM     17  N   UNL     1       7.236   4.825  12.747  0.00  0.00    +0.000 NA
ATOM     18  C   UNL     1       6.431   3.916  13.256  0.00  0.00    +0.000 A 
ENDBRANCH   4  14
TORSDOF 2
ENDMDL
MODEL 5
REMARK VINA RESULT:      -6.3      4.480      6.049
REMARK  Name = 
REMARK  2 active torsions:
REMARK  status: ('A' for Active; 'I' for Inactive)
REMARK    1  A    between atoms: N_3  and  C_4
REMARK    2  A    between atoms: N_11  and  N_12
REMARK                            x       y       z     vdW  Elec       q    Type
REMARK                         _______ _______ _______ _____ _____    ______ ____
ROOT
ATOM      1  O   UNL     1       4.926   7.182  17.532  0.00  0.00    +0.000 OA
ATOM      2  C   UNL     1       4.138   6.243  17.531  0.00  0.00    +0.000 C 
ATOM      3  N   UNL     1       2.832   6.294  17.983  0.00  0.00    +0.000 N 
ATOM      4  N   UNL     1       4.500   4.980  17.127  0.00  0.00    +0.000 N 
ATOM      5  H   UNL     1       2.325   5.422  18.015  0.00  0.00    +0.000 HD
ATOM      6  H   UNL     1       3.833   4.241  16.984  0.00  0.00    +0.000 HD
ENDROOT
BRANCH   3   7
ATOM      7  C   UNL     1       2.197   7.405  18.583  0.00  0.00    +0.000 A 
ATOM      8  C   UNL     1       1.803   8.546  17.880  0.00  0.00    +0.000 A 
ATOM      9  C   UNL     1       1.256   9.649  18.546  0.00  0.00    +0.000 A 
ATOM     10  C   UNL     1       1.090   9.609  19.926  0.00  0.00    +0.000 A 
ATOM     11 CL   UNL     1       0.458  10.979  20.750  0.00  0.00    +0.000 Cl
ATOM     12  C   UNL     1       1.441   8.466  20.639  0.00  0.00    +0.000 A 
ATOM     13  C   UNL     1       1.984   7.363  19.968  0.00  0.00    +0.000 A 
ENDBRANCH   3   7
BRANCH   4  14
ATOM     14  N   UNL     1       5.759   4.750  16.672  0.00  0.00    +0.000 N 
ATOM     15  C   UNL     1       6.227   4.925  15.406  0.00  0.00    +0.000 A 
ATOM     16  N   UNL     1       7.534   4.785  15.413  0.00  0.00    +0.000 NA
ATOM     17  N   UNL     1       7.925   4.535  16.717  0.00  0.00    +0.000 NA
ATOM     18  C   UNL     1       6.840   4.526  17.461  0.00  0.00    +0.000 A 
ENDBRANCH   4  14
TORSDOF 2
ENDMDL
MODEL 6
REMARK VINA RESULT:      -6.0      2.872      3.454
REMARK  Name = 
REMARK  2 active torsions:
REMARK  status: ('A' for Active; 'I' for Inactive)
REMARK    1  A    between atoms: N_3  and  C_4
REMARK    2  A    between atoms: N_11  and  N_12
REMARK                            x       y       z     vdW  Elec       q    Type
REMARK                         _______ _______ _______ _____ _____    ______ ____
ROOT
ATOM      1  O   UNL     1       3.429   4.560  17.529  0.00  0.00    +0.000 OA
ATOM      2  C   UNL     1       4.321   3.916  18.071  0.00  0.00    +0.000 C 
ATOM      3  N   UNL     1       5.577   3.684  17.541  0.00  0.00    +0.000 N 
ATOM      4  N   UNL     1       4.139   3.282  19.277  0.00  0.00    +0.000 N 
ATOM      5  H   UNL     1       6.179   3.057  18.052  0.00  0.00    +0.000 HD
ATOM      6  H   UNL     1       4.897   2.876  19.799  0.00  0.00    +0.000 HD
ENDROOT
BRANCH   3   7
ATOM      7  C   UNL     1       6.033   4.085  16.265  0.00  0.00    +0.000 A 
ATOM      8  C   UNL     1       5.613   3.494  15.070  0.00  0.00    +0.000 A 
ATOM      9  C   UNL     1       6.167   3.878  13.844  0.00  0.00    +0.000 A 
ATOM     10  C   UNL     1       7.141   4.870  13.806  0.00  0.00    +0.000 A 
ATOM     11 CL   UNL     1       7.852   5.313  12.305  0.00  0.00    +0.000 Cl
ATOM     12  C   UNL     1       7.544   5.497  14.982  0.00  0.00    +0.000 A 
ATOM     13  C   UNL     1       6.985   5.112  16.207  0.00  0.00    +0.000 A 
ENDBRANCH   3   7
BRANCH   4  14
ATOM     14  N   UNL     1       2.951   3.389  19.926  0.00  0.00    +0.000 N 
ATOM     15  C   UNL     1       2.455   4.479  20.572  0.00  0.00    +0.000 A 
ATOM     16  N   UNL     1       1.203   4.250  20.897  0.00  0.00    +0.000 NA
ATOM     17  N   UNL     1       0.871   2.989  20.431  0.00  0.00    +0.000 NA
ATOM     18  C   UNL     1       1.937   2.491  19.842  0.00  0.00    +0.000 A 
ENDBRANCH   4  14
TORSDOF 2
ENDMDL
MODEL 7
REMARK VINA RESULT:      -6.0      2.766      3.507
REMARK  Name = 
REMARK  2 active torsions:
REMARK  status: ('A' for Active; 'I' for Inactive)
REMARK    1  A    between atoms: N_3  and  C_4
REMARK    2  A    between atoms: N_11  and  N_12
REMARK                            x       y       z     vdW  Elec       q    Type
REMARK                         _______ _______ _______ _____ _____    ______ ____
ROOT
ATOM      1  O   UNL     1       4.155   4.642  18.401  0.00  0.00    +0.000 OA
ATOM      2  C   UNL     1       4.181   3.453  18.101  0.00  0.00    +0.000 C 
ATOM      3  N   UNL     1       4.858   2.914  17.022  0.00  0.00    +0.000 N 
ATOM      4  N   UNL     1       3.465   2.506  18.793  0.00  0.00    +0.000 N 
ATOM      5  H   UNL     1       4.715   1.933  16.837  0.00  0.00    +0.000 HD
ATOM      6  H   UNL     1       3.590   1.517  18.652  0.00  0.00    +0.000 HD
ENDROOT
BRANCH   3   7
ATOM      7  C   UNL     1       5.577   3.635  16.042  0.00  0.00    +0.000 A 
ATOM      8  C   UNL     1       5.245   3.643  14.685  0.00  0.00    +0.000 A 
ATOM      9  C   UNL     1       6.048   4.307  13.751  0.00  0.00    +0.000 A 
ATOM     10  C   UNL     1       7.188   4.981  14.176  0.00  0.00    +0.000 A 
ATOM     11 CL   UNL     1       8.198   5.762  13.025  0.00  0.00    +0.000 Cl
ATOM     12  C   UNL     1       7.514   5.017  15.529  0.00  0.00    +0.000 A 
ATOM     13  C   UNL     1       6.706   4.353  16.460  0.00  0.00    +0.000 A 
ENDBRANCH   3   7
BRANCH   4  14
ATOM     14  N   UNL     1       2.725   2.870  19.872  0.00  0.00    +0.000 N 
ATOM     15  C   UNL     1       1.411   3.223  19.894  0.00  0.00    +0.000 A 
ATOM     16  N   UNL     1       1.015   3.313  21.143  0.00  0.00    +0.000 NA
ATOM     17  N   UNL     1       2.091   2.990  21.951  0.00  0.00    +0.000 NA
ATOM     18  C   UNL     1       3.110   2.718  21.164  0.00  0.00    +0.000 A 
ENDBRANCH   4  14
TORSDOF 2
ENDMDL
MODEL 8
REMARK VINA RESULT:      -5.9      2.885      3.319
REMARK  Name = 
REMARK  2 active torsions:
REMARK  status: ('A' for Active; 'I' for Inactive)
REMARK    1  A    between atoms: N_3  and  C_4
REMARK    2  A    between atoms: N_11  and  N_12
REMARK                            x       y       z     vdW  Elec       q    Type
REMARK                         _______ _______ _______ _____ _____    ______ ____
ROOT
ATOM      1  O   UNL     1       3.506   4.651  17.435  0.00  0.00    +0.000 OA
ATOM      2  C   UNL     1       4.356   4.055  18.089  0.00  0.00    +0.000 C 
ATOM      3  N   UNL     1       5.656   3.817  17.684  0.00  0.00    +0.000 N 
ATOM      4  N   UNL     1       4.078   3.487  19.309  0.00  0.00    +0.000 N 
ATOM      5  H   UNL     1       6.220   3.230  18.280  0.00  0.00    +0.000 HD
ATOM      6  H   UNL     1       4.793   3.125  19.918  0.00  0.00    +0.000 HD
ENDROOT
BRANCH   3   7
ATOM      7  C   UNL     1       6.216   4.152  16.430  0.00  0.00    +0.000 A 
ATOM      8  C   UNL     1       7.190   5.139  16.254  0.00  0.00    +0.000 A 
ATOM      9  C   UNL     1       7.642   5.484  14.975  0.00  0.00    +0.000 A 
ATOM     10  C   UNL     1       7.128   4.829  13.861  0.00  0.00    +0.000 A 
ATOM     11 CL   UNL     1       7.652   5.281  12.287  0.00  0.00    +0.000 Cl
ATOM     12  C   UNL     1       6.186   3.817  14.019  0.00  0.00    +0.000 A 
ATOM     13  C   UNL     1       5.738   3.473  15.301  0.00  0.00    +0.000 A 
ENDBRANCH   3   7
BRANCH   4  14
ATOM     14  N   UNL     1       2.836   3.609  19.846  0.00  0.00    +0.000 N 
ATOM     15  C   UNL     1       2.310   4.693  20.478  0.00  0.00    +0.000 A 
ATOM     16  N   UNL     1       1.027   4.490  20.675  0.00  0.00    +0.000 NA
ATOM     17  N   UNL     1       0.709   3.254  20.139  0.00  0.00    +0.000 NA
ATOM     18  C   UNL     1       1.812   2.743  19.637  0.00  0.00    +0.000 A 
ENDBRANCH   4  14
TORSDOF 2
ENDMDL
MODEL 9
REMARK VINA RESULT:      -5.9      5.047      5.731
REMARK  Name = 
REMARK  2 active torsions:
REMARK  status: ('A' for Active; 'I' for Inactive)
REMARK    1  A    between atoms: N_3  and  C_4
REMARK    2  A    between atoms: N_11  and  N_12
REMARK                            x       y       z     vdW  Elec       q    Type
REMARK                         _______ _______ _______ _____ _____    ______ ____
ROOT
ATOM      1  O   UNL     1       2.012   7.994  18.982  0.00  0.00    +0.000 OA
ATOM      2  C   UNL     1       2.318   7.212  19.875  0.00  0.00    +0.000 C 
ATOM      3  N   UNL     1       3.106   6.086  19.717  0.00  0.00    +0.000 N 
ATOM      4  N   UNL     1       1.845   7.340  21.159  0.00  0.00    +0.000 N 
ATOM      5  H   UNL     1       3.199   5.478  20.517  0.00  0.00    +0.000 HD
ATOM      6  H   UNL     1       2.199   6.797  21.928  0.00  0.00    +0.000 HD
ENDROOT
BRANCH   3   7
ATOM      7  C   UNL     1       3.637   5.601  18.501  0.00  0.00    +0.000 A 
ATOM      8  C   UNL     1       3.406   4.312  18.012  0.00  0.00    +0.000 A 
ATOM      9  C   UNL     1       4.031   3.864  16.842  0.00  0.00    +0.000 A 
ATOM     10  C   UNL     1       4.886   4.712  16.147  0.00  0.00    +0.000 A 
ATOM     11 CL   UNL     1       5.687   4.147  14.734  0.00  0.00    +0.000 Cl
ATOM     12  C   UNL     1       5.098   6.012  16.598  0.00  0.00    +0.000 A 
ATOM     13  C   UNL     1       4.468   6.458  17.767  0.00  0.00    +0.000 A 
ENDBRANCH   3   7
BRANCH   4  14
ATOM     14  N   UNL     1       1.037   8.383  21.481  0.00  0.00    +0.000 N 
ATOM     15  C   UNL     1      -0.315   8.368  21.631  0.00  0.00    +0.000 A 
ATOM     16  N   UNL     1      -0.701   9.518  22.136  0.00  0.00    +0.000 NA
ATOM     17  N   UNL     1       0.430  10.290  22.339  0.00  0.00    +0.000 NA
ATOM     18  C   UNL     1       1.468   9.584  21.944  0.00  0.00    +0.000 A 
ENDBRANCH   4  14
TORSDOF 2
ENDMDL
