MODEL 1
REMARK VINA RESULT:     -10.0      0.000      0.000
REMARK  Name = 
REMARK  3 active torsions:
REMARK  status: ('A' for Active; 'I' for Inactive)
REMARK    1  A    between atoms: C_1  and  C_2
REMARK    2  A    between atoms: C_4  and  N_5
REMARK    3  A    between atoms: N_5  and  C_6
REMARK                            x       y       z     vdW  Elec       q    Type
REMARK                         _______ _______ _______ _____ _____    ______ ____
ROOT
ATOM      1  C   UNL     1       2.999   6.255  18.561  0.00  0.00    +0.000 A 
ATOM      2  C   UNL     1       2.986   7.280  17.611  0.00  0.00    +0.000 A 
ATOM      3  C   UNL     1       2.339   8.492  17.871  0.00  0.00    +0.000 A 
ATOM      4  C   UNL     1       1.693   8.716  19.095  0.00  0.00    +0.000 A 
ATOM      5  C   UNL     1       1.056   9.937  19.373  0.00  0.00    +0.000 A 
ATOM      6  C   UNL     1       0.420  10.168  20.604  0.00  0.00    +0.000 A 
ATOM      7  C   UNL     1      -0.206  11.396  20.882  0.00  0.00    +0.000 A 
ATOM      8  C   UNL     1      -0.832  11.618  22.109  0.00  0.00    +0.000 A 
ATOM      9  C   UNL     1      -0.841  10.615  23.072  0.00  0.00    +0.000 A 
ATOM     10  C   UNL     1      -0.220   9.387  22.811  0.00  0.00    +0.000 A 
ATOM     11  C   UNL     1       0.415   9.153  21.581  0.00  0.00    +0.000 A 
ATOM     12  C   UNL     1       1.048   7.926  21.297  0.00  0.00    +0.000 A 
ATOM     13  C   UNL     1       1.690   7.697  20.067  0.00  0.00    +0.000 A 
ATOM     14  C   UNL     1       2.337   6.477  19.780  0.00  0.00    +0.000 A 
ENDROOT
BRANCH   1  15
ATOM     15  N   UNL     1       3.610   5.030  18.224  0.00  0.00    +0.000 N 
ATOM     16  H   UNL     1       2.979   4.230  18.182  0.00  0.00    +0.000 HD
BRANCH  15  20
ATOM     17  C   UNL     1       6.400   4.094  14.240  0.00  0.00    +0.000 C 
ATOM     18  C   UNL     1       6.307   4.414  15.708  0.00  0.00    +0.000 A 
ATOM     19  C   UNL     1       4.936   4.543  16.276  0.00  0.00    +0.000 A 
ATOM     20  C   UNL     1       4.826   4.844  17.582  0.00  0.00    +0.000 A 
ATOM     21  N   UNL     1       6.022   5.026  18.312  0.00  0.00    +0.000 N 
ATOM     22  N   UNL     1       6.191   5.349  19.626  0.00  0.00    +0.000 NA
ATOM     23  C   UNL     1       7.520   5.334  19.742  0.00  0.00    +0.000 A 
ATOM     24  N   UNL     1       8.218   5.056  18.608  0.00  0.00    +0.000 NA
ATOM     25  C   UNL     1       7.278   4.867  17.707  0.00  0.00    +0.000 A 
ATOM     26  N   UNL     1       7.410   4.559  16.383  0.00  0.00    +0.000 NA
ENDBRANCH  15  20
ENDBRANCH   1  15
TORSDOF 2
ENDMDL
MODEL 2
REMARK VINA RESULT:      -9.5      0.925      2.239
REMARK  Name = 
REMARK  3 active torsions:
REMARK  status: ('A' for Active; 'I' for Inactive)
REMARK    1  A    between atoms: C_1  and  C_2
REMARK    2  A    between atoms: C_4  and  N_5
REMARK    3  A    between atoms: N_5  and  C_6
REMARK                            x       y       z     vdW  Elec       q    Type
REMARK                         _______ _______ _______ _____ _____    ______ ____
ROOT
ATOM      1  C   UNL     1       2.987   6.691  18.477  0.00  0.00    +0.000 A 
ATOM      2  C   UNL     1       2.848   7.727  17.548  0.00  0.00    +0.000 A 
ATOM      3  C   UNL     1       2.104   8.871  17.854  0.00  0.00    +0.000 A 
ATOM      4  C   UNL     1       1.485   9.016  19.103  0.00  0.00    +0.000 A 
ATOM      5  C   UNL     1       0.751  10.169  19.427  0.00  0.00    +0.000 A 
ATOM      6  C   UNL     1       0.141  10.321  20.683  0.00  0.00    +0.000 A 
ATOM      7  C   UNL     1      -0.582  11.483  21.007  0.00  0.00    +0.000 A 
ATOM      8  C   UNL     1      -1.181  11.626  22.258  0.00  0.00    +0.000 A 
ATOM      9  C   UNL     1      -1.065  10.611  23.202  0.00  0.00    +0.000 A 
ATOM     10  C   UNL     1      -0.347   9.449  22.895  0.00  0.00    +0.000 A 
ATOM     11  C   UNL     1       0.262   9.293  21.639  0.00  0.00    +0.000 A 
ATOM     12  C   UNL     1       0.992   8.134  21.310  0.00  0.00    +0.000 A 
ATOM     13  C   UNL     1       1.608   7.984  20.054  0.00  0.00    +0.000 A 
ATOM     14  C   UNL     1       2.351   6.833  19.721  0.00  0.00    +0.000 A 
ENDROOT
BRANCH   1  15
ATOM     15  N   UNL     1       3.692   5.532  18.095  0.00  0.00    +0.000 N 
ATOM     16  H   UNL     1       3.146   4.845  17.575  0.00  0.00    +0.000 HD
BRANCH  15  20
ATOM     17  C   UNL     1       8.284   5.458  19.952  0.00  0.00    +0.000 C 
ATOM     18  C   UNL     1       7.363   5.299  18.772  0.00  0.00    +0.000 A 
ATOM     19  C   UNL     1       5.913   5.533  19.022  0.00  0.00    +0.000 A 
ATOM     20  C   UNL     1       5.068   5.381  17.988  0.00  0.00    +0.000 A 
ATOM     21  N   UNL     1       5.620   5.001  16.744  0.00  0.00    +0.000 N 
ATOM     22  N   UNL     1       4.993   4.767  15.556  0.00  0.00    +0.000 NA
ATOM     23  C   UNL     1       6.024   4.493  14.753  0.00  0.00    +0.000 A 
ATOM     24  N   UNL     1       7.254   4.504  15.333  0.00  0.00    +0.000 NA
ATOM     25  C   UNL     1       7.002   4.819  16.585  0.00  0.00    +0.000 A 
ATOM     26  N   UNL     1       7.877   4.970  17.622  0.00  0.00    +0.000 NA
ENDBRANCH  15  20
ENDBRANCH   1  15
TORSDOF 2
ENDMDL
MODEL 3
REMARK VINA RESULT:      -9.3      0.886      2.045
REMARK  Name = 
REMARK  3 active torsions:
REMARK  status: ('A' for Active; 'I' for Inactive)
REMARK    1  A    between atoms: C_1  and  C_2
REMARK    2  A    between atoms: C_4  and  N_5
REMARK    3  A    between atoms: N_5  and  C_6
REMARK                            x       y       z     vdW  Elec       q    Type
REMARK                         _______ _______ _______ _____ _____    ______ ____
ROOT
ATOM      1  C   UNL     1       2.989   5.134  18.802  0.00  0.00    +0.000 A 
ATOM      2  C   UNL     1       2.507   4.868  20.086  0.00  0.00    +0.000 A 
ATOM      3  C   UNL     1       1.853   5.858  20.827  0.00  0.00    +0.000 A 
ATOM      4  C   UNL     1       1.654   7.141  20.299  0.00  0.00    +0.000 A 
ATOM      5  C   UNL     1       0.983   8.137  21.027  0.00  0.00    +0.000 A 
ATOM      6  C   UNL     1       0.772   9.419  20.494  0.00  0.00    +0.000 A 
ATOM      7  C   UNL     1       0.088  10.408  21.223  0.00  0.00    +0.000 A 
ATOM      8  C   UNL     1      -0.120  11.678  20.684  0.00  0.00    +0.000 A 
ATOM      9  C   UNL     1       0.353  11.974  19.410  0.00  0.00    +0.000 A 
ATOM     10  C   UNL     1       1.034  10.999  18.671  0.00  0.00    +0.000 A 
ATOM     11  C   UNL     1       1.249   9.718  19.202  0.00  0.00    +0.000 A 
ATOM     12  C   UNL     1       1.929   8.720  18.476  0.00  0.00    +0.000 A 
ATOM     13  C   UNL     1       2.135   7.434  19.007  0.00  0.00    +0.000 A 
ATOM     14  C   UNL     1       2.803   6.426  18.282  0.00  0.00    +0.000 A 
ENDROOT
BRANCH   1  15
ATOM     15  N   UNL     1       3.697   4.122  18.123  0.00  0.00    +0.000 N 
ATOM     16  H   UNL     1       3.155   3.285  17.908  0.00  0.00    +0.000 HD
BRANCH  15  20
ATOM     17  C   UNL     1       6.317   3.956  13.922  0.00  0.00    +0.000 C 
ATOM     18  C   UNL     1       6.258   4.236  15.400  0.00  0.00    +0.000 A 
ATOM     19  C   UNL     1       4.948   4.002  16.071  0.00  0.00    +0.000 A 
ATOM     20  C   UNL     1       4.866   4.261  17.388  0.00  0.00    +0.000 A 
ATOM     21  N   UNL     1       6.028   4.745  18.032  0.00  0.00    +0.000 N 
ATOM     22  N   UNL     1       6.208   5.095  19.337  0.00  0.00    +0.000 NA
ATOM     23  C   UNL     1       7.501   5.426  19.354  0.00  0.00    +0.000 A 
ATOM     24  N   UNL     1       8.156   5.343  18.165  0.00  0.00    +0.000 NA
ATOM     25  C   UNL     1       7.231   4.919  17.332  0.00  0.00    +0.000 A 
ATOM     26  N   UNL     1       7.335   4.661  15.995  0.00  0.00    +0.000 NA
ENDBRANCH  15  20
ENDBRANCH   1  15
TORSDOF 2
ENDMDL
MODEL 4
REMARK VINA RESULT:      -9.2      1.464      2.293
REMARK  Name = 
REMARK  3 active torsions:
REMARK  status: ('A' for Active; 'I' for Inactive)
REMARK    1  A    between atoms: C_1  and  C_2
REMARK    2  A    between atoms: C_4  and  N_5
REMARK    3  A    between atoms: N_5  and  C_6
REMARK                            x       y       z     vdW  Elec       q    Type
REMARK                         _______ _______ _______ _____ _____    ______ ____
ROOT
ATOM      1  C   UNL     1       2.799   7.307  18.362  0.00  0.00    +0.000 A 
ATOM      2  C   UNL     1       2.441   8.283  17.427  0.00  0.00    +0.000 A 
ATOM      3  C   UNL     1       1.579   9.328  17.774  0.00  0.00    +0.000 A 
ATOM      4  C   UNL     1       1.058   9.433  19.071  0.00  0.00    +0.000 A 
ATOM      5  C   UNL     1       0.207  10.489  19.435  0.00  0.00    +0.000 A 
ATOM      6  C   UNL     1      -0.306  10.602  20.737  0.00  0.00    +0.000 A 
ATOM      7  C   UNL     1      -1.148  11.669  21.100  0.00  0.00    +0.000 A 
ATOM      8  C   UNL     1      -1.649  11.775  22.397  0.00  0.00    +0.000 A 
ATOM      9  C   UNL     1      -1.316  10.816  23.348  0.00  0.00    +0.000 A 
ATOM     10  C   UNL     1      -0.476   9.750  23.004  0.00  0.00    +0.000 A 
ATOM     11  C   UNL     1       0.035   9.633  21.701  0.00  0.00    +0.000 A 
ATOM     12  C   UNL     1       0.884   8.570  21.333  0.00  0.00    +0.000 A 
ATOM     13  C   UNL     1       1.402   8.460  20.030  0.00  0.00    +0.000 A 
ATOM     14  C   UNL     1       2.261   7.406  19.656  0.00  0.00    +0.000 A 
ENDROOT
BRANCH   1  15
ATOM     15  N   UNL     1       3.618   6.239  17.944  0.00  0.00    +0.000 N 
ATOM     16  H   UNL     1       3.118   5.392  17.672  0.00  0.00    +0.000 HD
BRANCH  15  20
ATOM     17  C   UNL     1       8.110   8.317  17.735  0.00  0.00    +0.000 C 
ATOM     18  C   UNL     1       7.172   7.218  17.313  0.00  0.00    +0.000 A 
ATOM     19  C   UNL     1       5.781   7.290  17.841  0.00  0.00    +0.000 A 
ATOM     20  C   UNL     1       4.928   6.311  17.491  0.00  0.00    +0.000 A 
ATOM     21  N   UNL     1       5.422   5.283  16.656  0.00  0.00    +0.000 N 
ATOM     22  N   UNL     1       4.781   4.180  16.174  0.00  0.00    +0.000 NA
ATOM     23  C   UNL     1       5.732   3.619  15.424  0.00  0.00    +0.000 A 
ATOM     24  N   UNL     1       6.934   4.255  15.406  0.00  0.00    +0.000 NA
ATOM     25  C   UNL     1       6.743   5.298  16.184  0.00  0.00    +0.000 A 
ATOM     26  N   UNL     1       7.623   6.284  16.527  0.00  0.00    +0.000 NA
ENDBRANCH  15  20
ENDBRANCH   1  15
TORSDOF 2
ENDMDL
MODEL 5
REMARK VINA RESULT:      -9.1      2.207      3.362
REMARK  Name = 
REMARK  3 active torsions:
REMARK  status: ('A' for Active; 'I' for Inactive)
REMARK    1  A    between atoms: C_1  and  C_2
REMARK    2  A    between atoms: C_4  and  N_5
REMARK    3  A    between atoms: N_5  and  C_6
REMARK                            x       y       z     vdW  Elec       q    Type
REMARK                         _______ _______ _______ _____ _____    ______ ____
ROOT
ATOM      1  C   UNL     1       2.187   7.458  19.937  0.00  0.00    +0.000 A 
ATOM      2  C   UNL     1       2.055   8.149  18.729  0.00  0.00    +0.000 A 
ATOM      3  C   UNL     1       1.245   9.285  18.636  0.00  0.00    +0.000 A 
ATOM      4  C   UNL     1       0.551   9.769  19.755  0.00  0.00    +0.000 A 
ATOM      5  C   UNL     1      -0.250  10.920  19.677  0.00  0.00    +0.000 A 
ATOM      6  C   UNL     1      -0.935  11.413  20.800  0.00  0.00    +0.000 A 
ATOM      7  C   UNL     1      -1.726  12.574  20.720  0.00  0.00    +0.000 A 
ATOM      8  C   UNL     1      -2.400  13.057  21.841  0.00  0.00    +0.000 A 
ATOM      9  C   UNL     1      -2.292  12.388  23.055  0.00  0.00    +0.000 A 
ATOM     10  C   UNL     1      -1.507  11.233  23.152  0.00  0.00    +0.000 A 
ATOM     11  C   UNL     1      -0.823  10.737  22.030  0.00  0.00    +0.000 A 
ATOM     12  C   UNL     1      -0.024   9.578  22.105  0.00  0.00    +0.000 A 
ATOM     13  C   UNL     1       0.667   9.087  20.982  0.00  0.00    +0.000 A 
ATOM     14  C   UNL     1       1.478   7.936  21.051  0.00  0.00    +0.000 A 
ENDROOT
BRANCH   1  15
ATOM     15  N   UNL     1       2.964   6.282  19.960  0.00  0.00    +0.000 N 
ATOM     16  H   UNL     1       3.244   5.968  20.889  0.00  0.00    +0.000 HD
BRANCH  15  20
ATOM     17  C   UNL     1       5.082   4.242  15.974  0.00  0.00    +0.000 C 
ATOM     18  C   UNL     1       4.009   4.208  17.029  0.00  0.00    +0.000 A 
ATOM     19  C   UNL     1       3.998   5.333  18.005  0.00  0.00    +0.000 A 
ATOM     20  C   UNL     1       3.059   5.316  18.968  0.00  0.00    +0.000 A 
ATOM     21  N   UNL     1       2.160   4.226  18.983  0.00  0.00    +0.000 N 
ATOM     22  N   UNL     1       1.139   3.962  19.847  0.00  0.00    +0.000 NA
ATOM     23  C   UNL     1       0.633   2.838  19.336  0.00  0.00    +0.000 A 
ATOM     24  N   UNL     1       1.261   2.345  18.234  0.00  0.00    +0.000 NA
ATOM     25  C   UNL     1       2.223   3.215  18.013  0.00  0.00    +0.000 A 
ATOM     26  N   UNL     1       3.168   3.214  17.028  0.00  0.00    +0.000 NA
ENDBRANCH  15  20
ENDBRANCH   1  15
TORSDOF 2
ENDMDL
MODEL 6
REMARK VINA RESULT:      -9.1      1.470      2.850
REMARK  Name = 
REMARK  3 active torsions:
REMARK  status: ('A' for Active; 'I' for Inactive)
REMARK    1  A    between atoms: C_1  and  C_2
REMARK    2  A    between atoms: C_4  and  N_5
REMARK    3  A    between atoms: N_5  and  C_6
REMARK                            x       y       z     vdW  Elec       q    Type
REMARK                         _______ _______ _______ _____ _____    ______ ____
ROOT
ATOM      1  C   UNL     1       2.895   6.292  18.427  0.00  0.00    +0.000 A 
ATOM      2  C   UNL     1       2.651   5.559  19.592  0.00  0.00    +0.000 A 
ATOM      3  C   UNL     1       1.954   6.126  20.664  0.00  0.00    +0.000 A 
ATOM      4  C   UNL     1       1.472   7.441  20.596  0.00  0.00    +0.000 A 
ATOM      5  C   UNL     1       0.754   8.013  21.659  0.00  0.00    +0.000 A 
ATOM      6  C   UNL     1       0.259   9.325  21.587  0.00  0.00    +0.000 A 
ATOM      7  C   UNL     1      -0.470   9.889  22.650  0.00  0.00    +0.000 A 
ATOM      8  C   UNL     1      -0.961  11.192  22.567  0.00  0.00    +0.000 A 
ATOM      9  C   UNL     1      -0.729  11.948  21.423  0.00  0.00    +0.000 A 
ATOM     10  C   UNL     1      -0.007  11.400  20.356  0.00  0.00    +0.000 A 
ATOM     11  C   UNL     1       0.491  10.089  20.426  0.00  0.00    +0.000 A 
ATOM     12  C   UNL     1       1.218   9.516  19.363  0.00  0.00    +0.000 A 
ATOM     13  C   UNL     1       1.708   8.200  19.433  0.00  0.00    +0.000 A 
ATOM     14  C   UNL     1       2.425   7.614  18.369  0.00  0.00    +0.000 A 
ENDROOT
BRANCH   1  15
ATOM     15  N   UNL     1       3.659   5.697  17.403  0.00  0.00    +0.000 N 
ATOM     16  H   UNL     1       3.116   5.239  16.670  0.00  0.00    +0.000 HD
BRANCH  15  20
ATOM     17  C   UNL     1       7.921   8.169  17.915  0.00  0.00    +0.000 C 
ATOM     18  C   UNL     1       7.119   7.102  17.218  0.00  0.00    +0.000 A 
ATOM     19  C   UNL     1       5.706   6.937  17.657  0.00  0.00    +0.000 A 
ATOM     20  C   UNL     1       4.974   5.979  17.061  0.00  0.00    +0.000 A 
ATOM     21  N   UNL     1       5.608   5.196  16.069  0.00  0.00    +0.000 N 
ATOM     22  N   UNL     1       5.106   4.165  15.332  0.00  0.00    +0.000 NA
ATOM     23  C   UNL     1       6.142   3.861  14.547  0.00  0.00    +0.000 A 
ATOM     24  N   UNL     1       7.273   4.592  14.738  0.00  0.00    +0.000 NA
ATOM     25  C   UNL     1       6.940   5.429  15.697  0.00  0.00    +0.000 A 
ATOM     26  N   UNL     1       7.699   6.397  16.290  0.00  0.00    +0.000 NA
ENDBRANCH  15  20
ENDBRANCH   1  15
TORSDOF 2
ENDMDL
MODEL 7
REMARK VINA RESULT:      -9.0      1.806      3.276
REMARK  Name = 
REMARK  3 active torsions:
REMARK  status: ('A' for Active; 'I' for Inactive)
REMARK    1  A    between atoms: C_1  and  C_2
REMARK    2  A    between atoms: C_4  and  N_5
REMARK    3  A    between atoms: N_5  and  C_6
REMARK                            x       y       z     vdW  Elec       q    Type
REMARK                         _______ _______ _______ _____ _____    ______ ____
ROOT
ATOM      1  C   UNL     1       2.154   7.575  19.942  0.00  0.00    +0.000 A 
ATOM      2  C   UNL     1       2.012   8.259  18.731  0.00  0.00    +0.000 A 
ATOM      3  C   UNL     1       1.186   9.383  18.634  0.00  0.00    +0.000 A 
ATOM      4  C   UNL     1       0.484   9.861  19.749  0.00  0.00    +0.000 A 
ATOM      5  C   UNL     1      -0.334  11.000  19.667  0.00  0.00    +0.000 A 
ATOM      6  C   UNL     1      -1.028  11.487  20.786  0.00  0.00    +0.000 A 
ATOM      7  C   UNL     1      -1.835  12.635  20.701  0.00  0.00    +0.000 A 
ATOM      8  C   UNL     1      -2.517  13.114  21.820  0.00  0.00    +0.000 A 
ATOM      9  C   UNL     1      -2.401  12.451  23.037  0.00  0.00    +0.000 A 
ATOM     10  C   UNL     1      -1.599  11.309  23.139  0.00  0.00    +0.000 A 
ATOM     11  C   UNL     1      -0.906  10.818  22.020  0.00  0.00    +0.000 A 
ATOM     12  C   UNL     1      -0.091   9.671  22.100  0.00  0.00    +0.000 A 
ATOM     13  C   UNL     1       0.608   9.186  20.980  0.00  0.00    +0.000 A 
ATOM     14  C   UNL     1       1.436   8.047  21.053  0.00  0.00    +0.000 A 
ENDROOT
BRANCH   1  15
ATOM     15  N   UNL     1       2.947   6.411  19.971  0.00  0.00    +0.000 N 
ATOM     16  H   UNL     1       3.488   6.277  20.826  0.00  0.00    +0.000 HD
BRANCH  15  20
ATOM     17  C   UNL     1       0.670   2.192  18.726  0.00  0.00    +0.000 C 
ATOM     18  C   UNL     1       1.764   3.195  18.474  0.00  0.00    +0.000 A 
ATOM     19  C   UNL     1       1.837   4.351  19.410  0.00  0.00    +0.000 A 
ATOM     20  C   UNL     1       2.795   5.269  19.197  0.00  0.00    +0.000 A 
ATOM     21  N   UNL     1       3.654   5.070  18.092  0.00  0.00    +0.000 N 
ATOM     22  N   UNL     1       4.683   5.847  17.648  0.00  0.00    +0.000 NA
ATOM     23  C   UNL     1       5.136   5.134  16.615  0.00  0.00    +0.000 A 
ATOM     24  N   UNL     1       4.468   3.981  16.343  0.00  0.00    +0.000 NA
ATOM     25  C   UNL     1       3.533   3.942  17.267  0.00  0.00    +0.000 A 
ATOM     26  N   UNL     1       2.567   2.998  17.469  0.00  0.00    +0.000 NA
ENDBRANCH  15  20
ENDBRANCH   1  15
TORSDOF 2
ENDMDL
MODEL 8
REMARK VINA RESULT:      -8.9      1.133      1.134
REMARK  Name = 
REMARK  3 active torsions:
REMARK  status: ('A' for Active; 'I' for Inactive)
REMARK    1  A    between atoms: C_1  and  C_2
REMARK    2  A    between atoms: C_4  and  N_5
REMARK    3  A    between atoms: N_5  and  C_6
REMARK                            x       y       z     vdW  Elec       q    Type
REMARK                         _______ _______ _______ _____ _____    ______ ____
ROOT
ATOM      1  C   UNL     1       3.141   6.544  18.360  0.00  0.00    +0.000 A 
ATOM      2  C   UNL     1       2.954   7.567  17.427  0.00  0.00    +0.000 A 
ATOM      3  C   UNL     1       2.190   8.695  17.741  0.00  0.00    +0.000 A 
ATOM      4  C   UNL     1       1.598   8.836  19.004  0.00  0.00    +0.000 A 
ATOM      5  C   UNL     1       0.844   9.974  19.336  0.00  0.00    +0.000 A 
ATOM      6  C   UNL     1       0.261  10.123  20.605  0.00  0.00    +0.000 A 
ATOM      7  C   UNL     1      -0.482  11.270  20.936  0.00  0.00    +0.000 A 
ATOM      8  C   UNL     1      -1.055  11.410  22.201  0.00  0.00    +0.000 A 
ATOM      9  C   UNL     1      -0.892  10.405  23.149  0.00  0.00    +0.000 A 
ATOM     10  C   UNL     1      -0.152   9.259  22.835  0.00  0.00    +0.000 A 
ATOM     11  C   UNL     1       0.429   9.107  21.566  0.00  0.00    +0.000 A 
ATOM     12  C   UNL     1       1.180   7.963  21.229  0.00  0.00    +0.000 A 
ATOM     13  C   UNL     1       1.769   7.816  19.960  0.00  0.00    +0.000 A 
ATOM     14  C   UNL     1       2.532   6.681  19.619  0.00  0.00    +0.000 A 
ENDROOT
BRANCH   1  15
ATOM     15  N   UNL     1       3.865   5.399  17.972  0.00  0.00    +0.000 N 
ATOM     16  H   UNL     1       3.421   4.509  18.199  0.00  0.00    +0.000 HD
BRANCH  15  20
ATOM     17  C   UNL     1       5.759   3.769  13.694  0.00  0.00    +0.000 C 
ATOM     18  C   UNL     1       5.900   4.610  14.935  0.00  0.00    +0.000 A 
ATOM     19  C   UNL     1       4.769   4.565  15.903  0.00  0.00    +0.000 A 
ATOM     20  C   UNL     1       4.864   5.321  17.011  0.00  0.00    +0.000 A 
ATOM     21  N   UNL     1       6.028   6.108  17.166  0.00  0.00    +0.000 N 
ATOM     22  N   UNL     1       6.363   6.963  18.174  0.00  0.00    +0.000 NA
ATOM     23  C   UNL     1       7.576   7.369  17.793  0.00  0.00    +0.000 A 
ATOM     24  N   UNL     1       8.034   6.869  16.615  0.00  0.00    +0.000 NA
ATOM     25  C   UNL     1       7.060   6.079  16.217  0.00  0.00    +0.000 A 
ATOM     26  N   UNL     1       6.983   5.317  15.086  0.00  0.00    +0.000 NA
ENDBRANCH  15  20
ENDBRANCH   1  15
TORSDOF 2
ENDMDL
MODEL 9
REMARK VINA RESULT:      -8.9      2.678      4.124
REMARK  Name = 
REMARK  3 active torsions:
REMARK  status: ('A' for Active; 'I' for Inactive)
REMARK    1  A    between atoms: C_1  and  C_2
REMARK    2  A    between atoms: C_4  and  N_5
REMARK    3  A    between atoms: N_5  and  C_6
REMARK                            x       y       z     vdW  Elec       q    Type
REMARK                         _______ _______ _______ _____ _____    ______ ____
ROOT
ATOM      1  C   UNL     1       2.269   7.463  19.824  0.00  0.00    +0.000 A 
ATOM      2  C   UNL     1       2.101   8.157  18.622  0.00  0.00    +0.000 A 
ATOM      3  C   UNL     1       1.267   9.277  18.550  0.00  0.00    +0.000 A 
ATOM      4  C   UNL     1       0.584   9.742  19.683  0.00  0.00    +0.000 A 
ATOM      5  C   UNL     1      -0.241  10.877  19.626  0.00  0.00    +0.000 A 
ATOM      6  C   UNL     1      -0.916  11.351  20.763  0.00  0.00    +0.000 A 
ATOM      7  C   UNL     1      -1.731  12.496  20.703  0.00  0.00    +0.000 A 
ATOM      8  C   UNL     1      -2.394  12.961  21.839  0.00  0.00    +0.000 A 
ATOM      9  C   UNL     1      -2.252  12.288  23.048  0.00  0.00    +0.000 A 
ATOM     10  C   UNL     1      -1.442  11.148  23.124  0.00  0.00    +0.000 A 
ATOM     11  C   UNL     1      -0.768  10.671  21.988  0.00  0.00    +0.000 A 
ATOM     12  C   UNL     1       0.054   9.528  22.042  0.00  0.00    +0.000 A 
ATOM     13  C   UNL     1       0.735   9.057  20.905  0.00  0.00    +0.000 A 
ATOM     14  C   UNL     1       1.570   7.921  20.953  0.00  0.00    +0.000 A 
ENDROOT
BRANCH   1  15
ATOM     15  N   UNL     1       3.069   6.303  19.828  0.00  0.00    +0.000 N 
ATOM     16  H   UNL     1       4.042   6.449  20.098  0.00  0.00    +0.000 HD
BRANCH  15  20
ATOM     17  C   UNL     1       1.198   2.389  22.220  0.00  0.00    +0.000 C 
ATOM     18  C   UNL     1       1.717   3.000  20.946  0.00  0.00    +0.000 A 
ATOM     19  C   UNL     1       2.186   4.412  21.026  0.00  0.00    +0.000 A 
ATOM     20  C   UNL     1       2.639   4.985  19.897  0.00  0.00    +0.000 A 
ATOM     21  N   UNL     1       2.625   4.205  18.719  0.00  0.00    +0.000 N 
ATOM     22  N   UNL     1       3.009   4.544  17.455  0.00  0.00    +0.000 NA
ATOM     23  C   UNL     1       2.810   3.401  16.794  0.00  0.00    +0.000 A 
ATOM     24  N   UNL     1       2.307   2.368  17.522  0.00  0.00    +0.000 NA
ATOM     25  C   UNL     1       2.186   2.873  18.730  0.00  0.00    +0.000 A 
ATOM     26  N   UNL     1       1.724   2.273  19.867  0.00  0.00    +0.000 NA
ENDBRANCH  15  20
ENDBRANCH   1  15
TORSDOF 2
ENDMDL
