MODEL 1
REMARK VINA RESULT:      -8.4      0.000      0.000
REMARK  Name = 
REMARK  6 active torsions:
REMARK  status: ('A' for Active; 'I' for Inactive)
REMARK    1  A    between atoms: C_2  and  C_12
REMARK    2  A    between atoms: N_3  and  C_4
REMARK    3  A    between atoms: C_4  and  C_5
REMARK    4  A    between atoms: C_17  and  C_19
REMARK    5  A    between atoms: N_22  and  C_23
REMARK    6  A    between atoms: C_29  and  N_30
REMARK                            x       y       z     vdW  Elec       q    Type
REMARK                         _______ _______ _______ _____ _____    ______ ____
ROOT
ATOM      1  C   UNL     1      -2.265  12.507  18.788  0.00  0.00    +0.000 C 
ATOM      2  C   UNL     1      -3.152  11.467  18.081  0.00  0.00    +0.000 C 
ATOM      3  C   UNL     1      -2.540  10.067  18.140  0.00  0.00    +0.000 C 
ATOM      4  C   UNL     1      -1.147  10.084  17.513  0.00  0.00    +0.000 C 
ATOM      5  N   UNL     1      -0.301  11.031  18.242  0.00  0.00    +0.000 N 
ATOM      6  C   UNL     1       0.976  10.812  18.794  0.00  0.00    +0.000 C 
ATOM      7  O   UNL     1       1.588  11.745  19.304  0.00  0.00    +0.000 OA
ATOM      8  C   UNL     1      -0.819  12.408  18.265  0.00  0.00    +0.000 C 
ENDROOT
BRANCH   6   9
ATOM      9  C   UNL     1       1.569   9.468  18.794  0.00  0.00    +0.000 A 
ATOM     10  C   UNL     1       2.029   8.773  17.668  0.00  0.00    +0.000 A 
ATOM     11  N   UNL     1       2.377   7.525  17.915  0.00  0.00    +0.000 NA
ATOM     12  N   UNL     1       2.106   7.308  19.238  0.00  0.00    +0.000 N 
ATOM     13  C   UNL     1       1.549   8.477  19.797  0.00  0.00    +0.000 A 
BRANCH  12  14
ATOM     14  C   UNL     1       2.527   6.011  19.728  0.00  0.00    +0.000 A 
ATOM     15  C   UNL     1       1.673   5.356  20.650  0.00  0.00    +0.000 A 
ATOM     16  C   UNL     1       1.933   4.071  21.140  0.00  0.00    +0.000 A 
ATOM     17  C   UNL     1       3.071   3.403  20.720  0.00  0.00    +0.000 A 
ATOM     18  C   UNL     1       3.939   4.031  19.822  0.00  0.00    +0.000 A 
ATOM     19  C   UNL     1       3.669   5.322  19.319  0.00  0.00    +0.000 A 
ENDBRANCH  12  14
BRANCH  13  20
ATOM     20  N   UNL     1       0.936   8.624  21.050  0.00  0.00    +0.000 N 
ATOM     21  C   UNL     1       1.490   9.187  22.195  0.00  0.00    +0.000 A 
ATOM     22  C   UNL     1       0.519   9.371  23.154  0.00  0.00    +0.000 A 
ATOM     23  C   UNL     1      -0.681   8.879  22.618  0.00  0.00    +0.000 A 
ATOM     24  C   UNL     1      -0.404   8.396  21.354  0.00  0.00    +0.000 A 
ENDBRANCH  13  20
ENDBRANCH   6   9
BRANCH   1  26
ATOM     25  O   UNL     1      -1.486  11.869  21.008  0.00  0.00    +0.000 OA
ATOM     26  C   UNL     1      -2.320  12.447  20.321  0.00  0.00    +0.000 C 
ATOM     27  N   UNL     1      -3.339  13.187  20.876  0.00  0.00    +0.000 N 
ATOM     28  H   UNL     1      -4.082  13.522  20.282  0.00  0.00    +0.000 HD
BRANCH  27  29
ATOM     29  C   UNL     1      -3.646  13.170  22.288  0.00  0.00    +0.000 C 
BRANCH  29  30
ATOM     30  C   UNL     1      -5.111  12.939  22.592  0.00  0.00    +0.000 A 
ATOM     31  C   UNL     1      -6.024  13.112  21.533  0.00  0.00    +0.000 A 
ATOM     32  C   UNL     1      -7.404  13.044  21.742  0.00  0.00    +0.000 A 
ATOM     33  C   UNL     1      -7.902  12.781  23.013  0.00  0.00    +0.000 A 
ATOM     34  C   UNL     1      -7.021  12.579  24.071  0.00  0.00    +0.000 A 
ATOM     35  C   UNL     1      -5.637  12.673  23.870  0.00  0.00    +0.000 A 
ATOM     36 CL   UNL     1      -4.647  12.477  25.275  0.00  0.00    +0.000 Cl
ENDBRANCH  29  30
ENDBRANCH  27  29
ENDBRANCH   1  26
TORSDOF 6
ENDMDL
MODEL 2
REMARK VINA RESULT:      -7.9      1.155      1.448
REMARK  Name = 
REMARK  6 active torsions:
REMARK  status: ('A' for Active; 'I' for Inactive)
REMARK    1  A    between atoms: C_2  and  C_12
REMARK    2  A    between atoms: N_3  and  C_4
REMARK    3  A    between atoms: C_4  and  C_5
REMARK    4  A    between atoms: C_17  and  C_19
REMARK    5  A    between atoms: N_22  and  C_23
REMARK    6  A    between atoms: C_29  and  N_30
REMARK                            x       y       z     vdW  Elec       q    Type
REMARK                         _______ _______ _______ _____ _____    ______ ____
ROOT
ATOM      1  C   UNL     1      -2.016  12.751  19.137  0.00  0.00    +0.000 C 
ATOM      2  C   UNL     1      -3.013  11.726  18.566  0.00  0.00    +0.000 C 
ATOM      3  C   UNL     1      -2.449  10.305  18.607  0.00  0.00    +0.000 C 
ATOM      4  C   UNL     1      -1.134  10.247  17.832  0.00  0.00    +0.000 C 
ATOM      5  N   UNL     1      -0.179  11.182  18.431  0.00  0.00    +0.000 N 
ATOM      6  C   UNL     1       1.141  10.928  18.849  0.00  0.00    +0.000 C 
ATOM      7  O   UNL     1       1.840  11.850  19.258  0.00  0.00    +0.000 OA
ATOM      8  C   UNL     1      -0.641  12.578  18.463  0.00  0.00    +0.000 C 
ENDROOT
BRANCH   6   9
ATOM      9  C   UNL     1       1.682   9.562  18.830  0.00  0.00    +0.000 A 
ATOM     10  C   UNL     1       2.144   8.876  17.699  0.00  0.00    +0.000 A 
ATOM     11  N   UNL     1       2.437   7.610  17.924  0.00  0.00    +0.000 NA
ATOM     12  N   UNL     1       2.121   7.372  19.233  0.00  0.00    +0.000 N 
ATOM     13  C   UNL     1       1.595   8.547  19.807  0.00  0.00    +0.000 A 
BRANCH  12  14
ATOM     14  C   UNL     1       2.477   6.048  19.701  0.00  0.00    +0.000 A 
ATOM     15  C   UNL     1       1.532   5.367  20.509  0.00  0.00    +0.000 A 
ATOM     16  C   UNL     1       1.728   4.058  20.962  0.00  0.00    +0.000 A 
ATOM     17  C   UNL     1       2.891   3.389  20.619  0.00  0.00    +0.000 A 
ATOM     18  C   UNL     1       3.847   4.040  19.835  0.00  0.00    +0.000 A 
ATOM     19  C   UNL     1       3.643   5.357  19.369  0.00  0.00    +0.000 A 
ENDBRANCH  12  14
BRANCH  13  20
ATOM     20  N   UNL     1       0.953   8.688  21.046  0.00  0.00    +0.000 N 
ATOM     21  C   UNL     1       1.474   9.264  22.201  0.00  0.00    +0.000 A 
ATOM     22  C   UNL     1       0.480   9.434  23.138  0.00  0.00    +0.000 A 
ATOM     23  C   UNL     1      -0.700   8.921  22.579  0.00  0.00    +0.000 A 
ATOM     24  C   UNL     1      -0.389   8.439  21.323  0.00  0.00    +0.000 A 
ENDBRANCH  13  20
ENDBRANCH   6   9
BRANCH   1  26
ATOM     25  O   UNL     1      -1.514  11.772  21.313  0.00  0.00    +0.000 OA
ATOM     26  C   UNL     1      -1.905  12.739  20.668  0.00  0.00    +0.000 C 
ATOM     27  N   UNL     1      -2.186  13.948  21.262  0.00  0.00    +0.000 N 
ATOM     28  H   UNL     1      -2.641  14.667  20.719  0.00  0.00    +0.000 HD
BRANCH  27  29
ATOM     29  C   UNL     1      -2.261  14.124  22.694  0.00  0.00    +0.000 C 
BRANCH  29  30
ATOM     30  C   UNL     1      -3.611  13.771  23.283  0.00  0.00    +0.000 A 
ATOM     31  C   UNL     1      -3.670  12.648  24.132  0.00  0.00    +0.000 A 
ATOM     32  C   UNL     1      -4.886  12.170  24.624  0.00  0.00    +0.000 A 
ATOM     33  C   UNL     1      -6.072  12.816  24.295  0.00  0.00    +0.000 A 
ATOM     34  C   UNL     1      -6.038  13.945  23.481  0.00  0.00    +0.000 A 
ATOM     35  C   UNL     1      -4.823  14.412  22.964  0.00  0.00    +0.000 A 
ATOM     36 CL   UNL     1      -4.918  15.776  21.905  0.00  0.00    +0.000 Cl
ENDBRANCH  29  30
ENDBRANCH  27  29
ENDBRANCH   1  26
TORSDOF 6
ENDMDL
MODEL 3
REMARK VINA RESULT:      -7.9      4.633      9.688
REMARK  Name = 
REMARK  6 active torsions:
REMARK  status: ('A' for Active; 'I' for Inactive)
REMARK    1  A    between atoms: C_2  and  C_12
REMARK    2  A    between atoms: N_3  and  C_4
REMARK    3  A    between atoms: C_4  and  C_5
REMARK    4  A    between atoms: C_17  and  C_19
REMARK    5  A    between atoms: N_22  and  C_23
REMARK    6  A    between atoms: C_29  and  N_30
REMARK                            x       y       z     vdW  Elec       q    Type
REMARK                         _______ _______ _______ _____ _____    ______ ____
ROOT
ATOM      1  C   UNL     1       2.553   2.289  19.715  0.00  0.00    +0.000 C 
ATOM      2  C   UNL     1       2.079   2.120  18.260  0.00  0.00    +0.000 C 
ATOM      3  C   UNL     1       2.073   3.452  17.508  0.00  0.00    +0.000 C 
ATOM      4  C   UNL     1       1.182   4.455  18.239  0.00  0.00    +0.000 C 
ATOM      5  N   UNL     1       1.689   4.650  19.599  0.00  0.00    +0.000 N 
ATOM      6  C   UNL     1       1.985   5.861  20.252  0.00  0.00    +0.000 C 
ATOM      7  O   UNL     1       2.326   5.852  21.431  0.00  0.00    +0.000 OA
ATOM      8  C   UNL     1       1.758   3.417  20.399  0.00  0.00    +0.000 C 
ENDROOT
BRANCH   6   9
ATOM      9  C   UNL     1       1.923   7.137  19.525  0.00  0.00    +0.000 A 
ATOM     10  C   UNL     1       2.633   7.454  18.360  0.00  0.00    +0.000 A 
ATOM     11  N   UNL     1       2.518   8.715  17.990  0.00  0.00    +0.000 NA
ATOM     12  N   UNL     1       1.754   9.325  18.947  0.00  0.00    +0.000 N 
ATOM     13  C   UNL     1       1.417   8.386  19.943  0.00  0.00    +0.000 A 
BRANCH  12  14
ATOM     14  C   UNL     1       1.424  10.705  18.656  0.00  0.00    +0.000 A 
ATOM     15  C   UNL     1       0.069  11.095  18.803  0.00  0.00    +0.000 A 
ATOM     16  C   UNL     1      -0.362  12.414  18.622  0.00  0.00    +0.000 A 
ATOM     17  C   UNL     1       0.561  13.388  18.278  0.00  0.00    +0.000 A 
ATOM     18  C   UNL     1       1.901  13.029  18.112  0.00  0.00    +0.000 A 
ATOM     19  C   UNL     1       2.337  11.701  18.307  0.00  0.00    +0.000 A 
ENDBRANCH  12  14
BRANCH  13  20
ATOM     20  N   UNL     1       0.836   8.631  21.196  0.00  0.00    +0.000 N 
ATOM     21  C   UNL     1       1.443   9.220  22.301  0.00  0.00    +0.000 A 
ATOM     22  C   UNL     1       0.501   9.506  23.265  0.00  0.00    +0.000 A 
ATOM     23  C   UNL     1      -0.734   9.055  22.775  0.00  0.00    +0.000 A 
ATOM     24  C   UNL     1      -0.508   8.493  21.533  0.00  0.00    +0.000 A 
ENDBRANCH  13  20
ENDBRANCH   6   9
BRANCH   1  26
ATOM     25  O   UNL     1       4.788   1.741  20.520  0.00  0.00    +0.000 OA
ATOM     26  C   UNL     1       4.068   2.488  19.866  0.00  0.00    +0.000 C 
ATOM     27  N   UNL     1       4.577   3.525  19.119  0.00  0.00    +0.000 N 
ATOM     28  H   UNL     1       3.942   4.198  18.717  0.00  0.00    +0.000 HD
BRANCH  27  29
ATOM     29  C   UNL     1       5.951   3.960  19.209  0.00  0.00    +0.000 C 
BRANCH  29  30
ATOM     30  C   UNL     1       6.244   5.226  18.432  0.00  0.00    +0.000 A 
ATOM     31  C   UNL     1       5.410   5.516  17.334  0.00  0.00    +0.000 A 
ATOM     32  C   UNL     1       5.673   6.591  16.483  0.00  0.00    +0.000 A 
ATOM     33  C   UNL     1       6.767   7.415  16.720  0.00  0.00    +0.000 A 
ATOM     34  C   UNL     1       7.592   7.166  17.814  0.00  0.00    +0.000 A 
ATOM     35  C   UNL     1       7.346   6.073  18.655  0.00  0.00    +0.000 A 
ATOM     36 CL   UNL     1       8.482   5.824  19.936  0.00  0.00    +0.000 Cl
ENDBRANCH  29  30
ENDBRANCH  27  29
ENDBRANCH   1  26
TORSDOF 6
ENDMDL
MODEL 4
REMARK VINA RESULT:      -7.8      1.409      2.088
REMARK  Name = 
REMARK  6 active torsions:
REMARK  status: ('A' for Active; 'I' for Inactive)
REMARK    1  A    between atoms: C_2  and  C_12
REMARK    2  A    between atoms: N_3  and  C_4
REMARK    3  A    between atoms: C_4  and  C_5
REMARK    4  A    between atoms: C_17  and  C_19
REMARK    5  A    between atoms: N_22  and  C_23
REMARK    6  A    between atoms: C_29  and  N_30
REMARK                            x       y       z     vdW  Elec       q    Type
REMARK                         _______ _______ _______ _____ _____    ______ ____
ROOT
ATOM      1  C   UNL     1      -2.281  12.642  19.021  0.00  0.00    +0.000 C 
ATOM      2  C   UNL     1      -3.200  11.625  18.321  0.00  0.00    +0.000 C 
ATOM      3  C   UNL     1      -2.596  10.220  18.326  0.00  0.00    +0.000 C 
ATOM      4  C   UNL     1      -1.226  10.243  17.652  0.00  0.00    +0.000 C 
ATOM      5  N   UNL     1      -0.348  11.168  18.373  0.00  0.00    +0.000 N 
ATOM      6  C   UNL     1       0.945  10.927  18.875  0.00  0.00    +0.000 C 
ATOM      7  O   UNL     1       1.581  11.844  19.385  0.00  0.00    +0.000 OA
ATOM      8  C   UNL     1      -0.856  12.546  18.446  0.00  0.00    +0.000 C 
ENDROOT
BRANCH   6   9
ATOM      9  C   UNL     1       1.529   9.580  18.823  0.00  0.00    +0.000 A 
ATOM     10  C   UNL     1       1.974   8.921  17.669  0.00  0.00    +0.000 A 
ATOM     11  N   UNL     1       2.315   7.663  17.870  0.00  0.00    +0.000 NA
ATOM     12  N   UNL     1       2.052   7.402  19.186  0.00  0.00    +0.000 N 
ATOM     13  C   UNL     1       1.509   8.554  19.791  0.00  0.00    +0.000 A 
BRANCH  12  14
ATOM     14  C   UNL     1       2.467   6.085  19.627  0.00  0.00    +0.000 A 
ATOM     15  C   UNL     1       3.618   5.527  19.016  0.00  0.00    +0.000 A 
ATOM     16  C   UNL     1       4.159   4.297  19.406  0.00  0.00    +0.000 A 
ATOM     17  C   UNL     1       3.553   3.581  20.424  0.00  0.00    +0.000 A 
ATOM     18  C   UNL     1       2.408   4.101  21.035  0.00  0.00    +0.000 A 
ATOM     19  C   UNL     1       1.870   5.347  20.650  0.00  0.00    +0.000 A 
ENDBRANCH  12  14
BRANCH  13  20
ATOM     20  N   UNL     1       0.906   8.661  21.053  0.00  0.00    +0.000 N 
ATOM     21  C   UNL     1       1.490   9.136  22.224  0.00  0.00    +0.000 A 
ATOM     22  C   UNL     1       0.530   9.312  23.196  0.00  0.00    +0.000 A 
ATOM     23  C   UNL     1      -0.692   8.906  22.641  0.00  0.00    +0.000 A 
ATOM     24  C   UNL     1      -0.442   8.479  21.351  0.00  0.00    +0.000 A 
ENDBRANCH  13  20
ENDBRANCH   6   9
BRANCH   1  26
ATOM     25  O   UNL     1      -1.280  12.330  21.221  0.00  0.00    +0.000 OA
ATOM     26  C   UNL     1      -2.284  12.546  20.553  0.00  0.00    +0.000 C 
ATOM     27  N   UNL     1      -3.501  12.827  21.132  0.00  0.00    +0.000 N 
ATOM     28  H   UNL     1      -4.326  12.854  20.551  0.00  0.00    +0.000 HD
BRANCH  27  29
ATOM     29  C   UNL     1      -3.754  12.675  22.546  0.00  0.00    +0.000 C 
BRANCH  29  30
ATOM     30  C   UNL     1      -3.834  13.986  23.297  0.00  0.00    +0.000 A 
ATOM     31  C   UNL     1      -2.711  14.359  24.064  0.00  0.00    +0.000 A 
ATOM     32  C   UNL     1      -2.733  15.486  24.888  0.00  0.00    +0.000 A 
ATOM     33  C   UNL     1      -3.873  16.279  24.952  0.00  0.00    +0.000 A 
ATOM     34  C   UNL     1      -4.986  15.948  24.184  0.00  0.00    +0.000 A 
ATOM     35  C   UNL     1      -4.977  14.804  23.375  0.00  0.00    +0.000 A 
ATOM     36 CL   UNL     1      -6.444  14.457  22.527  0.00  0.00    +0.000 Cl
ENDBRANCH  29  30
ENDBRANCH  27  29
ENDBRANCH   1  26
TORSDOF 6
ENDMDL
MODEL 5
REMARK VINA RESULT:      -7.7      1.538      1.971
REMARK  Name = 
REMARK  6 active torsions:
REMARK  status: ('A' for Active; 'I' for Inactive)
REMARK    1  A    between atoms: C_2  and  C_12
REMARK    2  A    between atoms: N_3  and  C_4
REMARK    3  A    between atoms: C_4  and  C_5
REMARK    4  A    between atoms: C_17  and  C_19
REMARK    5  A    between atoms: N_22  and  C_23
REMARK    6  A    between atoms: C_29  and  N_30
REMARK                            x       y       z     vdW  Elec       q    Type
REMARK                         _______ _______ _______ _____ _____    ______ ____
ROOT
ATOM      1  C   UNL     1      -1.999  12.901  19.388  0.00  0.00    +0.000 C 
ATOM      2  C   UNL     1      -3.005  11.910  18.775  0.00  0.00    +0.000 C 
ATOM      3  C   UNL     1      -2.447  10.487  18.739  0.00  0.00    +0.000 C 
ATOM      4  C   UNL     1      -1.139  10.464  17.950  0.00  0.00    +0.000 C 
ATOM      5  N   UNL     1      -0.175  11.363  18.587  0.00  0.00    +0.000 N 
ATOM      6  C   UNL     1       1.148  11.084  18.979  0.00  0.00    +0.000 C 
ATOM      7  O   UNL     1       1.854  11.982  19.427  0.00  0.00    +0.000 OA
ATOM      8  C   UNL     1      -0.631  12.758  18.694  0.00  0.00    +0.000 C 
ENDROOT
BRANCH   6   9
ATOM      9  C   UNL     1       1.682   9.719  18.887  0.00  0.00    +0.000 A 
ATOM     10  C   UNL     1       2.145   9.095  17.721  0.00  0.00    +0.000 A 
ATOM     11  N   UNL     1       2.432   7.817  17.876  0.00  0.00    +0.000 NA
ATOM     12  N   UNL     1       2.111   7.508  19.169  0.00  0.00    +0.000 N 
ATOM     13  C   UNL     1       1.589   8.652  19.806  0.00  0.00    +0.000 A 
BRANCH  12  14
ATOM     14  C   UNL     1       2.460   6.158  19.564  0.00  0.00    +0.000 A 
ATOM     15  C   UNL     1       3.602   5.578  18.958  0.00  0.00    +0.000 A 
ATOM     16  C   UNL     1       4.082   4.311  19.308  0.00  0.00    +0.000 A 
ATOM     17  C   UNL     1       3.421   3.580  20.280  0.00  0.00    +0.000 A 
ATOM     18  C   UNL     1       2.284   4.122  20.885  0.00  0.00    +0.000 A 
ATOM     19  C   UNL     1       1.807   5.405  20.540  0.00  0.00    +0.000 A 
ENDBRANCH  12  14
BRANCH  13  20
ATOM     20  N   UNL     1       0.944   8.727  21.049  0.00  0.00    +0.000 N 
ATOM     21  C   UNL     1       1.497   9.137  22.258  0.00  0.00    +0.000 A 
ATOM     22  C   UNL     1       0.509   9.303  23.203  0.00  0.00    +0.000 A 
ATOM     23  C   UNL     1      -0.704   8.956  22.588  0.00  0.00    +0.000 A 
ATOM     24  C   UNL     1      -0.419   8.574  21.292  0.00  0.00    +0.000 A 
ENDBRANCH  13  20
ENDBRANCH   6   9
BRANCH   1  26
ATOM     25  O   UNL     1      -0.835  12.521  21.495  0.00  0.00    +0.000 OA
ATOM     26  C   UNL     1      -1.874  12.811  20.916  0.00  0.00    +0.000 C 
ATOM     27  N   UNL     1      -3.011  13.186  21.596  0.00  0.00    +0.000 N 
ATOM     28  H   UNL     1      -3.879  13.275  21.089  0.00  0.00    +0.000 HD
BRANCH  27  29
ATOM     29  C   UNL     1      -3.149  13.059  23.028  0.00  0.00    +0.000 C 
BRANCH  29  30
ATOM     30  C   UNL     1      -3.792  14.260  23.688  0.00  0.00    +0.000 A 
ATOM     31  C   UNL     1      -5.148  14.510  23.394  0.00  0.00    +0.000 A 
ATOM     32  C   UNL     1      -5.794  15.659  23.854  0.00  0.00    +0.000 A 
ATOM     33  C   UNL     1      -5.105  16.578  24.637  0.00  0.00    +0.000 A 
ATOM     34  C   UNL     1      -3.773  16.342  24.965  0.00  0.00    +0.000 A 
ATOM     35  C   UNL     1      -3.114  15.203  24.484  0.00  0.00    +0.000 A 
ATOM     36 CL   UNL     1      -1.440  15.058  24.897  0.00  0.00    +0.000 Cl
ENDBRANCH  29  30
ENDBRANCH  27  29
ENDBRANCH   1  26
TORSDOF 6
ENDMDL
MODEL 6
REMARK VINA RESULT:      -7.7      4.530      9.863
REMARK  Name = 
REMARK  6 active torsions:
REMARK  status: ('A' for Active; 'I' for Inactive)
REMARK    1  A    between atoms: C_2  and  C_12
REMARK    2  A    between atoms: N_3  and  C_4
REMARK    3  A    between atoms: C_4  and  C_5
REMARK    4  A    between atoms: C_17  and  C_19
REMARK    5  A    between atoms: N_22  and  C_23
REMARK    6  A    between atoms: C_29  and  N_30
REMARK                            x       y       z     vdW  Elec       q    Type
REMARK                         _______ _______ _______ _____ _____    ______ ____
ROOT
ATOM      1  C   UNL     1       2.957   2.654  20.118  0.00  0.00    +0.000 C 
ATOM      2  C   UNL     1       1.490   2.312  19.803  0.00  0.00    +0.000 C 
ATOM      3  C   UNL     1       0.801   3.436  19.027  0.00  0.00    +0.000 C 
ATOM      4  C   UNL     1       0.879   4.737  19.823  0.00  0.00    +0.000 C 
ATOM      5  N   UNL     1       2.284   5.078  20.056  0.00  0.00    +0.000 N 
ATOM      6  C   UNL     1       2.940   6.296  19.795  0.00  0.00    +0.000 C 
ATOM      7  O   UNL     1       4.111   6.443  20.129  0.00  0.00    +0.000 OA
ATOM      8  C   UNL     1       3.043   4.044  20.776  0.00  0.00    +0.000 C 
ENDROOT
BRANCH   6   9
ATOM      9  C   UNL     1       2.243   7.384  19.095  0.00  0.00    +0.000 A 
ATOM     10  C   UNL     1       2.530   7.847  17.804  0.00  0.00    +0.000 A 
ATOM     11  N   UNL     1       1.861   8.932  17.464  0.00  0.00    +0.000 NA
ATOM     12  N   UNL     1       1.123   9.284  18.559  0.00  0.00    +0.000 N 
ATOM     13  C   UNL     1       1.382   8.377  19.608  0.00  0.00    +0.000 A 
BRANCH  12  14
ATOM     14  C   UNL     1       0.231  10.404  18.342  0.00  0.00    +0.000 A 
ATOM     15  C   UNL     1      -1.031  10.127  17.760  0.00  0.00    +0.000 A 
ATOM     16  C   UNL     1      -2.008  11.111  17.566  0.00  0.00    +0.000 A 
ATOM     17  C   UNL     1      -1.741  12.415  17.948  0.00  0.00    +0.000 A 
ATOM     18  C   UNL     1      -0.499  12.721  18.511  0.00  0.00    +0.000 A 
ATOM     19  C   UNL     1       0.480  11.725  18.717  0.00  0.00    +0.000 A 
ENDBRANCH  12  14
BRANCH  13  20
ATOM     20  N   UNL     1       1.009   8.489  20.955  0.00  0.00    +0.000 N 
ATOM     21  C   UNL     1       1.776   8.998  21.998  0.00  0.00    +0.000 A 
ATOM     22  C   UNL     1       0.999   9.164  23.124  0.00  0.00    +0.000 A 
ATOM     23  C   UNL     1      -0.290   8.716  22.798  0.00  0.00    +0.000 A 
ATOM     24  C   UNL     1      -0.259   8.275  21.490  0.00  0.00    +0.000 A 
ENDBRANCH  13  20
ENDBRANCH   6   9
BRANCH   1  26
ATOM     25  O   UNL     1       3.894   1.589  18.135  0.00  0.00    +0.000 OA
ATOM     26  C   UNL     1       3.906   2.533  18.917  0.00  0.00    +0.000 C 
ATOM     27  N   UNL     1       4.715   3.630  18.726  0.00  0.00    +0.000 N 
ATOM     28  H   UNL     1       4.800   4.311  19.465  0.00  0.00    +0.000 HD
BRANCH  27  29
ATOM     29  C   UNL     1       5.763   3.672  17.733  0.00  0.00    +0.000 C 
BRANCH  29  30
ATOM     30  C   UNL     1       6.518   4.984  17.697  0.00  0.00    +0.000 A 
ATOM     31  C   UNL     1       7.398   5.251  18.765  0.00  0.00    +0.000 A 
ATOM     32  C   UNL     1       8.045   6.482  18.886  0.00  0.00    +0.000 A 
ATOM     33  C   UNL     1       7.842   7.471  17.931  0.00  0.00    +0.000 A 
ATOM     34  C   UNL     1       6.998   7.224  16.851  0.00  0.00    +0.000 A 
ATOM     35  C   UNL     1       6.328   5.999  16.740  0.00  0.00    +0.000 A 
ATOM     36 CL   UNL     1       5.250   5.837  15.397  0.00  0.00    +0.000 Cl
ENDBRANCH  29  30
ENDBRANCH  27  29
ENDBRANCH   1  26
TORSDOF 6
ENDMDL
MODEL 7
REMARK VINA RESULT:      -7.7      4.777      9.947
REMARK  Name = 
REMARK  6 active torsions:
REMARK  status: ('A' for Active; 'I' for Inactive)
REMARK    1  A    between atoms: C_2  and  C_12
REMARK    2  A    between atoms: N_3  and  C_4
REMARK    3  A    between atoms: C_4  and  C_5
REMARK    4  A    between atoms: C_17  and  C_19
REMARK    5  A    between atoms: N_22  and  C_23
REMARK    6  A    between atoms: C_29  and  N_30
REMARK                            x       y       z     vdW  Elec       q    Type
REMARK                         _______ _______ _______ _____ _____    ______ ____
ROOT
ATOM      1  C   UNL     1       2.756   2.384  19.318  0.00  0.00    +0.000 C 
ATOM      2  C   UNL     1       2.563   2.311  17.793  0.00  0.00    +0.000 C 
ATOM      3  C   UNL     1       2.636   3.695  17.146  0.00  0.00    +0.000 C 
ATOM      4  C   UNL     1       1.585   4.613  17.767  0.00  0.00    +0.000 C 
ATOM      5  N   UNL     1       1.826   4.719  19.207  0.00  0.00    +0.000 N 
ATOM      6  C   UNL     1       1.945   5.887  19.985  0.00  0.00    +0.000 C 
ATOM      7  O   UNL     1       2.065   5.798  21.203  0.00  0.00    +0.000 OA
ATOM      8  C   UNL     1       1.801   3.433  19.919  0.00  0.00    +0.000 C 
ENDROOT
BRANCH   6   9
ATOM      9  C   UNL     1       1.961   7.211  19.349  0.00  0.00    +0.000 A 
ATOM     10  C   UNL     1       2.742   7.584  18.247  0.00  0.00    +0.000 A 
ATOM     11  N   UNL     1       2.686   8.870  17.962  0.00  0.00    +0.000 NA
ATOM     12  N   UNL     1       1.891   9.438  18.919  0.00  0.00    +0.000 N 
ATOM     13  C   UNL     1       1.473   8.445  19.828  0.00  0.00    +0.000 A 
BRANCH  12  14
ATOM     14  C   UNL     1       1.620  10.846  18.710  0.00  0.00    +0.000 A 
ATOM     15  C   UNL     1       0.452  11.380  19.309  0.00  0.00    +0.000 A 
ATOM     16  C   UNL     1       0.119  12.737  19.240  0.00  0.00    +0.000 A 
ATOM     17  C   UNL     1       0.954  13.606  18.558  0.00  0.00    +0.000 A 
ATOM     18  C   UNL     1       2.106  13.106  17.946  0.00  0.00    +0.000 A 
ATOM     19  C   UNL     1       2.447  11.738  18.025  0.00  0.00    +0.000 A 
ENDBRANCH  12  14
BRANCH  13  20
ATOM     20  N   UNL     1       0.834   8.622  21.064  0.00  0.00    +0.000 N 
ATOM     21  C   UNL     1       1.378   9.176  22.218  0.00  0.00    +0.000 A 
ATOM     22  C   UNL     1       0.390   9.400  23.151  0.00  0.00    +0.000 A 
ATOM     23  C   UNL     1      -0.811   8.943  22.589  0.00  0.00    +0.000 A 
ATOM     24  C   UNL     1      -0.520   8.440  21.336  0.00  0.00    +0.000 A 
ENDBRANCH  13  20
ENDBRANCH   6   9
BRANCH   1  26
ATOM     25  O   UNL     1       4.721   2.056  20.723  0.00  0.00    +0.000 OA
ATOM     26  C   UNL     1       4.208   2.616  19.761  0.00  0.00    +0.000 C 
ATOM     27  N   UNL     1       4.928   3.434  18.921  0.00  0.00    +0.000 N 
ATOM     28  H   UNL     1       4.437   3.985  18.233  0.00  0.00    +0.000 HD
BRANCH  27  29
ATOM     29  C   UNL     1       6.270   3.880  19.216  0.00  0.00    +0.000 C 
BRANCH  29  30
ATOM     30  C   UNL     1       6.759   4.989  18.310  0.00  0.00    +0.000 A 
ATOM     31  C   UNL     1       7.321   6.125  18.926  0.00  0.00    +0.000 A 
ATOM     32  C   UNL     1       7.687   7.251  18.185  0.00  0.00    +0.000 A 
ATOM     33  C   UNL     1       7.517   7.260  16.806  0.00  0.00    +0.000 A 
ATOM     34  C   UNL     1       6.989   6.140  16.169  0.00  0.00    +0.000 A 
ATOM     35  C   UNL     1       6.597   5.019  16.912  0.00  0.00    +0.000 A 
ATOM     36 CL   UNL     1       5.886   3.720  16.017  0.00  0.00    +0.000 Cl
ENDBRANCH  29  30
ENDBRANCH  27  29
ENDBRANCH   1  26
TORSDOF 6
ENDMDL
MODEL 8
REMARK VINA RESULT:      -7.6      4.562     10.092
REMARK  Name = 
REMARK  6 active torsions:
REMARK  status: ('A' for Active; 'I' for Inactive)
REMARK    1  A    between atoms: C_2  and  C_12
REMARK    2  A    between atoms: N_3  and  C_4
REMARK    3  A    between atoms: C_4  and  C_5
REMARK    4  A    between atoms: C_17  and  C_19
REMARK    5  A    between atoms: N_22  and  C_23
REMARK    6  A    between atoms: C_29  and  N_30
REMARK                            x       y       z     vdW  Elec       q    Type
REMARK                         _______ _______ _______ _____ _____    ______ ____
ROOT
ATOM      1  C   UNL     1       2.637   2.425  19.757  0.00  0.00    +0.000 C 
ATOM      2  C   UNL     1       1.901   2.207  18.423  0.00  0.00    +0.000 C 
ATOM      3  C   UNL     1       1.710   3.519  17.660  0.00  0.00    +0.000 C 
ATOM      4  C   UNL     1       0.943   4.515  18.528  0.00  0.00    +0.000 C 
ATOM      5  N   UNL     1       1.693   4.758  19.762  0.00  0.00    +0.000 N 
ATOM      6  C   UNL     1       2.070   5.993  20.323  0.00  0.00    +0.000 C 
ATOM      7  O   UNL     1       2.628   6.022  21.415  0.00  0.00    +0.000 OA
ATOM      8  C   UNL     1       1.952   3.548  20.558  0.00  0.00    +0.000 C 
ENDROOT
BRANCH   6   9
ATOM      9  C   UNL     1       1.830   7.247  19.597  0.00  0.00    +0.000 A 
ATOM     10  C   UNL     1       2.422   7.621  18.383  0.00  0.00    +0.000 A 
ATOM     11  N   UNL     1       2.156   8.860  18.017  0.00  0.00    +0.000 NA
ATOM     12  N   UNL     1       1.403   9.401  19.022  0.00  0.00    +0.000 N 
ATOM     13  C   UNL     1       1.232   8.445  20.044  0.00  0.00    +0.000 A 
BRANCH  12  14
ATOM     14  C   UNL     1       0.917  10.739  18.749  0.00  0.00    +0.000 A 
ATOM     15  C   UNL     1       1.884  11.761  18.585  0.00  0.00    +0.000 A 
ATOM     16  C   UNL     1       1.544  13.076  18.247  0.00  0.00    +0.000 A 
ATOM     17  C   UNL     1       0.212  13.408  18.068  0.00  0.00    +0.000 A 
ATOM     18  C   UNL     1      -0.765  12.423  18.238  0.00  0.00    +0.000 A 
ATOM     19  C   UNL     1      -0.420  11.094  18.567  0.00  0.00    +0.000 A 
ENDBRANCH  12  14
BRANCH  13  20
ATOM     20  N   UNL     1       0.717   8.645  21.333  0.00  0.00    +0.000 N 
ATOM     21  C   UNL     1       1.395   9.152  22.437  0.00  0.00    +0.000 A 
ATOM     22  C   UNL     1       0.509   9.422  23.457  0.00  0.00    +0.000 A 
ATOM     23  C   UNL     1      -0.763   9.044  23.002  0.00  0.00    +0.000 A 
ATOM     24  C   UNL     1      -0.615   8.540  21.724  0.00  0.00    +0.000 A 
ENDBRANCH  13  20
ENDBRANCH   6   9
BRANCH   1  26
ATOM     25  O   UNL     1       5.001   1.917  20.068  0.00  0.00    +0.000 OA
ATOM     26  C   UNL     1       4.146   2.669  19.613  0.00  0.00    +0.000 C 
ATOM     27  N   UNL     1       4.469   3.757  18.835  0.00  0.00    +0.000 N 
ATOM     28  H   UNL     1       3.749   4.426  18.605  0.00  0.00    +0.000 HD
BRANCH  27  29
ATOM     29  C   UNL     1       5.822   4.235  18.671  0.00  0.00    +0.000 C 
BRANCH  29  30
ATOM     30  C   UNL     1       6.180   4.580  17.242  0.00  0.00    +0.000 A 
ATOM     31  C   UNL     1       5.685   3.732  16.230  0.00  0.00    +0.000 A 
ATOM     32  C   UNL     1       6.061   3.894  14.895  0.00  0.00    +0.000 A 
ATOM     33  C   UNL     1       6.926   4.920  14.535  0.00  0.00    +0.000 A 
ATOM     34  C   UNL     1       7.408   5.789  15.511  0.00  0.00    +0.000 A 
ATOM     35  C   UNL     1       7.054   5.614  16.855  0.00  0.00    +0.000 A 
ATOM     36 CL   UNL     1       7.775   6.709  17.983  0.00  0.00    +0.000 Cl
ENDBRANCH  29  30
ENDBRANCH  27  29
ENDBRANCH   1  26
TORSDOF 6
ENDMDL
MODEL 9
REMARK VINA RESULT:      -7.6      1.419      1.745
REMARK  Name = 
REMARK  6 active torsions:
REMARK  status: ('A' for Active; 'I' for Inactive)
REMARK    1  A    between atoms: C_2  and  C_12
REMARK    2  A    between atoms: N_3  and  C_4
REMARK    3  A    between atoms: C_4  and  C_5
REMARK    4  A    between atoms: C_17  and  C_19
REMARK    5  A    between atoms: N_22  and  C_23
REMARK    6  A    between atoms: C_29  and  N_30
REMARK                            x       y       z     vdW  Elec       q    Type
REMARK                         _______ _______ _______ _____ _____    ______ ____
ROOT
ATOM      1  C   UNL     1      -1.949  12.743  19.134  0.00  0.00    +0.000 C 
ATOM      2  C   UNL     1      -2.950  11.738  18.538  0.00  0.00    +0.000 C 
ATOM      3  C   UNL     1      -2.406  10.309  18.573  0.00  0.00    +0.000 C 
ATOM      4  C   UNL     1      -1.080  10.242  17.818  0.00  0.00    +0.000 C 
ATOM      5  N   UNL     1      -0.122  11.158  18.442  0.00  0.00    +0.000 N 
ATOM      6  C   UNL     1       1.189  10.883  18.877  0.00  0.00    +0.000 C 
ATOM      7  O   UNL     1       1.892  11.792  19.305  0.00  0.00    +0.000 OA
ATOM      8  C   UNL     1      -0.566  12.559  18.480  0.00  0.00    +0.000 C 
ENDROOT
BRANCH   6   9
ATOM      9  C   UNL     1       1.711   9.510  18.853  0.00  0.00    +0.000 A 
ATOM     10  C   UNL     1       2.157   8.820  17.718  0.00  0.00    +0.000 A 
ATOM     11  N   UNL     1       2.435   7.550  17.939  0.00  0.00    +0.000 NA
ATOM     12  N   UNL     1       2.126   7.314  19.250  0.00  0.00    +0.000 N 
ATOM     13  C   UNL     1       1.619   8.495  19.829  0.00  0.00    +0.000 A 
BRANCH  12  14
ATOM     14  C   UNL     1       2.468   5.985  19.714  0.00  0.00    +0.000 A 
ATOM     15  C   UNL     1       1.515   5.310  20.516  0.00  0.00    +0.000 A 
ATOM     16  C   UNL     1       1.698   3.997  20.964  0.00  0.00    +0.000 A 
ATOM     17  C   UNL     1       2.856   3.319  20.623  0.00  0.00    +0.000 A 
ATOM     18  C   UNL     1       3.821   3.965  19.845  0.00  0.00    +0.000 A 
ATOM     19  C   UNL     1       3.630   5.286  19.383  0.00  0.00    +0.000 A 
ENDBRANCH  12  14
BRANCH  13  20
ATOM     20  N   UNL     1       0.988   8.643  21.073  0.00  0.00    +0.000 N 
ATOM     21  C   UNL     1       1.537   9.178  22.234  0.00  0.00    +0.000 A 
ATOM     22  C   UNL     1       0.554   9.375  23.179  0.00  0.00    +0.000 A 
ATOM     23  C   UNL     1      -0.648   8.920  22.617  0.00  0.00    +0.000 A 
ATOM     24  C   UNL     1      -0.362   8.445  21.352  0.00  0.00    +0.000 A 
ENDBRANCH  13  20
ENDBRANCH   6   9
BRANCH   1  26
ATOM     25  O   UNL     1      -1.498  11.736  21.308  0.00  0.00    +0.000 OA
ATOM     26  C   UNL     1      -1.862  12.715  20.667  0.00  0.00    +0.000 C 
ATOM     27  N   UNL     1      -2.131  13.924  21.268  0.00  0.00    +0.000 N 
ATOM     28  H   UNL     1      -2.564  14.655  20.726  0.00  0.00    +0.000 HD
BRANCH  27  29
ATOM     29  C   UNL     1      -2.225  14.087  22.700  0.00  0.00    +0.000 C 
BRANCH  29  30
ATOM     30  C   UNL     1      -3.456  14.844  23.150  0.00  0.00    +0.000 A 
ATOM     31  C   UNL     1      -3.253  16.074  23.807  0.00  0.00    +0.000 A 
ATOM     32  C   UNL     1      -4.316  16.786  24.367  0.00  0.00    +0.000 A 
ATOM     33  C   UNL     1      -5.611  16.293  24.268  0.00  0.00    +0.000 A 
ATOM     34  C   UNL     1      -5.843  15.094  23.601  0.00  0.00    +0.000 A 
ATOM     35  C   UNL     1      -4.776  14.364  23.059  0.00  0.00    +0.000 A 
ATOM     36 CL   UNL     1      -5.181  12.853  22.320  0.00  0.00    +0.000 Cl
ENDBRANCH  29  30
ENDBRANCH  27  29
ENDBRANCH   1  26
TORSDOF 6
ENDMDL
