MODEL 1
REMARK VINA RESULT:      -7.1      0.000      0.000
REMARK  Name = 
REMARK  10 active torsions:
REMARK  status: ('A' for Active; 'I' for Inactive)
REMARK    1  A    between atoms: C_1  and  O_2
REMARK    2  A    between atoms: O_2  and  C_3
REMARK    3  A    between atoms: C_5  and  S_6
REMARK    4  A    between atoms: S_6  and  N_9
REMARK    5  A    between atoms: N_9  and  C_10
REMARK    6  A    between atoms: C_11  and  C_12
REMARK    7  A    between atoms: N_14  and  C_15
REMARK    8  A    between atoms: C_16  and  C_17
REMARK    9  A    between atoms: C_20  and  N_21
REMARK   10  A    between atoms: C_22  and  C_23
REMARK                            x       y       z     vdW  Elec       q    Type
REMARK                         _______ _______ _______ _____ _____    ______ ____
ROOT
ATOM      1  C   UNL     1       5.828   5.403  16.420  0.00  0.00    +0.000 A 
ATOM      2  C   UNL     1       5.058   4.271  16.710  0.00  0.00    +0.000 A 
ATOM      3  C   UNL     1       4.875   3.867  18.029  0.00  0.00    +0.000 A 
ATOM      4  C   UNL     1       5.511   4.537  19.069  0.00  0.00    +0.000 A 
ATOM      5  C   UNL     1       6.236   5.699  18.786  0.00  0.00    +0.000 A 
ATOM      6  C   UNL     1       6.381   6.167  17.471  0.00  0.00    +0.000 A 
ENDROOT
BRANCH   6   7
ATOM      7  N   UNL     1       7.018   7.401  17.177  0.00  0.00    +0.000 N 
ATOM      8  C   UNL     1       7.984   8.031  17.943  0.00  0.00    +0.000 C 
ATOM      9  C   UNL     1       8.306   9.438  17.508  0.00  0.00    +0.000 C 
ATOM     10  O   UNL     1       8.586   7.543  18.896  0.00  0.00    +0.000 OA
ATOM     11  H   UNL     1       6.715   7.840  16.311  0.00  0.00    +0.000 HD
ENDBRANCH   6   7
BRANCH   3  12
ATOM     12  S   UNL     1       3.788   2.504  18.355  0.00  0.00    +0.000 S 
ATOM     13  O   UNL     1       3.795   1.635  17.201  0.00  0.00    +0.000 OA
ATOM     14  O   UNL     1       4.107   1.993  19.675  0.00  0.00    +0.000 OA
BRANCH  12  15
ATOM     15  N   UNL     1       2.257   3.233  18.501  0.00  0.00    +0.000 N 
ATOM     16  H   UNL     1       1.583   2.473  18.593  0.00  0.00    +0.000 HD
BRANCH  15  17
ATOM     17  C   UNL     1       2.065   4.317  19.371  0.00  0.00    +0.000 A 
ATOM     18  C   UNL     1       1.742   4.249  20.752  0.00  0.00    +0.000 A 
ATOM     19  C   UNL     1       1.603   3.059  21.627  0.00  0.00    +0.000 C 
ATOM     20  N   UNL     1       1.606   5.467  21.283  0.00  0.00    +0.000 NA
ATOM     21  N   UNL     1       1.832   6.305  20.256  0.00  0.00    +0.000 N 
ATOM     22  C   UNL     1       1.738   7.728  20.492  0.00  0.00    +0.000 C 
ATOM     23  C   UNL     1       2.128   5.664  19.079  0.00  0.00    +0.000 A 
ATOM     24  C   UNL     1       2.407   6.368  17.801  0.00  0.00    +0.000 C 
ENDBRANCH  15  17
ENDBRANCH  12  15
ENDBRANCH   3  12
BRANCH   1  26
ATOM     25  C   UNL     1       6.858   4.885  14.362  0.00  0.00    +0.000 C 
ATOM     26  O   UNL     1       6.067   5.808  15.124  0.00  0.00    +0.000 OA
ENDBRANCH   1  26
TORSDOF 5
ENDMDL
MODEL 2
REMARK VINA RESULT:      -7.0      4.692      6.789
REMARK  Name = 
REMARK  10 active torsions:
REMARK  status: ('A' for Active; 'I' for Inactive)
REMARK    1  A    between atoms: C_1  and  O_2
REMARK    2  A    between atoms: O_2  and  C_3
REMARK    3  A    between atoms: C_5  and  S_6
REMARK    4  A    between atoms: S_6  and  N_9
REMARK    5  A    between atoms: N_9  and  C_10
REMARK    6  A    between atoms: C_11  and  C_12
REMARK    7  A    between atoms: N_14  and  C_15
REMARK    8  A    between atoms: C_16  and  C_17
REMARK    9  A    between atoms: C_20  and  N_21
REMARK   10  A    between atoms: C_22  and  C_23
REMARK                            x       y       z     vdW  Elec       q    Type
REMARK                         _______ _______ _______ _____ _____    ______ ____
ROOT
ATOM      1  C   UNL     1       2.523   5.778  19.801  0.00  0.00    +0.000 A 
ATOM      2  C   UNL     1       1.893   6.670  20.674  0.00  0.00    +0.000 A 
ATOM      3  C   UNL     1       1.650   7.983  20.281  0.00  0.00    +0.000 A 
ATOM      4  C   UNL     1       2.094   8.446  19.047  0.00  0.00    +0.000 A 
ATOM      5  C   UNL     1       2.676   7.541  18.152  0.00  0.00    +0.000 A 
ATOM      6  C   UNL     1       2.872   6.196  18.497  0.00  0.00    +0.000 A 
ENDROOT
BRANCH   6   7
ATOM      7  N   UNL     1       3.359   5.242  17.565  0.00  0.00    +0.000 N 
ATOM      8  C   UNL     1       4.683   5.023  17.228  0.00  0.00    +0.000 C 
ATOM      9  C   UNL     1       4.884   4.116  16.041  0.00  0.00    +0.000 C 
ATOM     10  O   UNL     1       5.665   5.477  17.811  0.00  0.00    +0.000 OA
ATOM     11  H   UNL     1       2.639   4.680  17.119  0.00  0.00    +0.000 HD
ENDBRANCH   6   7
BRANCH   3  12
ATOM     12  S   UNL     1       0.735   9.039  21.373  0.00  0.00    +0.000 S 
ATOM     13  O   UNL     1      -0.595   8.493  21.521  0.00  0.00    +0.000 OA
ATOM     14  O   UNL     1       1.566   9.300  22.532  0.00  0.00    +0.000 OA
BRANCH  12  15
ATOM     15  N   UNL     1       0.646  10.514  20.529  0.00  0.00    +0.000 N 
ATOM     16  H   UNL     1       1.243  10.414  19.708  0.00  0.00    +0.000 HD
BRANCH  15  17
ATOM     17  C   UNL     1      -0.595  11.129  20.300  0.00  0.00    +0.000 A 
ATOM     18  C   UNL     1      -1.386  11.032  19.125  0.00  0.00    +0.000 A 
ATOM     19  C   UNL     1      -1.158  10.221  17.904  0.00  0.00    +0.000 C 
ATOM     20  N   UNL     1      -2.502  11.760  19.225  0.00  0.00    +0.000 NA
ATOM     21  N   UNL     1      -2.424  12.323  20.443  0.00  0.00    +0.000 N 
ATOM     22  C   UNL     1      -3.486  13.208  20.864  0.00  0.00    +0.000 C 
ATOM     23  C   UNL     1      -1.298  11.966  21.143  0.00  0.00    +0.000 A 
ATOM     24  C   UNL     1      -0.979  12.462  22.506  0.00  0.00    +0.000 C 
ENDBRANCH  15  17
ENDBRANCH  12  15
ENDBRANCH   3  12
BRANCH   1  26
ATOM     25  C   UNL     1       2.163   4.057  21.372  0.00  0.00    +0.000 C 
ATOM     26  O   UNL     1       2.819   4.483  20.170  0.00  0.00    +0.000 OA
ENDBRANCH   1  26
TORSDOF 5
ENDMDL
MODEL 3
REMARK VINA RESULT:      -7.0      2.786      7.129
REMARK  Name = 
REMARK  10 active torsions:
REMARK  status: ('A' for Active; 'I' for Inactive)
REMARK    1  A    between atoms: C_1  and  O_2
REMARK    2  A    between atoms: O_2  and  C_3
REMARK    3  A    between atoms: C_5  and  S_6
REMARK    4  A    between atoms: S_6  and  N_9
REMARK    5  A    between atoms: N_9  and  C_10
REMARK    6  A    between atoms: C_11  and  C_12
REMARK    7  A    between atoms: N_14  and  C_15
REMARK    8  A    between atoms: C_16  and  C_17
REMARK    9  A    between atoms: C_20  and  N_21
REMARK   10  A    between atoms: C_22  and  C_23
REMARK                            x       y       z     vdW  Elec       q    Type
REMARK                         _______ _______ _______ _____ _____    ______ ____
ROOT
ATOM      1  C   UNL     1       3.545   5.878  19.060  0.00  0.00    +0.000 A 
ATOM      2  C   UNL     1       4.288   6.505  18.053  0.00  0.00    +0.000 A 
ATOM      3  C   UNL     1       5.476   5.938  17.603  0.00  0.00    +0.000 A 
ATOM      4  C   UNL     1       5.979   4.784  18.194  0.00  0.00    +0.000 A 
ATOM      5  C   UNL     1       5.211   4.127  19.162  0.00  0.00    +0.000 A 
ATOM      6  C   UNL     1       3.977   4.641  19.587  0.00  0.00    +0.000 A 
ENDROOT
BRANCH   6   7
ATOM      7  N   UNL     1       3.135   3.933  20.485  0.00  0.00    +0.000 N 
ATOM      8  C   UNL     1       2.203   2.966  20.149  0.00  0.00    +0.000 C 
ATOM      9  C   UNL     1       1.292   2.559  21.278  0.00  0.00    +0.000 C 
ATOM     10  O   UNL     1       2.082   2.425  19.052  0.00  0.00    +0.000 OA
ATOM     11  H   UNL     1       3.253   4.182  21.463  0.00  0.00    +0.000 HD
ENDBRANCH   6   7
BRANCH   3  12
ATOM     12  S   UNL     1       6.315   6.701  16.239  0.00  0.00    +0.000 S 
ATOM     13  O   UNL     1       5.333   7.038  15.235  0.00  0.00    +0.000 OA
ATOM     14  O   UNL     1       7.205   7.711  16.779  0.00  0.00    +0.000 OA
BRANCH  12  15
ATOM     15  N   UNL     1       7.327   5.468  15.645  0.00  0.00    +0.000 N 
ATOM     16  H   UNL     1       7.496   4.832  16.425  0.00  0.00    +0.000 HD
BRANCH  15  17
ATOM     17  C   UNL     1       7.051   4.851  14.415  0.00  0.00    +0.000 A 
ATOM     18  C   UNL     1       7.707   5.093  13.179  0.00  0.00    +0.000 A 
ATOM     19  C   UNL     1       8.867   5.970  12.887  0.00  0.00    +0.000 C 
ATOM     20  N   UNL     1       7.184   4.355  12.195  0.00  0.00    +0.000 NA
ATOM     21  N   UNL     1       6.202   3.656  12.790  0.00  0.00    +0.000 N 
ATOM     22  C   UNL     1       5.407   2.758  11.983  0.00  0.00    +0.000 C 
ATOM     23  C   UNL     1       6.085   3.906  14.135  0.00  0.00    +0.000 A 
ATOM     24  C   UNL     1       5.071   3.266  15.011  0.00  0.00    +0.000 C 
ENDBRANCH  15  17
ENDBRANCH  12  15
ENDBRANCH   3  12
BRANCH   1  26
ATOM     25  C   UNL     1       2.177   7.796  19.173  0.00  0.00    +0.000 C 
ATOM     26  O   UNL     1       2.386   6.431  19.561  0.00  0.00    +0.000 OA
ENDBRANCH   1  26
TORSDOF 5
ENDMDL
MODEL 4
REMARK VINA RESULT:      -7.0      4.632      6.677
REMARK  Name = 
REMARK  10 active torsions:
REMARK  status: ('A' for Active; 'I' for Inactive)
REMARK    1  A    between atoms: C_1  and  O_2
REMARK    2  A    between atoms: O_2  and  C_3
REMARK    3  A    between atoms: C_5  and  S_6
REMARK    4  A    between atoms: S_6  and  N_9
REMARK    5  A    between atoms: N_9  and  C_10
REMARK    6  A    between atoms: C_11  and  C_12
REMARK    7  A    between atoms: N_14  and  C_15
REMARK    8  A    between atoms: C_16  and  C_17
REMARK    9  A    between atoms: C_20  and  N_21
REMARK   10  A    between atoms: C_22  and  C_23
REMARK                            x       y       z     vdW  Elec       q    Type
REMARK                         _______ _______ _______ _____ _____    ______ ____
ROOT
ATOM      1  C   UNL     1       2.526   5.770  19.805  0.00  0.00    +0.000 A 
ATOM      2  C   UNL     1       1.914   6.670  20.684  0.00  0.00    +0.000 A 
ATOM      3  C   UNL     1       1.670   7.982  20.287  0.00  0.00    +0.000 A 
ATOM      4  C   UNL     1       2.095   8.435  19.043  0.00  0.00    +0.000 A 
ATOM      5  C   UNL     1       2.658   7.523  18.143  0.00  0.00    +0.000 A 
ATOM      6  C   UNL     1       2.855   6.179  18.494  0.00  0.00    +0.000 A 
ENDROOT
BRANCH   6   7
ATOM      7  N   UNL     1       3.321   5.217  17.559  0.00  0.00    +0.000 N 
ATOM      8  C   UNL     1       4.643   4.945  17.250  0.00  0.00    +0.000 C 
ATOM      9  C   UNL     1       4.832   4.046  16.055  0.00  0.00    +0.000 C 
ATOM     10  O   UNL     1       5.629   5.348  17.862  0.00  0.00    +0.000 OA
ATOM     11  H   UNL     1       2.589   4.693  17.089  0.00  0.00    +0.000 HD
ENDBRANCH   6   7
BRANCH   3  12
ATOM     12  S   UNL     1       0.778   9.048  21.387  0.00  0.00    +0.000 S 
ATOM     13  O   UNL     1      -0.555   8.516  21.551  0.00  0.00    +0.000 OA
ATOM     14  O   UNL     1       1.625   9.302  22.537  0.00  0.00    +0.000 OA
BRANCH  12  15
ATOM     15  N   UNL     1       0.694  10.523  20.543  0.00  0.00    +0.000 N 
ATOM     16  H   UNL     1       1.354  10.450  19.767  0.00  0.00    +0.000 HD
BRANCH  15  17
ATOM     17  C   UNL     1      -0.548  11.092  20.225  0.00  0.00    +0.000 A 
ATOM     18  C   UNL     1      -1.311  11.974  21.036  0.00  0.00    +0.000 A 
ATOM     19  C   UNL     1      -0.972  12.567  22.353  0.00  0.00    +0.000 C 
ATOM     20  N   UNL     1      -2.460  12.312  20.445  0.00  0.00    +0.000 NA
ATOM     21  N   UNL     1      -2.439  11.652  19.274  0.00  0.00    +0.000 N 
ATOM     22  C   UNL     1      -3.570  11.787  18.385  0.00  0.00    +0.000 C 
ATOM     23  C   UNL     1      -1.300  10.909  19.082  0.00  0.00    +0.000 A 
ATOM     24  C   UNL     1      -1.044  10.085  17.874  0.00  0.00    +0.000 C 
ENDBRANCH  15  17
ENDBRANCH  12  15
ENDBRANCH   3  12
BRANCH   1  26
ATOM     25  C   UNL     1       1.947   3.945  21.181  0.00  0.00    +0.000 C 
ATOM     26  O   UNL     1       2.823   4.476  20.178  0.00  0.00    +0.000 OA
ENDBRANCH   1  26
TORSDOF 5
ENDMDL
MODEL 5
REMARK VINA RESULT:      -7.0      2.502      5.719
REMARK  Name = 
REMARK  10 active torsions:
REMARK  status: ('A' for Active; 'I' for Inactive)
REMARK    1  A    between atoms: C_1  and  O_2
REMARK    2  A    between atoms: O_2  and  C_3
REMARK    3  A    between atoms: C_5  and  S_6
REMARK    4  A    between atoms: S_6  and  N_9
REMARK    5  A    between atoms: N_9  and  C_10
REMARK    6  A    between atoms: C_11  and  C_12
REMARK    7  A    between atoms: N_14  and  C_15
REMARK    8  A    between atoms: C_16  and  C_17
REMARK    9  A    between atoms: C_20  and  N_21
REMARK   10  A    between atoms: C_22  and  C_23
REMARK                            x       y       z     vdW  Elec       q    Type
REMARK                         _______ _______ _______ _____ _____    ______ ____
ROOT
ATOM      1  C   UNL     1       2.480   7.129  19.057  0.00  0.00    +0.000 A 
ATOM      2  C   UNL     1       2.750   6.015  18.253  0.00  0.00    +0.000 A 
ATOM      3  C   UNL     1       2.737   4.736  18.802  0.00  0.00    +0.000 A 
ATOM      4  C   UNL     1       2.529   4.552  20.164  0.00  0.00    +0.000 A 
ATOM      5  C   UNL     1       2.207   5.658  20.958  0.00  0.00    +0.000 A 
ATOM      6  C   UNL     1       2.147   6.951  20.418  0.00  0.00    +0.000 A 
ENDROOT
BRANCH   6   7
ATOM      7  N   UNL     1       1.715   8.067  21.182  0.00  0.00    +0.000 N 
ATOM      8  C   UNL     1       0.405   8.412  21.465  0.00  0.00    +0.000 C 
ATOM      9  C   UNL     1       0.239   9.772  22.094  0.00  0.00    +0.000 C 
ATOM     10  O   UNL     1      -0.588   7.715  21.269  0.00  0.00    +0.000 OA
ATOM     11  H   UNL     1       2.465   8.650  21.544  0.00  0.00    +0.000 HD
ENDBRANCH   6   7
BRANCH   3  12
ATOM     12  S   UNL     1       2.957   3.349  17.719  0.00  0.00    +0.000 S 
ATOM     13  O   UNL     1       2.464   2.168  18.390  0.00  0.00    +0.000 OA
ATOM     14  O   UNL     1       2.453   3.726  16.412  0.00  0.00    +0.000 OA
BRANCH  12  15
ATOM     15  N   UNL     1       4.646   3.234  17.546  0.00  0.00    +0.000 N 
ATOM     16  H   UNL     1       4.824   2.389  17.002  0.00  0.00    +0.000 HD
BRANCH  15  17
ATOM     17  C   UNL     1       5.401   4.358  17.176  0.00  0.00    +0.000 A 
ATOM     18  C   UNL     1       5.672   4.800  15.854  0.00  0.00    +0.000 A 
ATOM     19  C   UNL     1       5.183   4.258  14.563  0.00  0.00    +0.000 C 
ATOM     20  N   UNL     1       6.443   5.892  15.852  0.00  0.00    +0.000 NA
ATOM     21  N   UNL     1       6.668   6.142  17.154  0.00  0.00    +0.000 N 
ATOM     22  C   UNL     1       7.503   7.268  17.506  0.00  0.00    +0.000 C 
ATOM     23  C   UNL     1       6.051   5.254  18.000  0.00  0.00    +0.000 A 
ATOM     24  C   UNL     1       6.155   5.312  19.480  0.00  0.00    +0.000 C 
ENDBRANCH  15  17
ENDBRANCH  12  15
ENDBRANCH   3  12
BRANCH   1  26
ATOM     25  C   UNL     1       1.419   8.749  17.712  0.00  0.00    +0.000 C 
ATOM     26  O   UNL     1       2.526   8.414  18.560  0.00  0.00    +0.000 OA
ENDBRANCH   1  26
TORSDOF 5
ENDMDL
MODEL 6
REMARK VINA RESULT:      -6.9      4.850      7.228
REMARK  Name = 
REMARK  10 active torsions:
REMARK  status: ('A' for Active; 'I' for Inactive)
REMARK    1  A    between atoms: C_1  and  O_2
REMARK    2  A    between atoms: O_2  and  C_3
REMARK    3  A    between atoms: C_5  and  S_6
REMARK    4  A    between atoms: S_6  and  N_9
REMARK    5  A    between atoms: N_9  and  C_10
REMARK    6  A    between atoms: C_11  and  C_12
REMARK    7  A    between atoms: N_14  and  C_15
REMARK    8  A    between atoms: C_16  and  C_17
REMARK    9  A    between atoms: C_20  and  N_21
REMARK   10  A    between atoms: C_22  and  C_23
REMARK                            x       y       z     vdW  Elec       q    Type
REMARK                         _______ _______ _______ _____ _____    ______ ____
ROOT
ATOM      1  C   UNL     1       2.327   5.885  20.166  0.00  0.00    +0.000 A 
ATOM      2  C   UNL     1       1.726   6.920  20.891  0.00  0.00    +0.000 A 
ATOM      3  C   UNL     1       1.501   8.156  20.293  0.00  0.00    +0.000 A 
ATOM      4  C   UNL     1       1.935   8.404  18.995  0.00  0.00    +0.000 A 
ATOM      5  C   UNL     1       2.486   7.354  18.251  0.00  0.00    +0.000 A 
ATOM      6  C   UNL     1       2.663   6.079  18.809  0.00  0.00    +0.000 A 
ENDROOT
BRANCH   6   7
ATOM      7  N   UNL     1       3.118   4.977  18.037  0.00  0.00    +0.000 N 
ATOM      8  C   UNL     1       2.330   3.992  17.467  0.00  0.00    +0.000 C 
ATOM      9  C   UNL     1       3.099   2.823  16.908  0.00  0.00    +0.000 C 
ATOM     10  O   UNL     1       1.105   4.008  17.369  0.00  0.00    +0.000 OA
ATOM     11  H   UNL     1       4.125   4.936  17.908  0.00  0.00    +0.000 HD
ENDBRANCH   6   7
BRANCH   3  12
ATOM     12  S   UNL     1       0.622   9.394  21.209  0.00  0.00    +0.000 S 
ATOM     13  O   UNL     1      -0.689   8.877  21.527  0.00  0.00    +0.000 OA
ATOM     14  O   UNL     1       1.504   9.877  22.255  0.00  0.00    +0.000 OA
BRANCH  12  15
ATOM     15  N   UNL     1       0.467  10.681  20.107  0.00  0.00    +0.000 N 
ATOM     16  H   UNL     1       1.084  10.466  19.323  0.00  0.00    +0.000 HD
BRANCH  15  17
ATOM     17  C   UNL     1      -0.800  11.172  19.759  0.00  0.00    +0.000 A 
ATOM     18  C   UNL     1      -1.579  12.107  20.491  0.00  0.00    +0.000 A 
ATOM     19  C   UNL     1      -1.239  12.845  21.732  0.00  0.00    +0.000 C 
ATOM     20  N   UNL     1      -2.750  12.343  19.893  0.00  0.00    +0.000 NA
ATOM     21  N   UNL     1      -2.726  11.566  18.797  0.00  0.00    +0.000 N 
ATOM     22  C   UNL     1      -3.877  11.569  17.922  0.00  0.00    +0.000 C 
ATOM     23  C   UNL     1      -1.566  10.846  18.657  0.00  0.00    +0.000 A 
ATOM     24  C   UNL     1      -1.302   9.909  17.535  0.00  0.00    +0.000 C 
ENDBRANCH  15  17
ENDBRANCH  12  15
ENDBRANCH   3  12
BRANCH   1  26
ATOM     25  C   UNL     1       1.439   3.874  21.020  0.00  0.00    +0.000 C 
ATOM     26  O   UNL     1       2.604   4.662  20.737  0.00  0.00    +0.000 OA
ENDBRANCH   1  26
TORSDOF 5
ENDMDL
MODEL 7
REMARK VINA RESULT:      -6.9      2.209      5.909
REMARK  Name = 
REMARK  10 active torsions:
REMARK  status: ('A' for Active; 'I' for Inactive)
REMARK    1  A    between atoms: C_1  and  O_2
REMARK    2  A    between atoms: O_2  and  C_3
REMARK    3  A    between atoms: C_5  and  S_6
REMARK    4  A    between atoms: S_6  and  N_9
REMARK    5  A    between atoms: N_9  and  C_10
REMARK    6  A    between atoms: C_11  and  C_12
REMARK    7  A    between atoms: N_14  and  C_15
REMARK    8  A    between atoms: C_16  and  C_17
REMARK    9  A    between atoms: C_20  and  N_21
REMARK   10  A    between atoms: C_22  and  C_23
REMARK                            x       y       z     vdW  Elec       q    Type
REMARK                         _______ _______ _______ _____ _____    ______ ____
ROOT
ATOM      1  C   UNL     1       2.278   4.787  20.328  0.00  0.00    +0.000 A 
ATOM      2  C   UNL     1       2.821   3.919  19.374  0.00  0.00    +0.000 A 
ATOM      3  C   UNL     1       3.248   4.408  18.143  0.00  0.00    +0.000 A 
ATOM      4  C   UNL     1       3.075   5.749  17.816  0.00  0.00    +0.000 A 
ATOM      5  C   UNL     1       2.583   6.627  18.788  0.00  0.00    +0.000 A 
ATOM      6  C   UNL     1       2.207   6.172  20.060  0.00  0.00    +0.000 A 
ENDROOT
BRANCH   6   7
ATOM      7  N   UNL     1       1.811   7.063  21.092  0.00  0.00    +0.000 N 
ATOM      8  C   UNL     1       1.367   8.364  20.930  0.00  0.00    +0.000 C 
ATOM      9  C   UNL     1       1.243   9.146  22.212  0.00  0.00    +0.000 C 
ATOM     10  O   UNL     1       1.061   8.899  19.867  0.00  0.00    +0.000 OA
ATOM     11  H   UNL     1       1.869   6.677  22.031  0.00  0.00    +0.000 HD
ENDBRANCH   6   7
BRANCH   3  12
ATOM     12  S   UNL     1       4.045   3.293  17.018  0.00  0.00    +0.000 S 
ATOM     13  O   UNL     1       3.596   1.953  17.316  0.00  0.00    +0.000 OA
ATOM     14  O   UNL     1       3.911   3.844  15.683  0.00  0.00    +0.000 OA
BRANCH  12  15
ATOM     15  N   UNL     1       5.695   3.434  17.410  0.00  0.00    +0.000 N 
ATOM     16  H   UNL     1       6.152   2.599  17.042  0.00  0.00    +0.000 HD
BRANCH  15  17
ATOM     17  C   UNL     1       6.378   4.640  17.191  0.00  0.00    +0.000 A 
ATOM     18  C   UNL     1       6.888   5.114  15.953  0.00  0.00    +0.000 A 
ATOM     19  C   UNL     1       6.769   4.519  14.599  0.00  0.00    +0.000 C 
ATOM     20  N   UNL     1       7.506   6.289  16.097  0.00  0.00    +0.000 NA
ATOM     21  N   UNL     1       7.402   6.562  17.409  0.00  0.00    +0.000 N 
ATOM     22  C   UNL     1       7.999   7.779  17.911  0.00  0.00    +0.000 C 
ATOM     23  C   UNL     1       6.717   5.606  18.117  0.00  0.00    +0.000 A 
ATOM     24  C   UNL     1       6.477   5.673  19.581  0.00  0.00    +0.000 C 
ENDBRANCH  15  17
ENDBRANCH  12  15
ENDBRANCH   3  12
BRANCH   1  26
ATOM     25  C   UNL     1       1.922   2.914  21.716  0.00  0.00    +0.000 C 
ATOM     26  O   UNL     1       1.805   4.333  21.540  0.00  0.00    +0.000 OA
ENDBRANCH   1  26
TORSDOF 5
ENDMDL
MODEL 8
REMARK VINA RESULT:      -6.8      4.032      6.689
REMARK  Name = 
REMARK  10 active torsions:
REMARK  status: ('A' for Active; 'I' for Inactive)
REMARK    1  A    between atoms: C_1  and  O_2
REMARK    2  A    between atoms: O_2  and  C_3
REMARK    3  A    between atoms: C_5  and  S_6
REMARK    4  A    between atoms: S_6  and  N_9
REMARK    5  A    between atoms: N_9  and  C_10
REMARK    6  A    between atoms: C_11  and  C_12
REMARK    7  A    between atoms: N_14  and  C_15
REMARK    8  A    between atoms: C_16  and  C_17
REMARK    9  A    between atoms: C_20  and  N_21
REMARK   10  A    between atoms: C_22  and  C_23
REMARK                            x       y       z     vdW  Elec       q    Type
REMARK                         _______ _______ _______ _____ _____    ______ ____
ROOT
ATOM      1  C   UNL     1       0.876  10.159  19.478  0.00  0.00    +0.000 A 
ATOM      2  C   UNL     1       1.648   9.230  18.772  0.00  0.00    +0.000 A 
ATOM      3  C   UNL     1       1.981   8.009  19.352  0.00  0.00    +0.000 A 
ATOM      4  C   UNL     1       1.615   7.726  20.664  0.00  0.00    +0.000 A 
ATOM      5  C   UNL     1       0.798   8.630  21.352  0.00  0.00    +0.000 A 
ATOM      6  C   UNL     1       0.392   9.839  20.766  0.00  0.00    +0.000 A 
ENDROOT
BRANCH   6   7
ATOM      7  N   UNL     1      -0.524  10.715  21.405  0.00  0.00    +0.000 N 
ATOM      8  C   UNL     1      -0.782  10.786  22.764  0.00  0.00    +0.000 C 
ATOM      9  C   UNL     1      -1.969  11.640  23.129  0.00  0.00    +0.000 C 
ATOM     10  O   UNL     1      -0.132  10.245  23.655  0.00  0.00    +0.000 OA
ATOM     11  H   UNL     1      -1.022  11.340  20.777  0.00  0.00    +0.000 HD
ENDBRANCH   6   7
BRANCH   3  12
ATOM     12  S   UNL     1       2.850   6.814  18.372  0.00  0.00    +0.000 S 
ATOM     13  O   UNL     1       1.878   6.032  17.645  0.00  0.00    +0.000 OA
ATOM     14  O   UNL     1       3.918   7.508  17.677  0.00  0.00    +0.000 OA
BRANCH  12  15
ATOM     15  N   UNL     1       3.619   5.826  19.526  0.00  0.00    +0.000 N 
ATOM     16  H   UNL     1       3.416   6.236  20.438  0.00  0.00    +0.000 HD
BRANCH  15  17
ATOM     17  C   UNL     1       3.505   4.429  19.454  0.00  0.00    +0.000 A 
ATOM     18  C   UNL     1       2.824   3.586  20.372  0.00  0.00    +0.000 A 
ATOM     19  C   UNL     1       2.016   3.950  21.561  0.00  0.00    +0.000 C 
ATOM     20  N   UNL     1       2.928   2.300  20.023  0.00  0.00    +0.000 NA
ATOM     21  N   UNL     1       3.672   2.318  18.903  0.00  0.00    +0.000 N 
ATOM     22  C   UNL     1       3.995   1.060  18.269  0.00  0.00    +0.000 C 
ATOM     23  C   UNL     1       4.037   3.580  18.505  0.00  0.00    +0.000 A 
ATOM     24  C   UNL     1       4.865   3.862  17.306  0.00  0.00    +0.000 C 
ENDBRANCH  15  17
ENDBRANCH  12  15
ENDBRANCH   3  12
BRANCH   1  26
ATOM     25  C   UNL     1       1.707  12.187  18.607  0.00  0.00    +0.000 C 
ATOM     26  O   UNL     1       0.562  11.394  18.953  0.00  0.00    +0.000 OA
ENDBRANCH   1  26
TORSDOF 5
ENDMDL
MODEL 9
REMARK VINA RESULT:      -6.8      1.392      2.830
REMARK  Name = 
REMARK  10 active torsions:
REMARK  status: ('A' for Active; 'I' for Inactive)
REMARK    1  A    between atoms: C_1  and  O_2
REMARK    2  A    between atoms: O_2  and  C_3
REMARK    3  A    between atoms: C_5  and  S_6
REMARK    4  A    between atoms: S_6  and  N_9
REMARK    5  A    between atoms: N_9  and  C_10
REMARK    6  A    between atoms: C_11  and  C_12
REMARK    7  A    between atoms: N_14  and  C_15
REMARK    8  A    between atoms: C_16  and  C_17
REMARK    9  A    between atoms: C_20  and  N_21
REMARK   10  A    between atoms: C_22  and  C_23
REMARK                            x       y       z     vdW  Elec       q    Type
REMARK                         _______ _______ _______ _____ _____    ______ ____
ROOT
ATOM      1  C   UNL     1       6.783   5.014  16.905  0.00  0.00    +0.000 A 
ATOM      2  C   UNL     1       6.009   4.289  17.817  0.00  0.00    +0.000 A 
ATOM      3  C   UNL     1       4.892   3.581  17.381  0.00  0.00    +0.000 A 
ATOM      4  C   UNL     1       4.489   3.643  16.052  0.00  0.00    +0.000 A 
ATOM      5  C   UNL     1       5.292   4.324  15.130  0.00  0.00    +0.000 A 
ATOM      6  C   UNL     1       6.460   4.990  15.531  0.00  0.00    +0.000 A 
ENDROOT
BRANCH   6   7
ATOM      7  N   UNL     1       7.343   5.591  14.595  0.00  0.00    +0.000 N 
ATOM      8  C   UNL     1       7.622   5.135  13.318  0.00  0.00    +0.000 C 
ATOM      9  C   UNL     1       8.772   5.837  12.642  0.00  0.00    +0.000 C 
ATOM     10  O   UNL     1       7.016   4.253  12.714  0.00  0.00    +0.000 OA
ATOM     11  H   UNL     1       7.799   6.438  14.925  0.00  0.00    +0.000 HD
ENDBRANCH   6   7
BRANCH   3  12
ATOM     12  S   UNL     1       4.018   2.574  18.550  0.00  0.00    +0.000 S 
ATOM     13  O   UNL     1       3.931   1.234  18.018  0.00  0.00    +0.000 OA
ATOM     14  O   UNL     1       4.594   2.819  19.859  0.00  0.00    +0.000 OA
BRANCH  12  15
ATOM     15  N   UNL     1       2.463   3.263  18.595  0.00  0.00    +0.000 N 
ATOM     16  H   UNL     1       1.805   2.488  18.683  0.00  0.00    +0.000 HD
BRANCH  15  17
ATOM     17  C   UNL     1       2.199   4.372  19.415  0.00  0.00    +0.000 A 
ATOM     18  C   UNL     1       1.722   4.344  20.752  0.00  0.00    +0.000 A 
ATOM     19  C   UNL     1       1.460   3.178  21.632  0.00  0.00    +0.000 C 
ATOM     20  N   UNL     1       1.555   5.577  21.238  0.00  0.00    +0.000 NA
ATOM     21  N   UNL     1       1.913   6.385  20.225  0.00  0.00    +0.000 N 
ATOM     22  C   UNL     1       1.826   7.814  20.418  0.00  0.00    +0.000 C 
ATOM     23  C   UNL     1       2.325   5.710  19.102  0.00  0.00    +0.000 A 
ATOM     24  C   UNL     1       2.760   6.377  17.849  0.00  0.00    +0.000 C 
ENDBRANCH  15  17
ENDBRANCH  12  15
ENDBRANCH   3  12
BRANCH   1  26
ATOM     25  C   UNL     1       7.523   7.023  17.896  0.00  0.00    +0.000 C 
ATOM     26  O   UNL     1       7.870   5.762  17.306  0.00  0.00    +0.000 OA
ENDBRANCH   1  26
TORSDOF 5
ENDMDL
