MODEL 1
REMARK VINA RESULT:      -7.6      0.000      0.000
REMARK  Name = 
REMARK  11 active torsions:
REMARK  status: ('A' for Active; 'I' for Inactive)
REMARK    1  A    between atoms: C_1  and  C_2
REMARK    2  A    between atoms: C_2  and  C_3
REMARK    3  A    between atoms: C_3  and  C_4
REMARK    4  A    between atoms: C_4  and  C_5
REMARK    5  A    between atoms: C_5  and  C_6
REMARK    6  A    between atoms: C_6  and  N_7
REMARK    7  A    between atoms: C_8  and  C_9
REMARK    8  A    between atoms: C_10  and  C_11
REMARK    9  A    between atoms: C_11  and  C_13
REMARK   10  A    between atoms: C_20  and  C_21
REMARK   11  A    between atoms: C_20  and  C_22
REMARK                            x       y       z     vdW  Elec       q    Type
REMARK                         _______ _______ _______ _____ _____    ______ ____
ROOT
ATOM      1  N   UNL     1       5.177   4.944  18.257  0.00  0.00    +0.000 N 
ATOM      2  C   UNL     1       4.506   6.079  17.840  0.00  0.00    +0.000 A 
ATOM      3  C   UNL     1       5.159   7.223  17.134  0.00  0.00    +0.000 C 
ATOM      4  C   UNL     1       3.181   5.962  18.270  0.00  0.00    +0.000 A 
ATOM      5  C   UNL     1       3.077   4.701  18.972  0.00  0.00    +0.000 A 
ATOM      6  C   UNL     1       2.021   4.006  19.603  0.00  0.00    +0.000 A 
ATOM      7  C   UNL     1       2.266   2.789  20.256  0.00  0.00    +0.000 A 
ATOM      8  C   UNL     1       3.551   2.271  20.320  0.00  0.00    +0.000 A 
ATOM      9  C   UNL     1       4.610   2.945  19.712  0.00  0.00    +0.000 A 
ATOM     10  C   UNL     1       4.348   4.132  19.019  0.00  0.00    +0.000 A 
ENDROOT
BRANCH   4  11
ATOM     11  C   UNL     1       2.100   6.958  18.158  0.00  0.00    +0.000 C 
ATOM     12  O   UNL     1       1.283   6.877  17.238  0.00  0.00    +0.000 OA
BRANCH  11  13
ATOM     13  C   UNL     1       2.015   8.177  19.036  0.00  0.00    +0.000 A 
ATOM     14  C   UNL     1       1.755   7.964  20.411  0.00  0.00    +0.000 A 
ATOM     15  C   UNL     1       1.016   8.892  21.158  0.00  0.00    +0.000 A 
ATOM     16  C   UNL     1       0.633  10.052  20.509  0.00  0.00    +0.000 A 
ATOM     17  C   UNL     1       1.253  10.419  19.309  0.00  0.00    +0.000 A 
ATOM     18  C   UNL     1       1.849   9.462  18.515  0.00  0.00    +0.000 A 
ATOM     19  C   UNL     1       0.623  11.671  18.800  0.00  0.00    +0.000 C 
ATOM     20  C   UNL     1      -0.837  11.278  19.090  0.00  0.00    +0.000 C 
ATOM     21  C   UNL     1      -1.349  10.092  18.212  0.00  0.00    +0.000 C 
ATOM     22  C   UNL     1      -1.689  12.485  18.703  0.00  0.00    +0.000 C 
ATOM     23  C   UNL     1      -0.715  10.798  20.594  0.00  0.00    +0.000 C 
ENDBRANCH  11  13
ENDBRANCH   4  11
BRANCH   1  24
ATOM     24  C   UNL     1       6.579   4.621  18.000  0.00  0.00    +0.000 C 
BRANCH  24  25
ATOM     25  C   UNL     1       6.945   4.502  16.519  0.00  0.00    +0.000 C 
BRANCH  25  26
ATOM     26  C   UNL     1       5.919   3.712  15.706  0.00  0.00    +0.000 C 
BRANCH  26  27
ATOM     27  C   UNL     1       5.592   4.427  14.396  0.00  0.00    +0.000 C 
BRANCH  27  29
ATOM     28  C   UNL     1       5.250   3.295  12.178  0.00  0.00    +0.000 C 
ATOM     29  C   UNL     1       6.269   3.738  13.214  0.00  0.00    +0.000 C 
ENDBRANCH  27  29
ENDBRANCH  26  27
ENDBRANCH  25  26
ENDBRANCH  24  25
ENDBRANCH   1  24
TORSDOF 7
ENDMDL
MODEL 2
REMARK VINA RESULT:      -7.6      2.532      7.961
REMARK  Name = 
REMARK  11 active torsions:
REMARK  status: ('A' for Active; 'I' for Inactive)
REMARK    1  A    between atoms: C_1  and  C_2
REMARK    2  A    between atoms: C_2  and  C_3
REMARK    3  A    between atoms: C_3  and  C_4
REMARK    4  A    between atoms: C_4  and  C_5
REMARK    5  A    between atoms: C_5  and  C_6
REMARK    6  A    between atoms: C_6  and  N_7
REMARK    7  A    between atoms: C_8  and  C_9
REMARK    8  A    between atoms: C_10  and  C_11
REMARK    9  A    between atoms: C_11  and  C_13
REMARK   10  A    between atoms: C_20  and  C_21
REMARK   11  A    between atoms: C_20  and  C_22
REMARK                            x       y       z     vdW  Elec       q    Type
REMARK                         _______ _______ _______ _____ _____    ______ ____
ROOT
ATOM      1  N   UNL     1       0.353  10.623  19.475  0.00  0.00    +0.000 N 
ATOM      2  C   UNL     1       1.080   9.559  18.971  0.00  0.00    +0.000 A 
ATOM      3  C   UNL     1       1.468   9.419  17.535  0.00  0.00    +0.000 C 
ATOM      4  C   UNL     1       1.288   8.661  20.023  0.00  0.00    +0.000 A 
ATOM      5  C   UNL     1       0.650   9.228  21.191  0.00  0.00    +0.000 A 
ATOM      6  C   UNL     1       0.530   8.830  22.542  0.00  0.00    +0.000 A 
ATOM      7  C   UNL     1      -0.219   9.602  23.442  0.00  0.00    +0.000 A 
ATOM      8  C   UNL     1      -0.879  10.743  23.012  0.00  0.00    +0.000 A 
ATOM      9  C   UNL     1      -0.782  11.149  21.682  0.00  0.00    +0.000 A 
ATOM     10  C   UNL     1       0.009  10.402  20.801  0.00  0.00    +0.000 A 
ENDROOT
BRANCH   4  11
ATOM     11  C   UNL     1       1.920   7.331  19.967  0.00  0.00    +0.000 C 
ATOM     12  O   UNL     1       2.190   6.736  21.013  0.00  0.00    +0.000 OA
BRANCH  11  13
ATOM     13  C   UNL     1       2.395   6.701  18.686  0.00  0.00    +0.000 A 
ATOM     14  C   UNL     1       1.755   5.506  18.279  0.00  0.00    +0.000 A 
ATOM     15  C   UNL     1       2.458   4.513  17.584  0.00  0.00    +0.000 A 
ATOM     16  C   UNL     1       3.770   4.795  17.246  0.00  0.00    +0.000 A 
ATOM     17  C   UNL     1       4.232   6.116  17.284  0.00  0.00    +0.000 A 
ATOM     18  C   UNL     1       3.611   7.046  18.091  0.00  0.00    +0.000 A 
ATOM     19  C   UNL     1       5.680   6.134  16.928  0.00  0.00    +0.000 C 
ATOM     20  C   UNL     1       6.094   4.907  17.762  0.00  0.00    +0.000 C 
ATOM     21  C   UNL     1       5.976   5.133  19.303  0.00  0.00    +0.000 C 
ATOM     22  C   UNL     1       7.578   4.683  17.483  0.00  0.00    +0.000 C 
ATOM     23  C   UNL     1       4.997   3.861  17.303  0.00  0.00    +0.000 C 
ENDBRANCH  11  13
ENDBRANCH   4  11
BRANCH   1  24
ATOM     24  C   UNL     1      -0.064  11.814  18.738  0.00  0.00    +0.000 C 
BRANCH  24  25
ATOM     25  C   UNL     1      -1.226  11.589  17.768  0.00  0.00    +0.000 C 
BRANCH  25  26
ATOM     26  C   UNL     1      -2.356  10.749  18.364  0.00  0.00    +0.000 C 
BRANCH  26  27
ATOM     27  C   UNL     1      -3.260  10.193  17.265  0.00  0.00    +0.000 C 
BRANCH  27  29
ATOM     28  C   UNL     1      -3.285  10.315  14.754  0.00  0.00    +0.000 C 
ATOM     29  C   UNL     1      -2.471   9.944  15.982  0.00  0.00    +0.000 C 
ENDBRANCH  27  29
ENDBRANCH  26  27
ENDBRANCH  25  26
ENDBRANCH  24  25
ENDBRANCH   1  24
TORSDOF 7
ENDMDL
MODEL 3
REMARK VINA RESULT:      -7.5      6.510      8.988
REMARK  Name = 
REMARK  11 active torsions:
REMARK  status: ('A' for Active; 'I' for Inactive)
REMARK    1  A    between atoms: C_1  and  C_2
REMARK    2  A    between atoms: C_2  and  C_3
REMARK    3  A    between atoms: C_3  and  C_4
REMARK    4  A    between atoms: C_4  and  C_5
REMARK    5  A    between atoms: C_5  and  C_6
REMARK    6  A    between atoms: C_6  and  N_7
REMARK    7  A    between atoms: C_8  and  C_9
REMARK    8  A    between atoms: C_10  and  C_11
REMARK    9  A    between atoms: C_11  and  C_13
REMARK   10  A    between atoms: C_20  and  C_21
REMARK   11  A    between atoms: C_20  and  C_22
REMARK                            x       y       z     vdW  Elec       q    Type
REMARK                         _______ _______ _______ _____ _____    ______ ____
ROOT
ATOM      1  N   UNL     1      -0.806  12.067  20.064  0.00  0.00    +0.000 N 
ATOM      2  C   UNL     1      -1.316  13.129  20.790  0.00  0.00    +0.000 A 
ATOM      3  C   UNL     1      -1.599  14.476  20.209  0.00  0.00    +0.000 C 
ATOM      4  C   UNL     1      -1.423  12.712  22.119  0.00  0.00    +0.000 A 
ATOM      5  C   UNL     1      -0.951  11.345  22.170  0.00  0.00    +0.000 A 
ATOM      6  C   UNL     1      -0.836  10.377  23.194  0.00  0.00    +0.000 A 
ATOM      7  C   UNL     1      -0.276   9.121  22.919  0.00  0.00    +0.000 A 
ATOM      8  C   UNL     1       0.203   8.826  21.652  0.00  0.00    +0.000 A 
ATOM      9  C   UNL     1       0.108   9.769  20.629  0.00  0.00    +0.000 A 
ATOM     10  C   UNL     1      -0.499  11.001  20.898  0.00  0.00    +0.000 A 
ENDROOT
BRANCH   4  11
ATOM     11  C   UNL     1      -1.817  13.514  23.292  0.00  0.00    +0.000 C 
ATOM     12  O   UNL     1      -0.951  13.961  24.048  0.00  0.00    +0.000 OA
BRANCH  11  13
ATOM     13  C   UNL     1      -3.249  13.706  23.710  0.00  0.00    +0.000 A 
ATOM     14  C   UNL     1      -3.798  12.742  24.591  0.00  0.00    +0.000 A 
ATOM     15  C   UNL     1      -5.155  12.397  24.525  0.00  0.00    +0.000 A 
ATOM     16  C   UNL     1      -5.937  13.100  23.625  0.00  0.00    +0.000 A 
ATOM     17  C   UNL     1      -5.471  14.306  23.089  0.00  0.00    +0.000 A 
ATOM     18  C   UNL     1      -4.117  14.563  23.030  0.00  0.00    +0.000 A 
ATOM     19  C   UNL     1      -6.476  14.826  22.118  0.00  0.00    +0.000 C 
ATOM     20  C   UNL     1      -6.786  13.482  21.432  0.00  0.00    +0.000 C 
ATOM     21  C   UNL     1      -5.585  12.906  20.617  0.00  0.00    +0.000 C 
ATOM     22  C   UNL     1      -7.887  13.768  20.413  0.00  0.00    +0.000 C 
ATOM     23  C   UNL     1      -7.046  12.565  22.697  0.00  0.00    +0.000 C 
ENDBRANCH  11  13
ENDBRANCH   4  11
BRANCH   1  24
ATOM     24  C   UNL     1      -0.559  12.039  18.624  0.00  0.00    +0.000 C 
BRANCH  24  25
ATOM     25  C   UNL     1      -1.805  11.800  17.768  0.00  0.00    +0.000 C 
BRANCH  25  26
ATOM     26  C   UNL     1      -2.527  10.495  18.105  0.00  0.00    +0.000 C 
BRANCH  26  27
ATOM     27  C   UNL     1      -3.053   9.819  16.840  0.00  0.00    +0.000 C 
BRANCH  27  29
ATOM     28  C   UNL     1      -3.413  10.105  14.368  0.00  0.00    +0.000 C 
ATOM     29  C   UNL     1      -2.689  10.629  15.597  0.00  0.00    +0.000 C 
ENDBRANCH  27  29
ENDBRANCH  26  27
ENDBRANCH  25  26
ENDBRANCH  24  25
ENDBRANCH   1  24
TORSDOF 7
ENDMDL
MODEL 4
REMARK VINA RESULT:      -7.5      2.559      8.049
REMARK  Name = 
REMARK  11 active torsions:
REMARK  status: ('A' for Active; 'I' for Inactive)
REMARK    1  A    between atoms: C_1  and  C_2
REMARK    2  A    between atoms: C_2  and  C_3
REMARK    3  A    between atoms: C_3  and  C_4
REMARK    4  A    between atoms: C_4  and  C_5
REMARK    5  A    between atoms: C_5  and  C_6
REMARK    6  A    between atoms: C_6  and  N_7
REMARK    7  A    between atoms: C_8  and  C_9
REMARK    8  A    between atoms: C_10  and  C_11
REMARK    9  A    between atoms: C_11  and  C_13
REMARK   10  A    between atoms: C_20  and  C_21
REMARK   11  A    between atoms: C_20  and  C_22
REMARK                            x       y       z     vdW  Elec       q    Type
REMARK                         _______ _______ _______ _____ _____    ______ ____
ROOT
ATOM      1  N   UNL     1       1.206  11.847  20.285  0.00  0.00    +0.000 N 
ATOM      2  C   UNL     1       1.709  11.211  19.165  0.00  0.00    +0.000 A 
ATOM      3  C   UNL     1       2.354  11.923  18.021  0.00  0.00    +0.000 C 
ATOM      4  C   UNL     1       1.425   9.849  19.295  0.00  0.00    +0.000 A 
ATOM      5  C   UNL     1       0.721   9.685  20.549  0.00  0.00    +0.000 A 
ATOM      6  C   UNL     1       0.199   8.575  21.251  0.00  0.00    +0.000 A 
ATOM      7  C   UNL     1      -0.493   8.762  22.456  0.00  0.00    +0.000 A 
ATOM      8  C   UNL     1      -0.704  10.039  22.955  0.00  0.00    +0.000 A 
ATOM      9  C   UNL     1      -0.206  11.149  22.274  0.00  0.00    +0.000 A 
ATOM     10  C   UNL     1       0.528  10.950  21.099  0.00  0.00    +0.000 A 
ENDROOT
BRANCH   4  11
ATOM     11  C   UNL     1       1.666   8.774  18.315  0.00  0.00    +0.000 C 
ATOM     12  O   UNL     1       0.875   8.603  17.385  0.00  0.00    +0.000 OA
BRANCH  11  13
ATOM     13  C   UNL     1       2.768   7.761  18.465  0.00  0.00    +0.000 A 
ATOM     14  C   UNL     1       3.781   7.759  17.475  0.00  0.00    +0.000 A 
ATOM     15  C   UNL     1       4.416   6.569  17.096  0.00  0.00    +0.000 A 
ATOM     16  C   UNL     1       4.067   5.425  17.791  0.00  0.00    +0.000 A 
ATOM     17  C   UNL     1       3.398   5.529  19.017  0.00  0.00    +0.000 A 
ATOM     18  C   UNL     1       2.656   6.654  19.309  0.00  0.00    +0.000 A 
ATOM     19  C   UNL     1       3.098   4.159  19.524  0.00  0.00    +0.000 C 
ATOM     20  C   UNL     1       2.637   3.559  18.183  0.00  0.00    +0.000 C 
ATOM     21  C   UNL     1       1.305   4.175  17.650  0.00  0.00    +0.000 C 
ATOM     22  C   UNL     1       2.339   2.086  18.455  0.00  0.00    +0.000 C 
ATOM     23  C   UNL     1       3.830   4.003  17.242  0.00  0.00    +0.000 C 
ENDBRANCH  11  13
ENDBRANCH   4  11
BRANCH   1  24
ATOM     24  C   UNL     1       1.304  13.273  20.592  0.00  0.00    +0.000 C 
BRANCH  24  25
ATOM     25  C   UNL     1       0.392  14.169  19.751  0.00  0.00    +0.000 C 
BRANCH  25  26
ATOM     26  C   UNL     1      -1.028  13.621  19.608  0.00  0.00    +0.000 C 
BRANCH  26  27
ATOM     27  C   UNL     1      -1.202  12.897  18.275  0.00  0.00    +0.000 C 
BRANCH  27  29
ATOM     28  C   UNL     1      -2.656  11.158  17.187  0.00  0.00    +0.000 C 
ATOM     29  C   UNL     1      -1.949  11.578  18.464  0.00  0.00    +0.000 C 
ENDBRANCH  27  29
ENDBRANCH  26  27
ENDBRANCH  25  26
ENDBRANCH  24  25
ENDBRANCH   1  24
TORSDOF 7
ENDMDL
MODEL 5
REMARK VINA RESULT:      -7.5      1.446      1.993
REMARK  Name = 
REMARK  11 active torsions:
REMARK  status: ('A' for Active; 'I' for Inactive)
REMARK    1  A    between atoms: C_1  and  C_2
REMARK    2  A    between atoms: C_2  and  C_3
REMARK    3  A    between atoms: C_3  and  C_4
REMARK    4  A    between atoms: C_4  and  C_5
REMARK    5  A    between atoms: C_5  and  C_6
REMARK    6  A    between atoms: C_6  and  N_7
REMARK    7  A    between atoms: C_8  and  C_9
REMARK    8  A    between atoms: C_10  and  C_11
REMARK    9  A    between atoms: C_11  and  C_13
REMARK   10  A    between atoms: C_20  and  C_21
REMARK   11  A    between atoms: C_20  and  C_22
REMARK                            x       y       z     vdW  Elec       q    Type
REMARK                         _______ _______ _______ _____ _____    ______ ____
ROOT
ATOM      1  N   UNL     1       4.321   4.789  17.160  0.00  0.00    +0.000 N 
ATOM      2  C   UNL     1       4.133   6.104  17.544  0.00  0.00    +0.000 A 
ATOM      3  C   UNL     1       5.111   7.201  17.271  0.00  0.00    +0.000 C 
ATOM      4  C   UNL     1       2.939   6.161  18.268  0.00  0.00    +0.000 A 
ATOM      5  C   UNL     1       2.409   4.815  18.310  0.00  0.00    +0.000 A 
ATOM      6  C   UNL     1       1.243   4.229  18.853  0.00  0.00    +0.000 A 
ATOM      7  C   UNL     1       1.041   2.844  18.763  0.00  0.00    +0.000 A 
ATOM      8  C   UNL     1       1.995   2.030  18.173  0.00  0.00    +0.000 A 
ATOM      9  C   UNL     1       3.157   2.586  17.638  0.00  0.00    +0.000 A 
ATOM     10  C   UNL     1       3.328   3.974  17.687  0.00  0.00    +0.000 A 
ENDROOT
BRANCH   4  11
ATOM     11  C   UNL     1       2.360   7.319  18.973  0.00  0.00    +0.000 C 
ATOM     12  O   UNL     1       2.194   7.274  20.195  0.00  0.00    +0.000 OA
BRANCH  11  13
ATOM     13  C   UNL     1       1.817   8.527  18.258  0.00  0.00    +0.000 A 
ATOM     14  C   UNL     1       2.726   9.578  17.988  0.00  0.00    +0.000 A 
ATOM     15  C   UNL     1       2.301  10.914  17.979  0.00  0.00    +0.000 A 
ATOM     16  C   UNL     1       0.948  11.140  18.161  0.00  0.00    +0.000 A 
ATOM     17  C   UNL     1       0.036  10.090  18.003  0.00  0.00    +0.000 A 
ATOM     18  C   UNL     1       0.448   8.783  18.161  0.00  0.00    +0.000 A 
ATOM     19  C   UNL     1      -1.337  10.589  18.303  0.00  0.00    +0.000 C 
ATOM     20  C   UNL     1      -0.968  11.411  19.553  0.00  0.00    +0.000 C 
ATOM     21  C   UNL     1      -0.501  10.536  20.759  0.00  0.00    +0.000 C 
ATOM     22  C   UNL     1      -2.254  12.098  20.005  0.00  0.00    +0.000 C 
ATOM     23  C   UNL     1       0.264  12.239  19.001  0.00  0.00    +0.000 C 
ENDBRANCH  11  13
ENDBRANCH   4  11
BRANCH   1  24
ATOM     24  C   UNL     1       5.424   4.269  16.354  0.00  0.00    +0.000 C 
BRANCH  24  25
ATOM     25  C   UNL     1       5.608   4.963  15.003  0.00  0.00    +0.000 C 
BRANCH  25  26
ATOM     26  C   UNL     1       5.083   4.141  13.826  0.00  0.00    +0.000 C 
BRANCH  26  27
ATOM     27  C   UNL     1       6.235   3.544  13.019  0.00  0.00    +0.000 C 
BRANCH  27  29
ATOM     28  C   UNL     1       4.290   3.235  11.456  0.00  0.00    +0.000 C 
ATOM     29  C   UNL     1       5.715   2.821  11.779  0.00  0.00    +0.000 C 
ENDBRANCH  27  29
ENDBRANCH  26  27
ENDBRANCH  25  26
ENDBRANCH  24  25
ENDBRANCH   1  24
TORSDOF 7
ENDMDL
MODEL 6
REMARK VINA RESULT:      -7.4      2.788      8.151
REMARK  Name = 
REMARK  11 active torsions:
REMARK  status: ('A' for Active; 'I' for Inactive)
REMARK    1  A    between atoms: C_1  and  C_2
REMARK    2  A    between atoms: C_2  and  C_3
REMARK    3  A    between atoms: C_3  and  C_4
REMARK    4  A    between atoms: C_4  and  C_5
REMARK    5  A    between atoms: C_5  and  C_6
REMARK    6  A    between atoms: C_6  and  N_7
REMARK    7  A    between atoms: C_8  and  C_9
REMARK    8  A    between atoms: C_10  and  C_11
REMARK    9  A    between atoms: C_11  and  C_13
REMARK   10  A    between atoms: C_20  and  C_21
REMARK   11  A    between atoms: C_20  and  C_22
REMARK                            x       y       z     vdW  Elec       q    Type
REMARK                         _______ _______ _______ _____ _____    ______ ____
ROOT
ATOM      1  N   UNL     1       1.175  12.031  20.132  0.00  0.00    +0.000 N 
ATOM      2  C   UNL     1       1.658  11.332  19.040  0.00  0.00    +0.000 A 
ATOM      3  C   UNL     1       2.309  11.976  17.859  0.00  0.00    +0.000 C 
ATOM      4  C   UNL     1       1.350   9.984  19.239  0.00  0.00    +0.000 A 
ATOM      5  C   UNL     1       0.652   9.894  20.504  0.00  0.00    +0.000 A 
ATOM      6  C   UNL     1       0.115   8.829  21.262  0.00  0.00    +0.000 A 
ATOM      7  C   UNL     1      -0.565   9.088  22.461  0.00  0.00    +0.000 A 
ATOM      8  C   UNL     1      -0.748  10.391  22.899  0.00  0.00    +0.000 A 
ATOM      9  C   UNL     1      -0.235  11.457  22.162  0.00  0.00    +0.000 A 
ATOM     10  C   UNL     1       0.486  11.188  20.993  0.00  0.00    +0.000 A 
ENDROOT
BRANCH   4  11
ATOM     11  C   UNL     1       1.564   8.858  18.311  0.00  0.00    +0.000 C 
ATOM     12  O   UNL     1       0.741   8.631  17.422  0.00  0.00    +0.000 OA
BRANCH  11  13
ATOM     13  C   UNL     1       2.680   7.862  18.474  0.00  0.00    +0.000 A 
ATOM     14  C   UNL     1       3.707   7.880  17.500  0.00  0.00    +0.000 A 
ATOM     15  C   UNL     1       4.367   6.701  17.127  0.00  0.00    +0.000 A 
ATOM     16  C   UNL     1       4.026   5.549  17.814  0.00  0.00    +0.000 A 
ATOM     17  C   UNL     1       3.337   5.639  19.029  0.00  0.00    +0.000 A 
ATOM     18  C   UNL     1       2.572   6.751  19.313  0.00  0.00    +0.000 A 
ATOM     19  C   UNL     1       3.052   4.263  19.528  0.00  0.00    +0.000 C 
ATOM     20  C   UNL     1       2.620   3.660  18.178  0.00  0.00    +0.000 C 
ATOM     21  C   UNL     1       1.287   4.257  17.627  0.00  0.00    +0.000 C 
ATOM     22  C   UNL     1       2.342   2.182  18.441  0.00  0.00    +0.000 C 
ATOM     23  C   UNL     1       3.821   4.126  17.256  0.00  0.00    +0.000 C 
ENDBRANCH  11  13
ENDBRANCH   4  11
BRANCH   1  24
ATOM     24  C   UNL     1       1.302  13.468  20.368  0.00  0.00    +0.000 C 
BRANCH  24  25
ATOM     25  C   UNL     1       2.691  13.919  20.824  0.00  0.00    +0.000 C 
BRANCH  25  26
ATOM     26  C   UNL     1       3.162  15.205  20.145  0.00  0.00    +0.000 C 
BRANCH  26  27
ATOM     27  C   UNL     1       2.374  15.465  18.862  0.00  0.00    +0.000 C 
BRANCH  27  29
ATOM     28  C   UNL     1       4.717  15.098  18.025  0.00  0.00    +0.000 C 
ATOM     29  C   UNL     1       3.304  15.513  17.652  0.00  0.00    +0.000 C 
ENDBRANCH  27  29
ENDBRANCH  26  27
ENDBRANCH  25  26
ENDBRANCH  24  25
ENDBRANCH   1  24
TORSDOF 7
ENDMDL
MODEL 7
REMARK VINA RESULT:      -7.3      2.686      8.770
REMARK  Name = 
REMARK  11 active torsions:
REMARK  status: ('A' for Active; 'I' for Inactive)
REMARK    1  A    between atoms: C_1  and  C_2
REMARK    2  A    between atoms: C_2  and  C_3
REMARK    3  A    between atoms: C_3  and  C_4
REMARK    4  A    between atoms: C_4  and  C_5
REMARK    5  A    between atoms: C_5  and  C_6
REMARK    6  A    between atoms: C_6  and  N_7
REMARK    7  A    between atoms: C_8  and  C_9
REMARK    8  A    between atoms: C_10  and  C_11
REMARK    9  A    between atoms: C_11  and  C_13
REMARK   10  A    between atoms: C_20  and  C_21
REMARK   11  A    between atoms: C_20  and  C_22
REMARK                            x       y       z     vdW  Elec       q    Type
REMARK                         _______ _______ _______ _____ _____    ______ ____
ROOT
ATOM      1  N   UNL     1       0.997  11.978  20.318  0.00  0.00    +0.000 N 
ATOM      2  C   UNL     1       1.501  11.357  19.189  0.00  0.00    +0.000 A 
ATOM      3  C   UNL     1       2.092  12.089  18.028  0.00  0.00    +0.000 C 
ATOM      4  C   UNL     1       1.274   9.985  19.332  0.00  0.00    +0.000 A 
ATOM      5  C   UNL     1       0.605   9.800  20.601  0.00  0.00    +0.000 A 
ATOM      6  C   UNL     1       0.143   8.674  21.319  0.00  0.00    +0.000 A 
ATOM      7  C   UNL     1      -0.529   8.840  22.539  0.00  0.00    +0.000 A 
ATOM      8  C   UNL     1      -0.780  10.109  23.037  0.00  0.00    +0.000 A 
ATOM      9  C   UNL     1      -0.341  11.235  22.341  0.00  0.00    +0.000 A 
ATOM     10  C   UNL     1       0.374  11.059  21.150  0.00  0.00    +0.000 A 
ENDROOT
BRANCH   4  11
ATOM     11  C   UNL     1       1.537   8.916  18.351  0.00  0.00    +0.000 C 
ATOM     12  O   UNL     1       0.750   8.731  17.419  0.00  0.00    +0.000 OA
BRANCH  11  13
ATOM     13  C   UNL     1       2.658   7.924  18.500  0.00  0.00    +0.000 A 
ATOM     14  C   UNL     1       3.685   7.961  17.527  0.00  0.00    +0.000 A 
ATOM     15  C   UNL     1       4.351   6.791  17.138  0.00  0.00    +0.000 A 
ATOM     16  C   UNL     1       4.016   5.628  17.808  0.00  0.00    +0.000 A 
ATOM     17  C   UNL     1       3.326   5.697  19.024  0.00  0.00    +0.000 A 
ATOM     18  C   UNL     1       2.556   6.800  19.324  0.00  0.00    +0.000 A 
ATOM     19  C   UNL     1       3.048   4.313  19.504  0.00  0.00    +0.000 C 
ATOM     20  C   UNL     1       2.620   3.726  18.146  0.00  0.00    +0.000 C 
ATOM     21  C   UNL     1       1.283   4.323  17.603  0.00  0.00    +0.000 C 
ATOM     22  C   UNL     1       2.349   2.243  18.389  0.00  0.00    +0.000 C 
ATOM     23  C   UNL     1       3.818   4.211  17.231  0.00  0.00    +0.000 C 
ENDBRANCH  11  13
ENDBRANCH   4  11
BRANCH   1  24
ATOM     24  C   UNL     1       1.045  13.408  20.616  0.00  0.00    +0.000 C 
BRANCH  24  25
ATOM     25  C   UNL     1      -0.097  14.225  20.007  0.00  0.00    +0.000 C 
BRANCH  25  26
ATOM     26  C   UNL     1      -1.234  14.499  20.991  0.00  0.00    +0.000 C 
BRANCH  26  27
ATOM     27  C   UNL     1      -2.481  13.697  20.622  0.00  0.00    +0.000 C 
BRANCH  27  29
ATOM     28  C   UNL     1      -3.744  12.668  22.537  0.00  0.00    +0.000 C 
ATOM     29  C   UNL     1      -3.585  13.897  21.658  0.00  0.00    +0.000 C 
ENDBRANCH  27  29
ENDBRANCH  26  27
ENDBRANCH  25  26
ENDBRANCH  24  25
ENDBRANCH   1  24
TORSDOF 7
ENDMDL
MODEL 8
REMARK VINA RESULT:      -7.2      1.697      2.706
REMARK  Name = 
REMARK  11 active torsions:
REMARK  status: ('A' for Active; 'I' for Inactive)
REMARK    1  A    between atoms: C_1  and  C_2
REMARK    2  A    between atoms: C_2  and  C_3
REMARK    3  A    between atoms: C_3  and  C_4
REMARK    4  A    between atoms: C_4  and  C_5
REMARK    5  A    between atoms: C_5  and  C_6
REMARK    6  A    between atoms: C_6  and  N_7
REMARK    7  A    between atoms: C_8  and  C_9
REMARK    8  A    between atoms: C_10  and  C_11
REMARK    9  A    between atoms: C_11  and  C_13
REMARK   10  A    between atoms: C_20  and  C_21
REMARK   11  A    between atoms: C_20  and  C_22
REMARK                            x       y       z     vdW  Elec       q    Type
REMARK                         _______ _______ _______ _____ _____    ______ ____
ROOT
ATOM      1  N   UNL     1       3.379   4.925  17.795  0.00  0.00    +0.000 N 
ATOM      2  C   UNL     1       3.247   6.291  17.972  0.00  0.00    +0.000 A 
ATOM      3  C   UNL     1       3.989   7.311  17.171  0.00  0.00    +0.000 C 
ATOM      4  C   UNL     1       2.381   6.490  19.051  0.00  0.00    +0.000 A 
ATOM      5  C   UNL     1       1.994   5.179  19.526  0.00  0.00    +0.000 A 
ATOM      6  C   UNL     1       1.136   4.712  20.547  0.00  0.00    +0.000 A 
ATOM      7  C   UNL     1       1.011   3.337  20.791  0.00  0.00    +0.000 A 
ATOM      8  C   UNL     1       1.752   2.422  20.060  0.00  0.00    +0.000 A 
ATOM      9  C   UNL     1       2.612   2.861  19.053  0.00  0.00    +0.000 A 
ATOM     10  C   UNL     1       2.692   4.231  18.781  0.00  0.00    +0.000 A 
ENDROOT
BRANCH   4  11
ATOM     11  C   UNL     1       2.008   7.765  19.690  0.00  0.00    +0.000 C 
ATOM     12  O   UNL     1       2.094   7.885  20.915  0.00  0.00    +0.000 OA
BRANCH  11  13
ATOM     13  C   UNL     1       1.380   8.906  18.938  0.00  0.00    +0.000 A 
ATOM     14  C   UNL     1       2.256   9.818  18.301  0.00  0.00    +0.000 A 
ATOM     15  C   UNL     1       1.921  11.173  18.180  0.00  0.00    +0.000 A 
ATOM     16  C   UNL     1       0.669  11.551  18.631  0.00  0.00    +0.000 A 
ATOM     17  C   UNL     1      -0.314  10.581  18.856  0.00  0.00    +0.000 A 
ATOM     18  C   UNL     1       0.045   9.276  19.120  0.00  0.00    +0.000 A 
ATOM     19  C   UNL     1      -1.541  11.246  19.382  0.00  0.00    +0.000 C 
ATOM     20  C   UNL     1      -0.833  12.195  20.366  0.00  0.00    +0.000 C 
ATOM     21  C   UNL     1      -0.139  11.457  21.555  0.00  0.00    +0.000 C 
ATOM     22  C   UNL     1      -1.927  13.059  20.988  0.00  0.00    +0.000 C 
ATOM     23  C   UNL     1       0.276  12.817  19.420  0.00  0.00    +0.000 C 
ENDBRANCH  11  13
ENDBRANCH   4  11
BRANCH   1  24
ATOM     24  C   UNL     1       4.163   4.256  16.758  0.00  0.00    +0.000 C 
BRANCH  24  25
ATOM     25  C   UNL     1       5.643   4.068  17.100  0.00  0.00    +0.000 C 
BRANCH  25  26
ATOM     26  C   UNL     1       6.576   4.362  15.926  0.00  0.00    +0.000 C 
BRANCH  26  27
ATOM     27  C   UNL     1       7.284   5.703  16.114  0.00  0.00    +0.000 C 
BRANCH  27  29
ATOM     28  C   UNL     1       7.698   7.550  17.769  0.00  0.00    +0.000 C 
ATOM     29  C   UNL     1       7.354   6.080  17.592  0.00  0.00    +0.000 C 
ENDBRANCH  27  29
ENDBRANCH  26  27
ENDBRANCH  25  26
ENDBRANCH  24  25
ENDBRANCH   1  24
TORSDOF 7
ENDMDL
MODEL 9
REMARK VINA RESULT:      -7.1      1.988      4.220
REMARK  Name = 
REMARK  11 active torsions:
REMARK  status: ('A' for Active; 'I' for Inactive)
REMARK    1  A    between atoms: C_1  and  C_2
REMARK    2  A    between atoms: C_2  and  C_3
REMARK    3  A    between atoms: C_3  and  C_4
REMARK    4  A    between atoms: C_4  and  C_5
REMARK    5  A    between atoms: C_5  and  C_6
REMARK    6  A    between atoms: C_6  and  N_7
REMARK    7  A    between atoms: C_8  and  C_9
REMARK    8  A    between atoms: C_10  and  C_11
REMARK    9  A    between atoms: C_11  and  C_13
REMARK   10  A    between atoms: C_20  and  C_21
REMARK   11  A    between atoms: C_20  and  C_22
REMARK                            x       y       z     vdW  Elec       q    Type
REMARK                         _______ _______ _______ _____ _____    ______ ____
ROOT
ATOM      1  N   UNL     1       2.729   5.860  20.193  0.00  0.00    +0.000 N 
ATOM      2  C   UNL     1       1.981   7.010  20.014  0.00  0.00    +0.000 A 
ATOM      3  C   UNL     1       0.859   7.424  20.911  0.00  0.00    +0.000 C 
ATOM      4  C   UNL     1       2.426   7.618  18.836  0.00  0.00    +0.000 A 
ATOM      5  C   UNL     1       3.479   6.781  18.304  0.00  0.00    +0.000 A 
ATOM      6  C   UNL     1       4.331   6.861  17.179  0.00  0.00    +0.000 A 
ATOM      7  C   UNL     1       5.242   5.830  16.908  0.00  0.00    +0.000 A 
ATOM      8  C   UNL     1       5.295   4.706  17.718  0.00  0.00    +0.000 A 
ATOM      9  C   UNL     1       4.458   4.602  18.829  0.00  0.00    +0.000 A 
ATOM     10  C   UNL     1       3.587   5.658  19.122  0.00  0.00    +0.000 A 
ENDROOT
BRANCH   4  11
ATOM     11  C   UNL     1       1.874   8.810  18.167  0.00  0.00    +0.000 C 
ATOM     12  O   UNL     1       2.318   9.159  17.070  0.00  0.00    +0.000 OA
BRANCH  11  13
ATOM     13  C   UNL     1       0.879   9.731  18.820  0.00  0.00    +0.000 A 
ATOM     14  C   UNL     1      -0.393   9.842  18.208  0.00  0.00    +0.000 A 
ATOM     15  C   UNL     1      -1.110  11.046  18.252  0.00  0.00    +0.000 A 
ATOM     16  C   UNL     1      -0.555  12.078  18.988  0.00  0.00    +0.000 A 
ATOM     17  C   UNL     1       0.464  11.809  19.909  0.00  0.00    +0.000 A 
ATOM     18  C   UNL     1       1.256  10.690  19.762  0.00  0.00    +0.000 A 
ATOM     19  C   UNL     1       0.913  13.092  20.523  0.00  0.00    +0.000 C 
ATOM     20  C   UNL     1       0.933  13.924  19.227  0.00  0.00    +0.000 C 
ATOM     21  C   UNL     1       2.028  13.468  18.212  0.00  0.00    +0.000 C 
ATOM     22  C   UNL     1       1.307  15.346  19.639  0.00  0.00    +0.000 C 
ATOM     23  C   UNL     1      -0.497  13.580  18.641  0.00  0.00    +0.000 C 
ENDBRANCH  11  13
ENDBRANCH   4  11
BRANCH   1  24
ATOM     24  C   UNL     1       2.630   4.927  21.313  0.00  0.00    +0.000 C 
BRANCH  24  25
ATOM     25  C   UNL     1       1.962   3.592  20.973  0.00  0.00    +0.000 C 
BRANCH  25  26
ATOM     26  C   UNL     1       0.678   3.750  20.159  0.00  0.00    +0.000 C 
BRANCH  26  27
ATOM     27  C   UNL     1       0.800   3.050  18.807  0.00  0.00    +0.000 C 
BRANCH  27  29
ATOM     28  C   UNL     1       2.728   1.977  17.602  0.00  0.00    +0.000 C 
ATOM     29  C   UNL     1       1.865   1.957  18.852  0.00  0.00    +0.000 C 
ENDBRANCH  27  29
ENDBRANCH  26  27
ENDBRANCH  25  26
ENDBRANCH  24  25
ENDBRANCH   1  24
TORSDOF 7
ENDMDL
