MODEL 1
REMARK VINA RESULT:      -8.3      0.000      0.000
REMARK  Name = 
REMARK  7 active torsions:
REMARK  status: ('A' for Active; 'I' for Inactive)
REMARK    1  A    between atoms: C_1  and  C_2
REMARK    2  A    between atoms: C_3  and  C_4
REMARK    3  A    between atoms: C_5  and  C_6
REMARK    4  A    between atoms: C_6  and  C_8
REMARK    5  A    between atoms: C_9  and  C_10
REMARK    6  A    between atoms: C_16  and  C_17
REMARK    7  A    between atoms: C_16  and  C_18
REMARK                            x       y       z     vdW  Elec       q    Type
REMARK                         _______ _______ _______ _____ _____    ______ ____
ROOT
ATOM      1  C   UNL     1       4.789   4.156  18.728  0.00  0.00    +0.000 C 
ATOM      2  C   UNL     1       5.755   4.974  19.179  0.00  0.00    +0.000 C 
ENDROOT
BRANCH   1   5
ATOM      3  C   UNL     1       4.540   1.952  20.763  0.00  0.00    +0.000 C 
ATOM      4  C   UNL     1       3.411   2.848  20.310  0.00  0.00    +0.000 C 
ATOM      5  C   UNL     1       3.529   3.877  19.432  0.00  0.00    +0.000 C 
ATOM      6  C   UNL     1       2.360   4.866  19.172  0.00  0.00    +0.000 C 
ATOM      7  C   UNL     1       2.803   6.343  19.281  0.00  0.00    +0.000 C 
ATOM      8  C   UNL     1       1.778   4.640  17.760  0.00  0.00    +0.000 C 
ATOM      9  C   UNL     1       1.222   4.688  20.218  0.00  0.00    +0.000 C 
ATOM     10  C   UNL     1       0.888   3.228  20.461  0.00  0.00    +0.000 C 
ATOM     11  C   UNL     1       2.109   2.506  21.008  0.00  0.00    +0.000 C 
ENDBRANCH   1   5
BRANCH   2  12
ATOM     12  C   UNL     1       6.988   5.222  18.374  0.00  0.00    +0.000 C 
ATOM     13  O   UNL     1       7.944   5.862  18.797  0.00  0.00    +0.000 OA
BRANCH  12  14
ATOM     14  C   UNL     1       6.966   4.626  17.006  0.00  0.00    +0.000 C 
ATOM     15  C   UNL     1       6.910   5.384  15.900  0.00  0.00    +0.000 C 
BRANCH  15  16
ATOM     16  C   UNL     1       6.839   4.831  14.531  0.00  0.00    +0.000 A 
ATOM     17  C   UNL     1       7.703   5.328  13.542  0.00  0.00    +0.000 A 
ATOM     18  C   UNL     1       7.633   4.856  12.227  0.00  0.00    +0.000 A 
ATOM     19  C   UNL     1       6.711   3.870  11.883  0.00  0.00    +0.000 A 
ATOM     20  C   UNL     1       5.873   3.341  12.861  0.00  0.00    +0.000 A 
ATOM     21  C   UNL     1       5.946   3.810  14.177  0.00  0.00    +0.000 A 
ENDBRANCH  15  16
ENDBRANCH  12  14
ENDBRANCH   2  12
TORSDOF 4
ENDMDL
MODEL 2
REMARK VINA RESULT:      -8.3      0.883      2.101
REMARK  Name = 
REMARK  7 active torsions:
REMARK  status: ('A' for Active; 'I' for Inactive)
REMARK    1  A    between atoms: C_1  and  C_2
REMARK    2  A    between atoms: C_3  and  C_4
REMARK    3  A    between atoms: C_5  and  C_6
REMARK    4  A    between atoms: C_6  and  C_8
REMARK    5  A    between atoms: C_9  and  C_10
REMARK    6  A    between atoms: C_16  and  C_17
REMARK    7  A    between atoms: C_16  and  C_18
REMARK                            x       y       z     vdW  Elec       q    Type
REMARK                         _______ _______ _______ _____ _____    ______ ____
ROOT
ATOM      1  C   UNL     1       4.539   5.270  18.547  0.00  0.00    +0.000 C 
ATOM      2  C   UNL     1       5.807   5.212  18.989  0.00  0.00    +0.000 C 
ENDROOT
BRANCH   1   5
ATOM      3  C   UNL     1       2.353   6.877  19.851  0.00  0.00    +0.000 C 
ATOM      4  C   UNL     1       2.435   5.368  19.840  0.00  0.00    +0.000 C 
ATOM      5  C   UNL     1       3.389   4.637  19.209  0.00  0.00    +0.000 C 
ATOM      6  C   UNL     1       3.286   3.092  19.087  0.00  0.00    +0.000 C 
ATOM      7  C   UNL     1       3.499   2.601  17.636  0.00  0.00    +0.000 C 
ATOM      8  C   UNL     1       4.347   2.418  19.984  0.00  0.00    +0.000 C 
ATOM      9  C   UNL     1       1.878   2.582  19.504  0.00  0.00    +0.000 C 
ATOM     10  C   UNL     1       1.383   3.237  20.781  0.00  0.00    +0.000 C 
ATOM     11  C   UNL     1       1.268   4.738  20.576  0.00  0.00    +0.000 C 
ENDBRANCH   1   5
BRANCH   2  12
ATOM     12  C   UNL     1       6.905   5.919  18.267  0.00  0.00    +0.000 C 
ATOM     13  O   UNL     1       7.793   6.539  18.842  0.00  0.00    +0.000 OA
BRANCH  12  14
ATOM     14  C   UNL     1       6.840   5.811  16.780  0.00  0.00    +0.000 C 
ATOM     15  C   UNL     1       6.909   4.628  16.149  0.00  0.00    +0.000 C 
BRANCH  15  16
ATOM     16  C   UNL     1       6.896   4.483  14.678  0.00  0.00    +0.000 A 
ATOM     17  C   UNL     1       7.777   5.253  13.902  0.00  0.00    +0.000 A 
ATOM     18  C   UNL     1       7.761   5.171  12.506  0.00  0.00    +0.000 A 
ATOM     19  C   UNL     1       6.878   4.307  11.863  0.00  0.00    +0.000 A 
ATOM     20  C   UNL     1       6.025   3.509  12.620  0.00  0.00    +0.000 A 
ATOM     21  C   UNL     1       6.043   3.589  14.016  0.00  0.00    +0.000 A 
ENDBRANCH  15  16
ENDBRANCH  12  14
ENDBRANCH   2  12
TORSDOF 4
ENDMDL
MODEL 3
REMARK VINA RESULT:      -8.2      0.776      2.325
REMARK  Name = 
REMARK  7 active torsions:
REMARK  status: ('A' for Active; 'I' for Inactive)
REMARK    1  A    between atoms: C_1  and  C_2
REMARK    2  A    between atoms: C_3  and  C_4
REMARK    3  A    between atoms: C_5  and  C_6
REMARK    4  A    between atoms: C_6  and  C_8
REMARK    5  A    between atoms: C_9  and  C_10
REMARK    6  A    between atoms: C_16  and  C_17
REMARK    7  A    between atoms: C_16  and  C_18
REMARK                            x       y       z     vdW  Elec       q    Type
REMARK                         _______ _______ _______ _____ _____    ______ ____
ROOT
ATOM      1  C   UNL     1       4.553   4.985  18.655  0.00  0.00    +0.000 C 
ATOM      2  C   UNL     1       5.831   4.745  18.994  0.00  0.00    +0.000 C 
ENDROOT
BRANCH   1   5
ATOM      3  C   UNL     1       2.344   6.656  19.833  0.00  0.00    +0.000 C 
ATOM      4  C   UNL     1       2.416   5.147  19.887  0.00  0.00    +0.000 C 
ATOM      5  C   UNL     1       3.383   4.386  19.312  0.00  0.00    +0.000 C 
ATOM      6  C   UNL     1       3.274   2.838  19.253  0.00  0.00    +0.000 C 
ATOM      7  C   UNL     1       3.522   2.286  17.830  0.00  0.00    +0.000 C 
ATOM      8  C   UNL     1       4.307   2.197  20.204  0.00  0.00    +0.000 C 
ATOM      9  C   UNL     1       1.852   2.353  19.654  0.00  0.00    +0.000 C 
ATOM     10  C   UNL     1       1.329   3.062  20.889  0.00  0.00    +0.000 C 
ATOM     11  C   UNL     1       1.227   4.555  20.618  0.00  0.00    +0.000 C 
ENDBRANCH   1   5
BRANCH   2  12
ATOM     12  C   UNL     1       6.955   5.430  18.289  0.00  0.00    +0.000 C 
ATOM     13  O   UNL     1       7.637   6.305  18.812  0.00  0.00    +0.000 OA
BRANCH  12  14
ATOM     14  C   UNL     1       7.186   4.964  16.891  0.00  0.00    +0.000 C 
ATOM     15  C   UNL     1       6.387   5.332  15.877  0.00  0.00    +0.000 C 
BRANCH  15  16
ATOM     16  C   UNL     1       6.555   4.853  14.488  0.00  0.00    +0.000 A 
ATOM     17  C   UNL     1       5.647   3.916  13.968  0.00  0.00    +0.000 A 
ATOM     18  C   UNL     1       5.802   3.413  12.673  0.00  0.00    +0.000 A 
ATOM     19  C   UNL     1       6.855   3.847  11.871  0.00  0.00    +0.000 A 
ATOM     20  C   UNL     1       7.740   4.804  12.358  0.00  0.00    +0.000 A 
ATOM     21  C   UNL     1       7.584   5.311  13.653  0.00  0.00    +0.000 A 
ENDBRANCH  15  16
ENDBRANCH  12  14
ENDBRANCH   2  12
TORSDOF 4
ENDMDL
MODEL 4
REMARK VINA RESULT:      -8.1      0.232      1.076
REMARK  Name = 
REMARK  7 active torsions:
REMARK  status: ('A' for Active; 'I' for Inactive)
REMARK    1  A    between atoms: C_1  and  C_2
REMARK    2  A    between atoms: C_3  and  C_4
REMARK    3  A    between atoms: C_5  and  C_6
REMARK    4  A    between atoms: C_6  and  C_8
REMARK    5  A    between atoms: C_9  and  C_10
REMARK    6  A    between atoms: C_16  and  C_17
REMARK    7  A    between atoms: C_16  and  C_18
REMARK                            x       y       z     vdW  Elec       q    Type
REMARK                         _______ _______ _______ _____ _____    ______ ____
ROOT
ATOM      1  C   UNL     1       4.645   4.546  18.598  0.00  0.00    +0.000 C 
ATOM      2  C   UNL     1       5.855   4.732  19.153  0.00  0.00    +0.000 C 
ENDROOT
BRANCH   1   5
ATOM      3  C   UNL     1       4.646   2.108  20.363  0.00  0.00    +0.000 C 
ATOM      4  C   UNL     1       3.442   2.974  20.078  0.00  0.00    +0.000 C 
ATOM      5  C   UNL     1       3.446   4.104  19.325  0.00  0.00    +0.000 C 
ATOM      6  C   UNL     1       2.207   5.036  19.245  0.00  0.00    +0.000 C 
ATOM      7  C   UNL     1       2.566   6.516  19.508  0.00  0.00    +0.000 C 
ATOM      8  C   UNL     1       1.560   4.938  17.846  0.00  0.00    +0.000 C 
ATOM      9  C   UNL     1       1.144   4.662  20.317  0.00  0.00    +0.000 C 
ATOM     10  C   UNL     1       0.913   3.164  20.400  0.00  0.00    +0.000 C 
ATOM     11  C   UNL     1       2.205   2.467  20.795  0.00  0.00    +0.000 C 
ENDBRANCH   1   5
BRANCH   2  12
ATOM     12  C   UNL     1       7.007   5.219  18.338  0.00  0.00    +0.000 C 
ATOM     13  O   UNL     1       7.845   6.003  18.768  0.00  0.00    +0.000 OA
BRANCH  12  14
ATOM     14  C   UNL     1       7.061   4.671  16.951  0.00  0.00    +0.000 C 
ATOM     15  C   UNL     1       6.839   5.439  15.874  0.00  0.00    +0.000 C 
BRANCH  15  16
ATOM     16  C   UNL     1       6.836   4.924  14.488  0.00  0.00    +0.000 A 
ATOM     17  C   UNL     1       5.930   3.912  14.131  0.00  0.00    +0.000 A 
ATOM     18  C   UNL     1       5.930   3.374  12.840  0.00  0.00    +0.000 A 
ATOM     19  C   UNL     1       6.821   3.849  11.881  0.00  0.00    +0.000 A 
ATOM     20  C   UNL     1       7.699   4.878  12.209  0.00  0.00    +0.000 A 
ATOM     21  C   UNL     1       7.697   5.419  13.499  0.00  0.00    +0.000 A 
ENDBRANCH  15  16
ENDBRANCH  12  14
ENDBRANCH   2  12
TORSDOF 4
ENDMDL
MODEL 5
REMARK VINA RESULT:      -7.8      4.113      6.040
REMARK  Name = 
REMARK  7 active torsions:
REMARK  status: ('A' for Active; 'I' for Inactive)
REMARK    1  A    between atoms: C_1  and  C_2
REMARK    2  A    between atoms: C_3  and  C_4
REMARK    3  A    between atoms: C_5  and  C_6
REMARK    4  A    between atoms: C_6  and  C_8
REMARK    5  A    between atoms: C_9  and  C_10
REMARK    6  A    between atoms: C_16  and  C_17
REMARK    7  A    between atoms: C_16  and  C_18
REMARK                            x       y       z     vdW  Elec       q    Type
REMARK                         _______ _______ _______ _____ _____    ______ ____
ROOT
ATOM      1  C   UNL     1       5.080   6.265  17.439  0.00  0.00    +0.000 C 
ATOM      2  C   UNL     1       6.263   6.395  18.063  0.00  0.00    +0.000 C 
ENDROOT
BRANCH   1   5
ATOM      3  C   UNL     1       2.715   7.995  18.129  0.00  0.00    +0.000 C 
ATOM      4  C   UNL     1       2.820   6.514  18.409  0.00  0.00    +0.000 C 
ATOM      5  C   UNL     1       3.862   5.718  18.053  0.00  0.00    +0.000 C 
ATOM      6  C   UNL     1       3.799   4.175  18.208  0.00  0.00    +0.000 C 
ATOM      7  C   UNL     1       4.212   3.437  16.913  0.00  0.00    +0.000 C 
ATOM      8  C   UNL     1       4.740   3.717  19.343  0.00  0.00    +0.000 C 
ATOM      9  C   UNL     1       2.356   3.693  18.527  0.00  0.00    +0.000 C 
ATOM     10  C   UNL     1       1.685   4.549  19.586  0.00  0.00    +0.000 C 
ATOM     11  C   UNL     1       1.575   5.983  19.092  0.00  0.00    +0.000 C 
ENDBRANCH   1   5
BRANCH   2  12
ATOM     12  C   UNL     1       7.437   6.997  17.366  0.00  0.00    +0.000 C 
ATOM     13  O   UNL     1       7.812   6.637  16.255  0.00  0.00    +0.000 OA
BRANCH  12  14
ATOM     14  C   UNL     1       8.123   8.080  18.129  0.00  0.00    +0.000 C 
ATOM     15  C   UNL     1       8.155   9.349  17.691  0.00  0.00    +0.000 C 
BRANCH  15  16
ATOM     16  C   UNL     1       8.864  10.439  18.393  0.00  0.00    +0.000 A 
ATOM     17  C   UNL     1       8.916  11.715  17.809  0.00  0.00    +0.000 A 
ATOM     18  C   UNL     1       9.614  12.758  18.427  0.00  0.00    +0.000 A 
ATOM     19  C   UNL     1      10.258  12.548  19.644  0.00  0.00    +0.000 A 
ATOM     20  C   UNL     1      10.184  11.299  20.254  0.00  0.00    +0.000 A 
ATOM     21  C   UNL     1       9.483  10.257  19.638  0.00  0.00    +0.000 A 
ENDBRANCH  15  16
ENDBRANCH  12  14
ENDBRANCH   2  12
TORSDOF 4
ENDMDL
MODEL 6
REMARK VINA RESULT:      -7.7      3.963      8.060
REMARK  Name = 
REMARK  7 active torsions:
REMARK  status: ('A' for Active; 'I' for Inactive)
REMARK    1  A    between atoms: C_1  and  C_2
REMARK    2  A    between atoms: C_3  and  C_4
REMARK    3  A    between atoms: C_5  and  C_6
REMARK    4  A    between atoms: C_6  and  C_8
REMARK    5  A    between atoms: C_9  and  C_10
REMARK    6  A    between atoms: C_16  and  C_17
REMARK    7  A    between atoms: C_16  and  C_18
REMARK                            x       y       z     vdW  Elec       q    Type
REMARK                         _______ _______ _______ _____ _____    ______ ____
ROOT
ATOM      1  C   UNL     1       2.594   6.281  19.179  0.00  0.00    +0.000 C 
ATOM      2  C   UNL     1       2.596   7.064  18.087  0.00  0.00    +0.000 C 
ENDROOT
BRANCH   1   5
ATOM      3  C   UNL     1       5.501   5.503  19.244  0.00  0.00    +0.000 C 
ATOM      4  C   UNL     1       4.343   4.534  19.184  0.00  0.00    +0.000 C 
ATOM      5  C   UNL     1       3.029   4.877  19.207  0.00  0.00    +0.000 C 
ATOM      6  C   UNL     1       1.910   3.809  19.337  0.00  0.00    +0.000 C 
ATOM      7  C   UNL     1       0.895   4.154  20.452  0.00  0.00    +0.000 C 
ATOM      8  C   UNL     1       1.138   3.685  18.005  0.00  0.00    +0.000 C 
ATOM      9  C   UNL     1       2.493   2.417  19.712  0.00  0.00    +0.000 C 
ATOM     10  C   UNL     1       3.725   2.071  18.896  0.00  0.00    +0.000 C 
ATOM     11  C   UNL     1       4.818   3.094  19.158  0.00  0.00    +0.000 C 
ENDBRANCH   1   5
BRANCH   2  12
ATOM     12  C   UNL     1       2.169   8.492  18.165  0.00  0.00    +0.000 C 
ATOM     13  O   UNL     1       2.329   9.288  17.247  0.00  0.00    +0.000 OA
BRANCH  12  14
ATOM     14  C   UNL     1       1.524   8.877  19.454  0.00  0.00    +0.000 C 
ATOM     15  C   UNL     1       0.487   9.727  19.505  0.00  0.00    +0.000 C 
BRANCH  15  16
ATOM     16  C   UNL     1      -0.147  10.170  20.765  0.00  0.00    +0.000 A 
ATOM     17  C   UNL     1      -0.874  11.371  20.785  0.00  0.00    +0.000 A 
ATOM     18  C   UNL     1      -1.451  11.839  21.970  0.00  0.00    +0.000 A 
ATOM     19  C   UNL     1      -1.326  11.109  23.149  0.00  0.00    +0.000 A 
ATOM     20  C   UNL     1      -0.641   9.897  23.137  0.00  0.00    +0.000 A 
ATOM     21  C   UNL     1      -0.067   9.427  21.951  0.00  0.00    +0.000 A 
ENDBRANCH  15  16
ENDBRANCH  12  14
ENDBRANCH   2  12
TORSDOF 4
ENDMDL
MODEL 7
REMARK VINA RESULT:      -7.7      3.877      5.865
REMARK  Name = 
REMARK  7 active torsions:
REMARK  status: ('A' for Active; 'I' for Inactive)
REMARK    1  A    between atoms: C_1  and  C_2
REMARK    2  A    between atoms: C_3  and  C_4
REMARK    3  A    between atoms: C_5  and  C_6
REMARK    4  A    between atoms: C_6  and  C_8
REMARK    5  A    between atoms: C_9  and  C_10
REMARK    6  A    between atoms: C_16  and  C_17
REMARK    7  A    between atoms: C_16  and  C_18
REMARK                            x       y       z     vdW  Elec       q    Type
REMARK                         _______ _______ _______ _____ _____    ______ ____
ROOT
ATOM      1  C   UNL     1       4.886   5.979  17.778  0.00  0.00    +0.000 C 
ATOM      2  C   UNL     1       6.129   6.115  18.274  0.00  0.00    +0.000 C 
ENDROOT
BRANCH   1   5
ATOM      3  C   UNL     1       2.665   7.695  18.864  0.00  0.00    +0.000 C 
ATOM      4  C   UNL     1       2.775   6.200  19.045  0.00  0.00    +0.000 C 
ATOM      5  C   UNL     1       3.747   5.413  18.513  0.00  0.00    +0.000 C 
ATOM      6  C   UNL     1       3.674   3.864  18.589  0.00  0.00    +0.000 C 
ATOM      7  C   UNL     1       3.902   3.197  17.213  0.00  0.00    +0.000 C 
ATOM      8  C   UNL     1       4.744   3.330  19.566  0.00  0.00    +0.000 C 
ATOM      9  C   UNL     1       2.274   3.383  19.065  0.00  0.00    +0.000 C 
ATOM     10  C   UNL     1       1.762   4.184  20.248  0.00  0.00    +0.000 C 
ATOM     11  C   UNL     1       1.618   5.645  19.853  0.00  0.00    +0.000 C 
ENDBRANCH   1   5
BRANCH   2  12
ATOM     12  C   UNL     1       7.216   6.737  17.461  0.00  0.00    +0.000 C 
ATOM     13  O   UNL     1       7.427   6.442  16.290  0.00  0.00    +0.000 OA
BRANCH  12  14
ATOM     14  C   UNL     1       8.029   7.755  18.189  0.00  0.00    +0.000 C 
ATOM     15  C   UNL     1       8.119   9.027  17.769  0.00  0.00    +0.000 C 
BRANCH  15  16
ATOM     16  C   UNL     1       8.951  10.051  18.433  0.00  0.00    +0.000 A 
ATOM     17  C   UNL     1       9.009  10.087  19.836  0.00  0.00    +0.000 A 
ATOM     18  C   UNL     1       9.754  11.070  20.496  0.00  0.00    +0.000 A 
ATOM     19  C   UNL     1      10.465  12.021  19.769  0.00  0.00    +0.000 A 
ATOM     20  C   UNL     1      10.448  11.975  18.377  0.00  0.00    +0.000 A 
ATOM     21  C   UNL     1       9.706  10.990  17.716  0.00  0.00    +0.000 A 
ENDBRANCH  15  16
ENDBRANCH  12  14
ENDBRANCH   2  12
TORSDOF 4
ENDMDL
MODEL 8
REMARK VINA RESULT:      -7.7      3.940      8.074
REMARK  Name = 
REMARK  7 active torsions:
REMARK  status: ('A' for Active; 'I' for Inactive)
REMARK    1  A    between atoms: C_1  and  C_2
REMARK    2  A    between atoms: C_3  and  C_4
REMARK    3  A    between atoms: C_5  and  C_6
REMARK    4  A    between atoms: C_6  and  C_8
REMARK    5  A    between atoms: C_9  and  C_10
REMARK    6  A    between atoms: C_16  and  C_17
REMARK    7  A    between atoms: C_16  and  C_18
REMARK                            x       y       z     vdW  Elec       q    Type
REMARK                         _______ _______ _______ _____ _____    ______ ____
ROOT
ATOM      1  C   UNL     1       2.679   6.356  19.195  0.00  0.00    +0.000 C 
ATOM      2  C   UNL     1       2.557   7.089  18.075  0.00  0.00    +0.000 C 
ENDROOT
BRANCH   1   5
ATOM      3  C   UNL     1       5.564   5.500  19.273  0.00  0.00    +0.000 C 
ATOM      4  C   UNL     1       4.380   4.563  19.217  0.00  0.00    +0.000 C 
ATOM      5  C   UNL     1       3.076   4.942  19.234  0.00  0.00    +0.000 C 
ATOM      6  C   UNL     1       1.928   3.905  19.368  0.00  0.00    +0.000 C 
ATOM      7  C   UNL     1       0.920   4.284  20.478  0.00  0.00    +0.000 C 
ATOM      8  C   UNL     1       1.157   3.792  18.035  0.00  0.00    +0.000 C 
ATOM      9  C   UNL     1       2.472   2.500  19.753  0.00  0.00    +0.000 C 
ATOM     10  C   UNL     1       3.696   2.115  18.943  0.00  0.00    +0.000 C 
ATOM     11  C   UNL     1       4.816   3.111  19.202  0.00  0.00    +0.000 C 
ENDBRANCH   1   5
BRANCH   2  12
ATOM     12  C   UNL     1       2.182   8.532  18.139  0.00  0.00    +0.000 C 
ATOM     13  O   UNL     1       2.343   9.307  17.203  0.00  0.00    +0.000 OA
BRANCH  12  14
ATOM     14  C   UNL     1       1.589   8.962  19.440  0.00  0.00    +0.000 C 
ATOM     15  C   UNL     1       0.461   9.686  19.502  0.00  0.00    +0.000 C 
BRANCH  15  16
ATOM     16  C   UNL     1      -0.131  10.171  20.767  0.00  0.00    +0.000 A 
ATOM     17  C   UNL     1      -0.097   9.348  21.904  0.00  0.00    +0.000 A 
ATOM     18  C   UNL     1      -0.684   9.760  23.104  0.00  0.00    +0.000 A 
ATOM     19  C   UNL     1      -1.301  11.006  23.194  0.00  0.00    +0.000 A 
ATOM     20  C   UNL     1      -1.309  11.849  22.086  0.00  0.00    +0.000 A 
ATOM     21  C   UNL     1      -0.719  11.439  20.886  0.00  0.00    +0.000 A 
ENDBRANCH  15  16
ENDBRANCH  12  14
ENDBRANCH   2  12
TORSDOF 4
ENDMDL
MODEL 9
REMARK VINA RESULT:      -7.7      1.454      2.668
REMARK  Name = 
REMARK  7 active torsions:
REMARK  status: ('A' for Active; 'I' for Inactive)
REMARK    1  A    between atoms: C_1  and  C_2
REMARK    2  A    between atoms: C_3  and  C_4
REMARK    3  A    between atoms: C_5  and  C_6
REMARK    4  A    between atoms: C_6  and  C_8
REMARK    5  A    between atoms: C_9  and  C_10
REMARK    6  A    between atoms: C_16  and  C_17
REMARK    7  A    between atoms: C_16  and  C_18
REMARK                            x       y       z     vdW  Elec       q    Type
REMARK                         _______ _______ _______ _____ _____    ______ ____
ROOT
ATOM      1  C   UNL     1       3.936   4.845  17.575  0.00  0.00    +0.000 C 
ATOM      2  C   UNL     1       5.239   5.163  17.659  0.00  0.00    +0.000 C 
ENDROOT
BRANCH   1   5
ATOM      3  C   UNL     1       2.511   7.027  19.081  0.00  0.00    +0.000 C 
ATOM      4  C   UNL     1       2.467   5.558  19.430  0.00  0.00    +0.000 C 
ATOM      5  C   UNL     1       3.064   4.563  18.724  0.00  0.00    +0.000 C 
ATOM      6  C   UNL     1       2.806   3.066  19.044  0.00  0.00    +0.000 C 
ATOM      7  C   UNL     1       2.433   2.251  17.784  0.00  0.00    +0.000 C 
ATOM      8  C   UNL     1       4.066   2.433  19.672  0.00  0.00    +0.000 C 
ATOM      9  C   UNL     1       1.613   2.893  20.027  0.00  0.00    +0.000 C 
ATOM     10  C   UNL     1       1.673   3.875  21.183  0.00  0.00    +0.000 C 
ATOM     11  C   UNL     1       1.606   5.297  20.651  0.00  0.00    +0.000 C 
ENDBRANCH   1   5
BRANCH   2  12
ATOM     12  C   UNL     1       6.037   5.468  16.435  0.00  0.00    +0.000 C 
ATOM     13  O   UNL     1       6.738   6.468  16.326  0.00  0.00    +0.000 OA
BRANCH  12  14
ATOM     14  C   UNL     1       5.914   4.455  15.346  0.00  0.00    +0.000 C 
ATOM     15  C   UNL     1       6.280   4.720  14.083  0.00  0.00    +0.000 C 
BRANCH  15  16
ATOM     16  C   UNL     1       6.130   3.761  12.968  0.00  0.00    +0.000 A 
ATOM     17  C   UNL     1       7.277   3.208  12.376  0.00  0.00    +0.000 A 
ATOM     18  C   UNL     1       7.171   2.330  11.293  0.00  0.00    +0.000 A 
ATOM     19  C   UNL     1       5.920   1.977  10.794  0.00  0.00    +0.000 A 
ATOM     20  C   UNL     1       4.772   2.486  11.395  0.00  0.00    +0.000 A 
ATOM     21  C   UNL     1       4.878   3.362  12.481  0.00  0.00    +0.000 A 
ENDBRANCH  15  16
ENDBRANCH  12  14
ENDBRANCH   2  12
TORSDOF 4
ENDMDL
