MODEL 1
REMARK VINA RESULT:      -7.8      0.000      0.000
REMARK  Name = 
REMARK  1 active torsions:
REMARK  status: ('A' for Active; 'I' for Inactive)
REMARK    1  A    between atoms: N_10  and  C_11
REMARK                            x       y       z     vdW  Elec       q    Type
REMARK                         _______ _______ _______ _____ _____    ______ ____
ROOT
ATOM      1  O   UNL     1       7.228   5.434  20.019  0.00  0.00    +0.000 OA
ATOM      2  C   UNL     1       6.893   5.115  18.887  0.00  0.00    +0.000 A 
ATOM      3  N   UNL     1       7.690   5.327  17.752  0.00  0.00    +0.000 N 
ATOM      4  C   UNL     1       6.985   4.909  16.635  0.00  0.00    +0.000 A 
ATOM      5  C   UNL     1       7.325   5.019  15.308  0.00  0.00    +0.000 A 
ATOM      6  C   UNL     1       6.369   4.591  14.388  0.00  0.00    +0.000 A 
ATOM      7  C   UNL     1       5.147   4.098  14.858  0.00  0.00    +0.000 A 
ATOM      8  N   UNL     1       4.808   4.004  16.166  0.00  0.00    +0.000 NA
ATOM      9  C   UNL     1       5.755   4.389  17.035  0.00  0.00    +0.000 A 
ATOM     10  N   UNL     1       5.702   4.490  18.442  0.00  0.00    +0.000 N 
ATOM     11  H   UNL     1       8.587   5.784  17.780  0.00  0.00    +0.000 HD
ENDROOT
BRANCH  10  12
ATOM     12  C   UNL     1       4.548   4.213  19.203  0.00  0.00    +0.000 A 
ATOM     13  C   UNL     1       4.345   2.926  19.735  0.00  0.00    +0.000 A 
ATOM     14  C   UNL     1       3.259   2.644  20.588  0.00  0.00    +0.000 A 
ATOM     15  C   UNL     1       2.335   3.637  20.909  0.00  0.00    +0.000 A 
ATOM     16  C   UNL     1       2.514   4.878  20.339  0.00  0.00    +0.000 A 
ATOM     17  C   UNL     1       3.575   5.159  19.500  0.00  0.00    +0.000 A 
ATOM     18  O   UNL     1       3.458   6.414  18.973  0.00  0.00    +0.000 OA
ATOM     19  C   UNL     1       2.369   6.944  19.743  0.00  0.00    +0.000 C 
ATOM     20  O   UNL     1       1.680   5.940  20.510  0.00  0.00    +0.000 OA
ENDBRANCH  10  12
TORSDOF 1
ENDMDL
MODEL 2
REMARK VINA RESULT:      -7.7      1.851      5.446
REMARK  Name = 
REMARK  1 active torsions:
REMARK  status: ('A' for Active; 'I' for Inactive)
REMARK    1  A    between atoms: N_10  and  C_11
REMARK                            x       y       z     vdW  Elec       q    Type
REMARK                         _______ _______ _______ _____ _____    ______ ____
ROOT
ATOM      1  O   UNL     1       3.504   7.561  17.756  0.00  0.00    +0.000 OA
ATOM      2  C   UNL     1       3.146   6.501  18.249  0.00  0.00    +0.000 A 
ATOM      3  N   UNL     1       2.150   6.399  19.231  0.00  0.00    +0.000 N 
ATOM      4  C   UNL     1       2.041   5.070  19.610  0.00  0.00    +0.000 A 
ATOM      5  C   UNL     1       1.274   4.517  20.607  0.00  0.00    +0.000 A 
ATOM      6  C   UNL     1       1.439   3.151  20.827  0.00  0.00    +0.000 A 
ATOM      7  C   UNL     1       2.360   2.444  20.048  0.00  0.00    +0.000 A 
ATOM      8  N   UNL     1       3.126   2.993  19.075  0.00  0.00    +0.000 NA
ATOM      9  C   UNL     1       2.927   4.302  18.857  0.00  0.00    +0.000 A 
ATOM     10  N   UNL     1       3.602   5.185  17.986  0.00  0.00    +0.000 N 
ATOM     11  H   UNL     1       1.673   7.194  19.624  0.00  0.00    +0.000 HD
ENDROOT
BRANCH  10  12
ATOM     12  C   UNL     1       4.691   4.805  17.177  0.00  0.00    +0.000 A 
ATOM     13  C   UNL     1       4.485   4.471  15.825  0.00  0.00    +0.000 A 
ATOM     14  C   UNL     1       5.563   4.191  14.962  0.00  0.00    +0.000 A 
ATOM     15  C   UNL     1       6.873   4.213  15.436  0.00  0.00    +0.000 A 
ATOM     16  C   UNL     1       7.059   4.488  16.774  0.00  0.00    +0.000 A 
ATOM     17  C   UNL     1       6.005   4.760  17.625  0.00  0.00    +0.000 A 
ATOM     18  O   UNL     1       6.440   4.877  18.914  0.00  0.00    +0.000 OA
ATOM     19  C   UNL     1       7.864   4.883  18.733  0.00  0.00    +0.000 C 
ATOM     20  O   UNL     1       8.266   4.502  17.405  0.00  0.00    +0.000 OA
ENDBRANCH  10  12
TORSDOF 1
ENDMDL
MODEL 3
REMARK VINA RESULT:      -7.7      2.100      5.479
REMARK  Name = 
REMARK  1 active torsions:
REMARK  status: ('A' for Active; 'I' for Inactive)
REMARK    1  A    between atoms: N_10  and  C_11
REMARK                            x       y       z     vdW  Elec       q    Type
REMARK                         _______ _______ _______ _____ _____    ______ ____
ROOT
ATOM      1  O   UNL     1       3.727   1.254  18.172  0.00  0.00    +0.000 OA
ATOM      2  C   UNL     1       3.379   2.314  18.673  0.00  0.00    +0.000 A 
ATOM      3  N   UNL     1       2.304   2.435  19.567  0.00  0.00    +0.000 N 
ATOM      4  C   UNL     1       2.147   3.773  19.887  0.00  0.00    +0.000 A 
ATOM      5  C   UNL     1       1.166   4.372  20.641  0.00  0.00    +0.000 A 
ATOM      6  C   UNL     1       1.207   5.762  20.717  0.00  0.00    +0.000 A 
ATOM      7  C   UNL     1       2.212   6.451  20.030  0.00  0.00    +0.000 A 
ATOM      8  N   UNL     1       3.171   5.861  19.276  0.00  0.00    +0.000 NA
ATOM      9  C   UNL     1       3.133   4.520  19.244  0.00  0.00    +0.000 A 
ATOM     10  N   UNL     1       3.922   3.612  18.505  0.00  0.00    +0.000 N 
ATOM     11  H   UNL     1       1.720   1.661  19.842  0.00  0.00    +0.000 HD
ENDROOT
BRANCH  10  12
ATOM     12  C   UNL     1       4.923   4.007  17.595  0.00  0.00    +0.000 A 
ATOM     13  C   UNL     1       4.759   3.771  16.217  0.00  0.00    +0.000 A 
ATOM     14  C   UNL     1       5.689   4.248  15.272  0.00  0.00    +0.000 A 
ATOM     15  C   UNL     1       6.819   4.951  15.684  0.00  0.00    +0.000 A 
ATOM     16  C   UNL     1       6.996   5.129  17.038  0.00  0.00    +0.000 A 
ATOM     17  C   UNL     1       6.090   4.661  17.970  0.00  0.00    +0.000 A 
ATOM     18  O   UNL     1       6.554   4.855  19.239  0.00  0.00    +0.000 OA
ATOM     19  C   UNL     1       7.700   5.684  18.998  0.00  0.00    +0.000 C 
ATOM     20  O   UNL     1       8.067   5.750  17.608  0.00  0.00    +0.000 OA
ENDBRANCH  10  12
TORSDOF 1
ENDMDL
MODEL 4
REMARK VINA RESULT:      -7.6      1.903      5.408
REMARK  Name = 
REMARK  1 active torsions:
REMARK  status: ('A' for Active; 'I' for Inactive)
REMARK    1  A    between atoms: N_10  and  C_11
REMARK                            x       y       z     vdW  Elec       q    Type
REMARK                         _______ _______ _______ _____ _____    ______ ____
ROOT
ATOM      1  O   UNL     1       2.931   7.400  17.847  0.00  0.00    +0.000 OA
ATOM      2  C   UNL     1       2.953   6.334  18.446  0.00  0.00    +0.000 A 
ATOM      3  N   UNL     1       2.168   6.063  19.577  0.00  0.00    +0.000 N 
ATOM      4  C   UNL     1       2.485   4.796  20.038  0.00  0.00    +0.000 A 
ATOM      5  C   UNL     1       2.046   4.154  21.171  0.00  0.00    +0.000 A 
ATOM      6  C   UNL     1       2.612   2.909  21.434  0.00  0.00    +0.000 A 
ATOM      7  C   UNL     1       3.577   2.402  20.558  0.00  0.00    +0.000 A 
ATOM      8  N   UNL     1       4.020   3.042  19.449  0.00  0.00    +0.000 NA
ATOM      9  C   UNL     1       3.437   4.224  19.196  0.00  0.00    +0.000 A 
ATOM     10  N   UNL     1       3.715   5.169  18.184  0.00  0.00    +0.000 N 
ATOM     11  H   UNL     1       1.547   6.736  19.998  0.00  0.00    +0.000 HD
ENDROOT
BRANCH  10  12
ATOM     12  C   UNL     1       4.745   5.019  17.235  0.00  0.00    +0.000 A 
ATOM     13  C   UNL     1       4.633   4.052  16.217  0.00  0.00    +0.000 A 
ATOM     14  C   UNL     1       5.593   3.948  15.191  0.00  0.00    +0.000 A 
ATOM     15  C   UNL     1       6.702   4.792  15.171  0.00  0.00    +0.000 A 
ATOM     16  C   UNL     1       6.829   5.697  16.201  0.00  0.00    +0.000 A 
ATOM     17  C   UNL     1       5.893   5.802  17.212  0.00  0.00    +0.000 A 
ATOM     18  O   UNL     1       6.309   6.681  18.170  0.00  0.00    +0.000 OA
ATOM     19  C   UNL     1       7.457   7.266  17.538  0.00  0.00    +0.000 C 
ATOM     20  O   UNL     1       7.873   6.558  16.356  0.00  0.00    +0.000 OA
ENDBRANCH  10  12
TORSDOF 1
ENDMDL
MODEL 5
REMARK VINA RESULT:      -7.5      1.492      2.191
REMARK  Name = 
REMARK  1 active torsions:
REMARK  status: ('A' for Active; 'I' for Inactive)
REMARK    1  A    between atoms: N_10  and  C_11
REMARK                            x       y       z     vdW  Elec       q    Type
REMARK                         _______ _______ _______ _____ _____    ______ ____
ROOT
ATOM      1  O   UNL     1       7.046   5.368  19.955  0.00  0.00    +0.000 OA
ATOM      2  C   UNL     1       6.760   5.100  18.797  0.00  0.00    +0.000 A 
ATOM      3  N   UNL     1       7.685   5.131  17.742  0.00  0.00    +0.000 N 
ATOM      4  C   UNL     1       7.017   4.839  16.564  0.00  0.00    +0.000 A 
ATOM      5  C   UNL     1       7.493   4.856  15.275  0.00  0.00    +0.000 A 
ATOM      6  C   UNL     1       6.561   4.608  14.269  0.00  0.00    +0.000 A 
ATOM      7  C   UNL     1       5.228   4.374  14.621  0.00  0.00    +0.000 A 
ATOM      8  N   UNL     1       4.757   4.372  15.891  0.00  0.00    +0.000 NA
ATOM      9  C   UNL     1       5.677   4.579  16.846  0.00  0.00    +0.000 A 
ATOM     10  N   UNL     1       5.515   4.715  18.242  0.00  0.00    +0.000 N 
ATOM     11  H   UNL     1       8.648   5.403  17.855  0.00  0.00    +0.000 HD
ENDROOT
BRANCH  10  12
ATOM     12  C   UNL     1       4.264   4.684  18.890  0.00  0.00    +0.000 A 
ATOM     13  C   UNL     1       3.693   5.872  19.383  0.00  0.00    +0.000 A 
ATOM     14  C   UNL     1       2.399   5.894  19.939  0.00  0.00    +0.000 A 
ATOM     15  C   UNL     1       1.653   4.721  20.039  0.00  0.00    +0.000 A 
ATOM     16  C   UNL     1       2.243   3.554  19.603  0.00  0.00    +0.000 A 
ATOM     17  C   UNL     1       3.513   3.528  19.060  0.00  0.00    +0.000 A 
ATOM     18  O   UNL     1       3.912   2.243  18.823  0.00  0.00    +0.000 OA
ATOM     19  C   UNL     1       2.694   1.521  19.050  0.00  0.00    +0.000 C 
ATOM     20  O   UNL     1       1.672   2.320  19.674  0.00  0.00    +0.000 OA
ENDBRANCH  10  12
TORSDOF 1
ENDMDL
MODEL 6
REMARK VINA RESULT:      -7.3      2.093      5.503
REMARK  Name = 
REMARK  1 active torsions:
REMARK  status: ('A' for Active; 'I' for Inactive)
REMARK    1  A    between atoms: N_10  and  C_11
REMARK                            x       y       z     vdW  Elec       q    Type
REMARK                         _______ _______ _______ _____ _____    ______ ____
ROOT
ATOM      1  O   UNL     1       3.226   7.449  17.922  0.00  0.00    +0.000 OA
ATOM      2  C   UNL     1       3.021   6.399  18.514  0.00  0.00    +0.000 A 
ATOM      3  N   UNL     1       1.827   6.109  19.190  0.00  0.00    +0.000 N 
ATOM      4  C   UNL     1       1.955   4.872  19.799  0.00  0.00    +0.000 A 
ATOM      5  C   UNL     1       1.083   4.231  20.647  0.00  0.00    +0.000 A 
ATOM      6  C   UNL     1       1.522   3.025  21.189  0.00  0.00    +0.000 A 
ATOM      7  C   UNL     1       2.795   2.554  20.855  0.00  0.00    +0.000 A 
ATOM      8  N   UNL     1       3.660   3.193  20.030  0.00  0.00    +0.000 NA
ATOM      9  C   UNL     1       3.205   4.335  19.494  0.00  0.00    +0.000 A 
ATOM     10  N   UNL     1       3.866   5.272  18.670  0.00  0.00    +0.000 N 
ATOM     11  H   UNL     1       1.057   6.756  19.262  0.00  0.00    +0.000 HD
ENDROOT
BRANCH  10  12
ATOM     12  C   UNL     1       5.216   5.158  18.284  0.00  0.00    +0.000 A 
ATOM     13  C   UNL     1       6.242   5.427  19.210  0.00  0.00    +0.000 A 
ATOM     14  C   UNL     1       7.598   5.219  18.889  0.00  0.00    +0.000 A 
ATOM     15  C   UNL     1       7.963   4.760  17.625  0.00  0.00    +0.000 A 
ATOM     16  C   UNL     1       6.955   4.552  16.710  0.00  0.00    +0.000 A 
ATOM     17  C   UNL     1       5.625   4.757  17.018  0.00  0.00    +0.000 A 
ATOM     18  O   UNL     1       4.840   4.601  15.911  0.00  0.00    +0.000 OA
ATOM     19  C   UNL     1       5.781   4.059  14.972  0.00  0.00    +0.000 C 
ATOM     20  O   UNL     1       7.145   4.152  15.422  0.00  0.00    +0.000 OA
ENDBRANCH  10  12
TORSDOF 1
ENDMDL
MODEL 7
REMARK VINA RESULT:      -7.3      1.970      5.320
REMARK  Name = 
REMARK  1 active torsions:
REMARK  status: ('A' for Active; 'I' for Inactive)
REMARK    1  A    between atoms: N_10  and  C_11
REMARK                            x       y       z     vdW  Elec       q    Type
REMARK                         _______ _______ _______ _____ _____    ______ ____
ROOT
ATOM      1  O   UNL     1       4.683   1.931  19.265  0.00  0.00    +0.000 OA
ATOM      2  C   UNL     1       4.159   3.020  19.451  0.00  0.00    +0.000 A 
ATOM      3  N   UNL     1       3.188   3.257  20.435  0.00  0.00    +0.000 N 
ATOM      4  C   UNL     1       2.765   4.572  20.329  0.00  0.00    +0.000 A 
ATOM      5  C   UNL     1       1.761   5.214  21.013  0.00  0.00    +0.000 A 
ATOM      6  C   UNL     1       1.493   6.526  20.628  0.00  0.00    +0.000 A 
ATOM      7  C   UNL     1       2.235   7.094  19.588  0.00  0.00    +0.000 A 
ATOM      8  N   UNL     1       3.216   6.455  18.905  0.00  0.00    +0.000 NA
ATOM      9  C   UNL     1       3.481   5.205  19.314  0.00  0.00    +0.000 A 
ATOM     10  N   UNL     1       4.371   4.249  18.779  0.00  0.00    +0.000 N 
ATOM     11  H   UNL     1       2.828   2.540  21.045  0.00  0.00    +0.000 HD
ENDROOT
BRANCH  10  12
ATOM     12  C   UNL     1       5.153   4.468  17.627  0.00  0.00    +0.000 A 
ATOM     13  C   UNL     1       4.900   3.736  16.451  0.00  0.00    +0.000 A 
ATOM     14  C   UNL     1       5.589   4.005  15.252  0.00  0.00    +0.000 A 
ATOM     15  C   UNL     1       6.568   4.996  15.207  0.00  0.00    +0.000 A 
ATOM     16  C   UNL     1       6.845   5.669  16.376  0.00  0.00    +0.000 A 
ATOM     17  C   UNL     1       6.174   5.407  17.555  0.00  0.00    +0.000 A 
ATOM     18  O   UNL     1       6.716   6.115  18.590  0.00  0.00    +0.000 OA
ATOM     19  C   UNL     1       7.611   6.994  17.893  0.00  0.00    +0.000 C 
ATOM     20  O   UNL     1       7.801   6.629  16.514  0.00  0.00    +0.000 OA
ENDBRANCH  10  12
TORSDOF 1
ENDMDL
MODEL 8
REMARK VINA RESULT:      -7.3      1.863      5.494
REMARK  Name = 
REMARK  1 active torsions:
REMARK  status: ('A' for Active; 'I' for Inactive)
REMARK    1  A    between atoms: N_10  and  C_11
REMARK                            x       y       z     vdW  Elec       q    Type
REMARK                         _______ _______ _______ _____ _____    ______ ____
ROOT
ATOM      1  O   UNL     1       2.676   7.592  19.080  0.00  0.00    +0.000 OA
ATOM      2  C   UNL     1       2.735   6.427  19.449  0.00  0.00    +0.000 A 
ATOM      3  N   UNL     1       1.927   5.893  20.464  0.00  0.00    +0.000 N 
ATOM      4  C   UNL     1       2.296   4.574  20.671  0.00  0.00    +0.000 A 
ATOM      5  C   UNL     1       1.853   3.693  21.629  0.00  0.00    +0.000 A 
ATOM      6  C   UNL     1       2.476   2.447  21.658  0.00  0.00    +0.000 A 
ATOM      7  C   UNL     1       3.497   2.177  20.741  0.00  0.00    +0.000 A 
ATOM      8  N   UNL     1       3.943   3.051  19.807  0.00  0.00    +0.000 NA
ATOM      9  C   UNL     1       3.307   4.232  19.774  0.00  0.00    +0.000 A 
ATOM     10  N   UNL     1       3.568   5.377  18.991  0.00  0.00    +0.000 N 
ATOM     11  H   UNL     1       1.256   6.436  20.985  0.00  0.00    +0.000 HD
ENDROOT
BRANCH  10  12
ATOM     12  C   UNL     1       4.637   5.473  18.078  0.00  0.00    +0.000 A 
ATOM     13  C   UNL     1       4.385   5.511  16.694  0.00  0.00    +0.000 A 
ATOM     14  C   UNL     1       5.421   5.714  15.761  0.00  0.00    +0.000 A 
ATOM     15  C   UNL     1       6.739   5.858  16.188  0.00  0.00    +0.000 A 
ATOM     16  C   UNL     1       6.982   5.765  17.541  0.00  0.00    +0.000 A 
ATOM     17  C   UNL     1       5.970   5.563  18.460  0.00  0.00    +0.000 A 
ATOM     18  O   UNL     1       6.482   5.384  19.713  0.00  0.00    +0.000 OA
ATOM     19  C   UNL     1       7.860   5.726  19.508  0.00  0.00    +0.000 C 
ATOM     20  O   UNL     1       8.214   5.835  18.118  0.00  0.00    +0.000 OA
ENDBRANCH  10  12
TORSDOF 1
ENDMDL
MODEL 9
REMARK VINA RESULT:      -7.2      2.373      5.284
REMARK  Name = 
REMARK  1 active torsions:
REMARK  status: ('A' for Active; 'I' for Inactive)
REMARK    1  A    between atoms: N_10  and  C_11
REMARK                            x       y       z     vdW  Elec       q    Type
REMARK                         _______ _______ _______ _____ _____    ______ ____
ROOT
ATOM      1  O   UNL     1       2.941   7.300  18.085  0.00  0.00    +0.000 OA
ATOM      2  C   UNL     1       2.758   6.094  18.175  0.00  0.00    +0.000 A 
ATOM      3  N   UNL     1       1.493   5.512  18.347  0.00  0.00    +0.000 N 
ATOM      4  C   UNL     1       1.653   4.142  18.473  0.00  0.00    +0.000 A 
ATOM      5  C   UNL     1       0.710   3.184  18.758  0.00  0.00    +0.000 A 
ATOM      6  C   UNL     1       1.180   1.883  18.920  0.00  0.00    +0.000 A 
ATOM      7  C   UNL     1       2.551   1.635  18.797  0.00  0.00    +0.000 A 
ATOM      8  N   UNL     1       3.482   2.582  18.530  0.00  0.00    +0.000 NA
ATOM      9  C   UNL     1       3.004   3.823  18.345  0.00  0.00    +0.000 A 
ATOM     10  N   UNL     1       3.697   5.035  18.132  0.00  0.00    +0.000 N 
ATOM     11  H   UNL     1       0.643   6.045  18.437  0.00  0.00    +0.000 HD
ENDROOT
BRANCH  10  12
ATOM     12  C   UNL     1       5.102   5.139  18.113  0.00  0.00    +0.000 A 
ATOM     13  C   UNL     1       5.799   5.502  19.280  0.00  0.00    +0.000 A 
ATOM     14  C   UNL     1       7.208   5.511  19.325  0.00  0.00    +0.000 A 
ATOM     15  C   UNL     1       7.953   5.182  18.195  0.00  0.00    +0.000 A 
ATOM     16  C   UNL     1       7.260   4.881  17.043  0.00  0.00    +0.000 A 
ATOM     17  C   UNL     1       5.879   4.873  16.993  0.00  0.00    +0.000 A 
ATOM     18  O   UNL     1       5.441   4.667  15.716  0.00  0.00    +0.000 OA
ATOM     19  C   UNL     1       6.663   4.322  15.049  0.00  0.00    +0.000 C 
ATOM     20  O   UNL     1       7.834   4.585  15.844  0.00  0.00    +0.000 OA
ENDBRANCH  10  12
TORSDOF 1
ENDMDL
