MODEL 1
REMARK VINA RESULT:      -7.3      0.000      0.000
REMARK  Name = 
REMARK  14 active torsions:
REMARK  status: ('A' for Active; 'I' for Inactive)
REMARK    1  A    between atoms: C_1  and  C_2
REMARK    2  A    between atoms: C_2  and  C_3
REMARK    3  A    between atoms: C_3  and  C_4
REMARK    4  A    between atoms: C_4  and  C_5
REMARK    5  A    between atoms: C_4  and  C_6
REMARK    6  A    between atoms: C_6  and  O_7
REMARK    7  A    between atoms: O_7  and  C_8
REMARK    8  A    between atoms: C_11  and  C_12
REMARK    9  A    between atoms: C_12  and  N_13
REMARK   10  A    between atoms: C_12  and  C_26
REMARK   11  A    between atoms: C_14  and  C_16
REMARK   12  A    between atoms: C_16  and  C_17
REMARK   13  A    between atoms: C_26  and  O_28
REMARK   14  A    between atoms: O_28  and  C_29
REMARK                            x       y       z     vdW  Elec       q    Type
REMARK                         _______ _______ _______ _____ _____    ______ ____
ROOT
ATOM      1  C   UNL     1       6.262   6.954  16.946  0.00  0.00    +0.000 C 
ENDROOT
BRANCH   1   5
ATOM      2  C   UNL     1       3.306   5.419  19.729  0.00  0.00    +0.000 A 
ATOM      3  C   UNL     1       2.982   6.352  18.748  0.00  0.00    +0.000 A 
ATOM      4  C   UNL     1       3.932   6.777  17.830  0.00  0.00    +0.000 A 
ATOM      5  C   UNL     1       5.253   6.305  17.883  0.00  0.00    +0.000 A 
ATOM      6  C   UNL     1       5.577   5.358  18.860  0.00  0.00    +0.000 A 
ATOM      7  C   UNL     1       4.607   4.909  19.767  0.00  0.00    +0.000 A 
BRANCH   2   8
ATOM      8  O   UNL     1       2.439   4.959  20.690  0.00  0.00    +0.000 OA
BRANCH   8   9
ATOM      9  C   UNL     1       1.114   4.699  20.217  0.00  0.00    +0.000 C 
BRANCH   9  10
ATOM     10  C   UNL     1       0.800   3.198  20.220  0.00  0.00    +0.000 C 
ATOM     11  C   UNL     1       1.724   2.520  21.237  0.00  0.00    +0.000 C 
BRANCH  10  12
ATOM     12  C   UNL     1       0.957   2.607  18.806  0.00  0.00    +0.000 C 
BRANCH  12  14
ATOM     13  C   UNL     1       2.924   2.761  17.240  0.00  0.00    +0.000 C 
ATOM     14  C   UNL     1       2.379   2.128  18.510  0.00  0.00    +0.000 C 
ENDBRANCH  12  14
ENDBRANCH  10  12
ENDBRANCH   9  10
ENDBRANCH   8   9
ENDBRANCH   2   8
ENDBRANCH   1   5
BRANCH   1  15
ATOM     15  N   UNL     1       7.475   7.339  17.677  0.00  0.00    +0.000 N 
ATOM     16  C   UNL     1       7.820   8.655  17.899  0.00  0.00    +0.000 C 
ATOM     17  O   UNL     1       7.186   9.608  17.451  0.00  0.00    +0.000 OA
ATOM     18  H   UNL     1       7.997   6.592  18.119  0.00  0.00    +0.000 HD
BRANCH  16  19
ATOM     19  C   UNL     1       9.083   8.865  18.718  0.00  0.00    +0.000 C 
BRANCH  19  20
ATOM     20  C   UNL     1       9.461  10.319  18.864  0.00  0.00    +0.000 A 
ATOM     21  C   UNL     1      10.023  11.037  17.779  0.00  0.00    +0.000 A 
ATOM     22  C   UNL     1      10.238  12.417  17.863  0.00  0.00    +0.000 A 
ATOM     23  C   UNL     1       9.854  13.046  19.025  0.00  0.00    +0.000 A 
ATOM     24  C   UNL     1       9.366  12.342  20.104  0.00  0.00    +0.000 A 
ATOM     25  C   UNL     1       9.193  10.979  20.071  0.00  0.00    +0.000 A 
ATOM     26  O   UNL     1       8.997  13.162  21.127  0.00  0.00    +0.000 OA
ATOM     27  C   UNL     1       8.995  14.420  20.425  0.00  0.00    +0.000 C 
ATOM     28  O   UNL     1       9.824  14.391  19.244  0.00  0.00    +0.000 OA
ENDBRANCH  19  20
ENDBRANCH  16  19
ENDBRANCH   1  15
BRANCH   1  29
ATOM     29  C   UNL     1       6.640   6.068  15.749  0.00  0.00    +0.000 C 
ATOM     30  O   UNL     1       7.769   5.634  15.542  0.00  0.00    +0.000 OA
BRANCH  29  31
ATOM     31  O   UNL     1       5.554   5.829  14.956  0.00  0.00    +0.000 OA
ATOM     32  C   UNL     1       5.386   4.459  14.583  0.00  0.00    +0.000 C 
ENDBRANCH  29  31
ENDBRANCH   1  29
TORSDOF 11
ENDMDL
MODEL 2
REMARK VINA RESULT:      -7.3      6.626     10.129
REMARK  Name = 
REMARK  14 active torsions:
REMARK  status: ('A' for Active; 'I' for Inactive)
REMARK    1  A    between atoms: C_1  and  C_2
REMARK    2  A    between atoms: C_2  and  C_3
REMARK    3  A    between atoms: C_3  and  C_4
REMARK    4  A    between atoms: C_4  and  C_5
REMARK    5  A    between atoms: C_4  and  C_6
REMARK    6  A    between atoms: C_6  and  O_7
REMARK    7  A    between atoms: O_7  and  C_8
REMARK    8  A    between atoms: C_11  and  C_12
REMARK    9  A    between atoms: C_12  and  N_13
REMARK   10  A    between atoms: C_12  and  C_26
REMARK   11  A    between atoms: C_14  and  C_16
REMARK   12  A    between atoms: C_16  and  C_17
REMARK   13  A    between atoms: C_26  and  O_28
REMARK   14  A    between atoms: O_28  and  C_29
REMARK                            x       y       z     vdW  Elec       q    Type
REMARK                         _______ _______ _______ _____ _____    ______ ____
ROOT
ATOM      1  C   UNL     1       0.331  10.126  19.402  0.00  0.00    +0.000 C 
ENDROOT
BRANCH   1   5
ATOM      2  C   UNL     1      -3.521  10.953  17.580  0.00  0.00    +0.000 A 
ATOM      3  C   UNL     1      -3.069  11.648  18.698  0.00  0.00    +0.000 A 
ATOM      4  C   UNL     1      -1.805  11.409  19.220  0.00  0.00    +0.000 A 
ATOM      5  C   UNL     1      -0.961  10.437  18.660  0.00  0.00    +0.000 A 
ATOM      6  C   UNL     1      -1.410   9.746  17.529  0.00  0.00    +0.000 A 
ATOM      7  C   UNL     1      -2.674  10.013  16.986  0.00  0.00    +0.000 A 
BRANCH   2   8
ATOM      8  O   UNL     1      -4.760  11.108  17.009  0.00  0.00    +0.000 OA
BRANCH   8   9
ATOM      9  C   UNL     1      -5.438  12.314  17.380  0.00  0.00    +0.000 C 
BRANCH   9  10
ATOM     10  C   UNL     1      -6.755  12.018  18.106  0.00  0.00    +0.000 C 
ATOM     11  C   UNL     1      -7.712  13.188  17.851  0.00  0.00    +0.000 C 
BRANCH  10  12
ATOM     12  C   UNL     1      -6.507  11.785  19.608  0.00  0.00    +0.000 C 
BRANCH  12  14
ATOM     13  C   UNL     1      -6.956   9.312  19.444  0.00  0.00    +0.000 C 
ATOM     14  C   UNL     1      -7.298  10.603  20.171  0.00  0.00    +0.000 C 
ENDBRANCH  12  14
ENDBRANCH  10  12
ENDBRANCH   9  10
ENDBRANCH   8   9
ENDBRANCH   2   8
ENDBRANCH   1   5
BRANCH   1  15
ATOM     15  N   UNL     1       1.256   9.379  18.540  0.00  0.00    +0.000 N 
ATOM     16  C   UNL     1       1.963   8.284  18.987  0.00  0.00    +0.000 C 
ATOM     17  O   UNL     1       1.933   7.884  20.149  0.00  0.00    +0.000 OA
ATOM     18  H   UNL     1       1.268   9.630  17.559  0.00  0.00    +0.000 HD
BRANCH  16  19
ATOM     19  C   UNL     1       2.835   7.605  17.943  0.00  0.00    +0.000 C 
BRANCH  19  20
ATOM     20  C   UNL     1       3.001   6.124  18.181  0.00  0.00    +0.000 A 
ATOM     21  C   UNL     1       4.167   5.613  18.804  0.00  0.00    +0.000 A 
ATOM     22  C   UNL     1       4.262   4.263  19.159  0.00  0.00    +0.000 A 
ATOM     23  C   UNL     1       3.170   3.466  18.905  0.00  0.00    +0.000 A 
ATOM     24  C   UNL     1       2.060   3.944  18.243  0.00  0.00    +0.000 A 
ATOM     25  C   UNL     1       1.959   5.253  17.836  0.00  0.00    +0.000 A 
ATOM     26  O   UNL     1       1.077   3.007  18.147  0.00  0.00    +0.000 OA
ATOM     27  C   UNL     1       1.575   2.051  19.103  0.00  0.00    +0.000 C 
ATOM     28  O   UNL     1       2.996   2.179  19.318  0.00  0.00    +0.000 OA
ENDBRANCH  19  20
ENDBRANCH  16  19
ENDBRANCH   1  15
BRANCH   1  29
ATOM     29  C   UNL     1       1.033  11.377  19.952  0.00  0.00    +0.000 C 
ATOM     30  O   UNL     1       1.060  11.687  21.140  0.00  0.00    +0.000 OA
BRANCH  29  31
ATOM     31  O   UNL     1       1.622  12.089  18.946  0.00  0.00    +0.000 OA
ATOM     32  C   UNL     1       2.184  13.337  19.359  0.00  0.00    +0.000 C 
ENDBRANCH  29  31
ENDBRANCH   1  29
TORSDOF 11
ENDMDL
MODEL 3
REMARK VINA RESULT:      -7.1      0.905      1.700
REMARK  Name = 
REMARK  14 active torsions:
REMARK  status: ('A' for Active; 'I' for Inactive)
REMARK    1  A    between atoms: C_1  and  C_2
REMARK    2  A    between atoms: C_2  and  C_3
REMARK    3  A    between atoms: C_3  and  C_4
REMARK    4  A    between atoms: C_4  and  C_5
REMARK    5  A    between atoms: C_4  and  C_6
REMARK    6  A    between atoms: C_6  and  O_7
REMARK    7  A    between atoms: O_7  and  C_8
REMARK    8  A    between atoms: C_11  and  C_12
REMARK    9  A    between atoms: C_12  and  N_13
REMARK   10  A    between atoms: C_12  and  C_26
REMARK   11  A    between atoms: C_14  and  C_16
REMARK   12  A    between atoms: C_16  and  C_17
REMARK   13  A    between atoms: C_26  and  O_28
REMARK   14  A    between atoms: O_28  and  C_29
REMARK                            x       y       z     vdW  Elec       q    Type
REMARK                         _______ _______ _______ _____ _____    ______ ____
ROOT
ATOM      1  C   UNL     1       6.515   6.780  16.882  0.00  0.00    +0.000 C 
ENDROOT
BRANCH   1   5
ATOM      2  C   UNL     1       3.232   5.522  19.427  0.00  0.00    +0.000 A 
ATOM      3  C   UNL     1       4.542   5.109  19.653  0.00  0.00    +0.000 A 
ATOM      4  C   UNL     1       5.582   5.579  18.863  0.00  0.00    +0.000 A 
ATOM      5  C   UNL     1       5.341   6.456  17.794  0.00  0.00    +0.000 A 
ATOM      6  C   UNL     1       4.027   6.881  17.573  0.00  0.00    +0.000 A 
ATOM      7  C   UNL     1       2.984   6.428  18.392  0.00  0.00    +0.000 A 
BRANCH   2   8
ATOM      8  O   UNL     1       2.141   5.094  20.142  0.00  0.00    +0.000 OA
BRANCH   8   9
ATOM      9  C   UNL     1       1.129   4.458  19.355  0.00  0.00    +0.000 C 
BRANCH   9  10
ATOM     10  C   UNL     1       0.840   3.036  19.851  0.00  0.00    +0.000 C 
ATOM     11  C   UNL     1       1.364   2.917  21.286  0.00  0.00    +0.000 C 
BRANCH  10  12
ATOM     12  C   UNL     1       1.474   1.994  18.911  0.00  0.00    +0.000 C 
BRANCH  12  14
ATOM     13  C   UNL     1       3.742   1.890  17.820  0.00  0.00    +0.000 C 
ATOM     14  C   UNL     1       2.978   1.821  19.132  0.00  0.00    +0.000 C 
ENDBRANCH  12  14
ENDBRANCH  10  12
ENDBRANCH   9  10
ENDBRANCH   8   9
ENDBRANCH   2   8
ENDBRANCH   1   5
BRANCH   1  15
ATOM     15  N   UNL     1       7.668   7.242  17.665  0.00  0.00    +0.000 N 
ATOM     16  C   UNL     1       7.903   8.576  17.923  0.00  0.00    +0.000 C 
ATOM     17  O   UNL     1       7.215   9.486  17.467  0.00  0.00    +0.000 OA
ATOM     18  H   UNL     1       8.229   6.528  18.114  0.00  0.00    +0.000 HD
BRANCH  16  19
ATOM     19  C   UNL     1       9.116   8.864  18.792  0.00  0.00    +0.000 C 
BRANCH  19  20
ATOM     20  C   UNL     1       9.372  10.339  18.981  0.00  0.00    +0.000 A 
ATOM     21  C   UNL     1       9.261  10.940  20.260  0.00  0.00    +0.000 A 
ATOM     22  C   UNL     1       9.640  12.271  20.466  0.00  0.00    +0.000 A 
ATOM     23  C   UNL     1      10.149  12.957  19.389  0.00  0.00    +0.000 A 
ATOM     24  C   UNL     1      10.199  12.397  18.130  0.00  0.00    +0.000 A 
ATOM     25  C   UNL     1       9.786  11.109  17.885  0.00  0.00    +0.000 A 
ATOM     26  O   UNL     1      10.788  13.225  17.223  0.00  0.00    +0.000 OA
ATOM     27  C   UNL     1      11.379  14.176  18.130  0.00  0.00    +0.000 C 
ATOM     28  O   UNL     1      10.722  14.193  19.414  0.00  0.00    +0.000 OA
ENDBRANCH  19  20
ENDBRANCH  16  19
ENDBRANCH   1  15
BRANCH   1  29
ATOM     29  C   UNL     1       6.936   5.604  15.988  0.00  0.00    +0.000 C 
ATOM     30  O   UNL     1       7.691   5.704  15.025  0.00  0.00    +0.000 OA
BRANCH  29  31
ATOM     31  O   UNL     1       6.361   4.439  16.411  0.00  0.00    +0.000 OA
ATOM     32  C   UNL     1       5.855   3.616  15.358  0.00  0.00    +0.000 C 
ENDBRANCH  29  31
ENDBRANCH   1  29
TORSDOF 11
ENDMDL
MODEL 4
REMARK VINA RESULT:      -7.1      2.288      8.243
REMARK  Name = 
REMARK  14 active torsions:
REMARK  status: ('A' for Active; 'I' for Inactive)
REMARK    1  A    between atoms: C_1  and  C_2
REMARK    2  A    between atoms: C_2  and  C_3
REMARK    3  A    between atoms: C_3  and  C_4
REMARK    4  A    between atoms: C_4  and  C_5
REMARK    5  A    between atoms: C_4  and  C_6
REMARK    6  A    between atoms: C_6  and  O_7
REMARK    7  A    between atoms: O_7  and  C_8
REMARK    8  A    between atoms: C_11  and  C_12
REMARK    9  A    between atoms: C_12  and  N_13
REMARK   10  A    between atoms: C_12  and  C_26
REMARK   11  A    between atoms: C_14  and  C_16
REMARK   12  A    between atoms: C_16  and  C_17
REMARK   13  A    between atoms: C_26  and  O_28
REMARK   14  A    between atoms: O_28  and  C_29
REMARK                            x       y       z     vdW  Elec       q    Type
REMARK                         _______ _______ _______ _____ _____    ______ ____
ROOT
ATOM      1  C   UNL     1       6.376   4.889  16.983  0.00  0.00    +0.000 C 
ENDROOT
BRANCH   1   5
ATOM      2  C   UNL     1       8.382   8.360  18.648  0.00  0.00    +0.000 A 
ATOM      3  C   UNL     1       8.498   7.096  19.217  0.00  0.00    +0.000 A 
ATOM      4  C   UNL     1       7.899   5.991  18.627  0.00  0.00    +0.000 A 
ATOM      5  C   UNL     1       7.132   6.121  17.460  0.00  0.00    +0.000 A 
ATOM      6  C   UNL     1       7.023   7.390  16.879  0.00  0.00    +0.000 A 
ATOM      7  C   UNL     1       7.655   8.497  17.461  0.00  0.00    +0.000 A 
BRANCH   2   8
ATOM      8  O   UNL     1       8.920   9.509  19.171  0.00  0.00    +0.000 OA
BRANCH   8   9
ATOM      9  C   UNL     1       8.951  10.617  18.265  0.00  0.00    +0.000 C 
BRANCH   9  10
ATOM     10  C   UNL     1      10.324  11.301  18.259  0.00  0.00    +0.000 C 
ATOM     11  C   UNL     1      10.738  11.551  19.713  0.00  0.00    +0.000 C 
BRANCH  10  12
ATOM     12  C   UNL     1      10.278  12.601  17.434  0.00  0.00    +0.000 C 
BRANCH  12  14
ATOM     13  C   UNL     1      11.386  14.835  17.078  0.00  0.00    +0.000 C 
ATOM     14  C   UNL     1      11.594  13.381  17.471  0.00  0.00    +0.000 C 
ENDBRANCH  12  14
ENDBRANCH  10  12
ENDBRANCH   9  10
ENDBRANCH   8   9
ENDBRANCH   2   8
ENDBRANCH   1   5
BRANCH   1  15
ATOM     15  N   UNL     1       4.946   5.006  17.295  0.00  0.00    +0.000 N 
ATOM     16  C   UNL     1       4.405   4.543  18.476  0.00  0.00    +0.000 C 
ATOM     17  O   UNL     1       5.052   3.939  19.328  0.00  0.00    +0.000 OA
ATOM     18  H   UNL     1       4.382   5.551  16.654  0.00  0.00    +0.000 HD
BRANCH  16  19
ATOM     19  C   UNL     1       2.916   4.794  18.649  0.00  0.00    +0.000 C 
BRANCH  19  20
ATOM     20  C   UNL     1       2.583   6.247  18.888  0.00  0.00    +0.000 A 
ATOM     21  C   UNL     1       2.629   7.188  17.829  0.00  0.00    +0.000 A 
ATOM     22  C   UNL     1       2.182   8.501  18.012  0.00  0.00    +0.000 A 
ATOM     23  C   UNL     1       1.671   8.827  19.247  0.00  0.00    +0.000 A 
ATOM     24  C   UNL     1       1.682   7.934  20.296  0.00  0.00    +0.000 A 
ATOM     25  C   UNL     1       2.164   6.654  20.162  0.00  0.00    +0.000 A 
ATOM     26  O   UNL     1       1.080   8.440  21.408  0.00  0.00    +0.000 OA
ATOM     27  C   UNL     1       0.418   9.575  20.815  0.00  0.00    +0.000 C 
ATOM     28  O   UNL     1       1.038   9.988  19.578  0.00  0.00    +0.000 OA
ENDBRANCH  19  20
ENDBRANCH  16  19
ENDBRANCH   1  15
BRANCH   1  29
ATOM     29  C   UNL     1       6.556   4.606  15.485  0.00  0.00    +0.000 C 
ATOM     30  O   UNL     1       7.580   4.852  14.854  0.00  0.00    +0.000 OA
BRANCH  29  31
ATOM     31  O   UNL     1       5.429   4.044  14.955  0.00  0.00    +0.000 OA
ATOM     32  C   UNL     1       5.487   3.826  13.543  0.00  0.00    +0.000 C 
ENDBRANCH  29  31
ENDBRANCH   1  29
TORSDOF 11
ENDMDL
MODEL 5
REMARK VINA RESULT:      -6.9      6.623     10.254
REMARK  Name = 
REMARK  14 active torsions:
REMARK  status: ('A' for Active; 'I' for Inactive)
REMARK    1  A    between atoms: C_1  and  C_2
REMARK    2  A    between atoms: C_2  and  C_3
REMARK    3  A    between atoms: C_3  and  C_4
REMARK    4  A    between atoms: C_4  and  C_5
REMARK    5  A    between atoms: C_4  and  C_6
REMARK    6  A    between atoms: C_6  and  O_7
REMARK    7  A    between atoms: O_7  and  C_8
REMARK    8  A    between atoms: C_11  and  C_12
REMARK    9  A    between atoms: C_12  and  N_13
REMARK   10  A    between atoms: C_12  and  C_26
REMARK   11  A    between atoms: C_14  and  C_16
REMARK   12  A    between atoms: C_16  and  C_17
REMARK   13  A    between atoms: C_26  and  O_28
REMARK   14  A    between atoms: O_28  and  C_29
REMARK                            x       y       z     vdW  Elec       q    Type
REMARK                         _______ _______ _______ _____ _____    ______ ____
ROOT
ATOM      1  C   UNL     1       0.220  10.463  19.689  0.00  0.00    +0.000 C 
ENDROOT
BRANCH   1   5
ATOM      2  C   UNL     1      -3.588  11.008  17.679  0.00  0.00    +0.000 A 
ATOM      3  C   UNL     1      -3.236  11.745  18.806  0.00  0.00    +0.000 A 
ATOM      4  C   UNL     1      -1.985  11.597  19.390  0.00  0.00    +0.000 A 
ATOM      5  C   UNL     1      -1.053  10.678  18.884  0.00  0.00    +0.000 A 
ATOM      6  C   UNL     1      -1.401   9.945  17.744  0.00  0.00    +0.000 A 
ATOM      7  C   UNL     1      -2.654  10.119  17.139  0.00  0.00    +0.000 A 
BRANCH   2   8
ATOM      8  O   UNL     1      -4.807  11.073  17.049  0.00  0.00    +0.000 OA
BRANCH   8   9
ATOM      9  C   UNL     1      -5.567  12.248  17.349  0.00  0.00    +0.000 C 
BRANCH   9  10
ATOM     10  C   UNL     1      -6.820  11.914  18.167  0.00  0.00    +0.000 C 
ATOM     11  C   UNL     1      -6.884  12.880  19.355  0.00  0.00    +0.000 C 
BRANCH  10  12
ATOM     12  C   UNL     1      -6.800  10.441  18.613  0.00  0.00    +0.000 C 
BRANCH  12  14
ATOM     13  C   UNL     1      -7.508   8.775  20.365  0.00  0.00    +0.000 C 
ATOM     14  C   UNL     1      -7.269  10.244  20.056  0.00  0.00    +0.000 C 
ENDBRANCH  12  14
ENDBRANCH  10  12
ENDBRANCH   9  10
ENDBRANCH   8   9
ENDBRANCH   2   8
ENDBRANCH   1   5
BRANCH   1  15
ATOM     15  N   UNL     1       1.073   9.453  19.050  0.00  0.00    +0.000 N 
ATOM     16  C   UNL     1       1.684   8.442  19.761  0.00  0.00    +0.000 C 
ATOM     17  O   UNL     1       1.625   8.340  20.984  0.00  0.00    +0.000 OA
ATOM     18  H   UNL     1       1.103   9.457  18.038  0.00  0.00    +0.000 HD
BRANCH  16  19
ATOM     19  C   UNL     1       2.489   7.459  18.927  0.00  0.00    +0.000 C 
BRANCH  19  20
ATOM     20  C   UNL     1       2.137   6.018  19.204  0.00  0.00    +0.000 A 
ATOM     21  C   UNL     1       1.895   5.111  18.143  0.00  0.00    +0.000 A 
ATOM     22  C   UNL     1       1.713   3.745  18.389  0.00  0.00    +0.000 A 
ATOM     23  C   UNL     1       1.808   3.322  19.694  0.00  0.00    +0.000 A 
ATOM     24  C   UNL     1       1.980   4.208  20.735  0.00  0.00    +0.000 A 
ATOM     25  C   UNL     1       2.109   5.561  20.529  0.00  0.00    +0.000 A 
ATOM     26  O   UNL     1       2.104   3.576  21.934  0.00  0.00    +0.000 OA
ATOM     27  C   UNL     1       2.328   2.232  21.463  0.00  0.00    +0.000 C 
ATOM     28  O   UNL     1       1.828   2.029  20.125  0.00  0.00    +0.000 OA
ENDBRANCH  19  20
ENDBRANCH  16  19
ENDBRANCH   1  15
BRANCH   1  29
ATOM     29  C   UNL     1       1.025  11.752  19.912  0.00  0.00    +0.000 C 
ATOM     30  O   UNL     1       1.227  12.257  21.013  0.00  0.00    +0.000 OA
BRANCH  29  31
ATOM     31  O   UNL     1       1.482  12.254  18.728  0.00  0.00    +0.000 OA
ATOM     32  C   UNL     1       1.208  13.644  18.532  0.00  0.00    +0.000 C 
ENDBRANCH  29  31
ENDBRANCH   1  29
TORSDOF 11
ENDMDL
MODEL 6
REMARK VINA RESULT:      -6.9      7.092     10.155
REMARK  Name = 
REMARK  14 active torsions:
REMARK  status: ('A' for Active; 'I' for Inactive)
REMARK    1  A    between atoms: C_1  and  C_2
REMARK    2  A    between atoms: C_2  and  C_3
REMARK    3  A    between atoms: C_3  and  C_4
REMARK    4  A    between atoms: C_4  and  C_5
REMARK    5  A    between atoms: C_4  and  C_6
REMARK    6  A    between atoms: C_6  and  O_7
REMARK    7  A    between atoms: O_7  and  C_8
REMARK    8  A    between atoms: C_11  and  C_12
REMARK    9  A    between atoms: C_12  and  N_13
REMARK   10  A    between atoms: C_12  and  C_26
REMARK   11  A    between atoms: C_14  and  C_16
REMARK   12  A    between atoms: C_16  and  C_17
REMARK   13  A    between atoms: C_26  and  O_28
REMARK   14  A    between atoms: O_28  and  C_29
REMARK                            x       y       z     vdW  Elec       q    Type
REMARK                         _______ _______ _______ _____ _____    ______ ____
ROOT
ATOM      1  C   UNL     1       0.372  10.524  19.456  0.00  0.00    +0.000 C 
ENDROOT
BRANCH   1   5
ATOM      2  C   UNL     1       2.827   7.051  18.591  0.00  0.00    +0.000 A 
ATOM      3  C   UNL     1       2.655   8.081  17.672  0.00  0.00    +0.000 A 
ATOM      4  C   UNL     1       1.918   9.211  17.999  0.00  0.00    +0.000 A 
ATOM      5  C   UNL     1       1.297   9.333  19.251  0.00  0.00    +0.000 A 
ATOM      6  C   UNL     1       1.478   8.303  20.181  0.00  0.00    +0.000 A 
ATOM      7  C   UNL     1       2.248   7.178  19.857  0.00  0.00    +0.000 A 
BRANCH   2   8
ATOM      8  O   UNL     1       3.519   5.890  18.348  0.00  0.00    +0.000 OA
BRANCH   8   9
ATOM      9  C   UNL     1       3.578   4.991  19.460  0.00  0.00    +0.000 C 
BRANCH   9  10
ATOM     10  C   UNL     1       3.505   3.528  19.006  0.00  0.00    +0.000 C 
ATOM     11  C   UNL     1       3.924   3.466  17.533  0.00  0.00    +0.000 C 
BRANCH  10  12
ATOM     12  C   UNL     1       2.092   2.958  19.235  0.00  0.00    +0.000 C 
BRANCH  12  14
ATOM     13  C   UNL     1       1.371   2.759  21.640  0.00  0.00    +0.000 C 
ATOM     14  C   UNL     1       1.355   3.630  20.395  0.00  0.00    +0.000 C 
ENDBRANCH  12  14
ENDBRANCH  10  12
ENDBRANCH   9  10
ENDBRANCH   8   9
ENDBRANCH   2   8
ENDBRANCH   1   5
BRANCH   1  15
ATOM     15  N   UNL     1      -0.931  10.284  18.823  0.00  0.00    +0.000 N 
ATOM     16  C   UNL     1      -1.585  11.247  18.086  0.00  0.00    +0.000 C 
ATOM     17  O   UNL     1      -1.174  12.398  17.954  0.00  0.00    +0.000 OA
ATOM     18  H   UNL     1      -1.282   9.334  18.849  0.00  0.00    +0.000 HD
BRANCH  16  19
ATOM     19  C   UNL     1      -2.899  10.805  17.462  0.00  0.00    +0.000 C 
BRANCH  19  20
ATOM     20  C   UNL     1      -4.079  11.628  17.919  0.00  0.00    +0.000 A 
ATOM     21  C   UNL     1      -5.111  11.985  17.016  0.00  0.00    +0.000 A 
ATOM     22  C   UNL     1      -6.274  12.619  17.466  0.00  0.00    +0.000 A 
ATOM     23  C   UNL     1      -6.385  12.851  18.817  0.00  0.00    +0.000 A 
ATOM     24  C   UNL     1      -5.358  12.563  19.689  0.00  0.00    +0.000 A 
ATOM     25  C   UNL     1      -4.182  11.988  19.270  0.00  0.00    +0.000 A 
ATOM     26  O   UNL     1      -5.696  12.818  20.983  0.00  0.00    +0.000 OA
ATOM     27  C   UNL     1      -7.121  12.961  20.825  0.00  0.00    +0.000 C 
ATOM     28  O   UNL     1      -7.492  13.300  19.472  0.00  0.00    +0.000 OA
ENDBRANCH  19  20
ENDBRANCH  16  19
ENDBRANCH   1  15
BRANCH   1  29
ATOM     29  C   UNL     1       0.167  10.890  20.934  0.00  0.00    +0.000 C 
ATOM     30  O   UNL     1      -0.750  10.463  21.630  0.00  0.00    +0.000 OA
BRANCH  29  31
ATOM     31  O   UNL     1       1.140  11.747  21.364  0.00  0.00    +0.000 OA
ATOM     32  C   UNL     1       0.987  13.091  20.903  0.00  0.00    +0.000 C 
ENDBRANCH  29  31
ENDBRANCH   1  29
TORSDOF 11
ENDMDL
MODEL 7
REMARK VINA RESULT:      -6.9      7.388     10.505
REMARK  Name = 
REMARK  14 active torsions:
REMARK  status: ('A' for Active; 'I' for Inactive)
REMARK    1  A    between atoms: C_1  and  C_2
REMARK    2  A    between atoms: C_2  and  C_3
REMARK    3  A    between atoms: C_3  and  C_4
REMARK    4  A    between atoms: C_4  and  C_5
REMARK    5  A    between atoms: C_4  and  C_6
REMARK    6  A    between atoms: C_6  and  O_7
REMARK    7  A    between atoms: O_7  and  C_8
REMARK    8  A    between atoms: C_11  and  C_12
REMARK    9  A    between atoms: C_12  and  N_13
REMARK   10  A    between atoms: C_12  and  C_26
REMARK   11  A    between atoms: C_14  and  C_16
REMARK   12  A    between atoms: C_16  and  C_17
REMARK   13  A    between atoms: C_26  and  O_28
REMARK   14  A    between atoms: O_28  and  C_29
REMARK                            x       y       z     vdW  Elec       q    Type
REMARK                         _______ _______ _______ _____ _____    ______ ____
ROOT
ATOM      1  C   UNL     1       0.153  10.714  19.528  0.00  0.00    +0.000 C 
ENDROOT
BRANCH   1   5
ATOM      2  C   UNL     1       2.533   7.114  19.063  0.00  0.00    +0.000 A 
ATOM      3  C   UNL     1       2.353   8.021  18.022  0.00  0.00    +0.000 A 
ATOM      4  C   UNL     1       1.642   9.197  18.217  0.00  0.00    +0.000 A 
ATOM      5  C   UNL     1       1.054   9.490  19.458  0.00  0.00    +0.000 A 
ATOM      6  C   UNL     1       1.243   8.586  20.508  0.00  0.00    +0.000 A 
ATOM      7  C   UNL     1       1.988   7.414  20.315  0.00  0.00    +0.000 A 
BRANCH   2   8
ATOM      8  O   UNL     1       3.201   5.920  18.956  0.00  0.00    +0.000 OA
BRANCH   8   9
ATOM      9  C   UNL     1       4.340   5.953  18.090  0.00  0.00    +0.000 C 
BRANCH   9  10
ATOM     10  C   UNL     1       4.185   4.976  16.918  0.00  0.00    +0.000 C 
ATOM     11  C   UNL     1       4.235   3.550  17.478  0.00  0.00    +0.000 C 
BRANCH  10  12
ATOM     12  C   UNL     1       5.273   5.224  15.856  0.00  0.00    +0.000 C 
BRANCH  12  14
ATOM     13  C   UNL     1       6.306   3.990  13.919  0.00  0.00    +0.000 C 
ATOM     14  C   UNL     1       5.971   3.941  15.401  0.00  0.00    +0.000 C 
ENDBRANCH  12  14
ENDBRANCH  10  12
ENDBRANCH   9  10
ENDBRANCH   8   9
ENDBRANCH   2   8
ENDBRANCH   1   5
BRANCH   1  15
ATOM     15  N   UNL     1      -1.218  10.373  19.127  0.00  0.00    +0.000 N 
ATOM     16  C   UNL     1      -1.931  11.120  18.214  0.00  0.00    +0.000 C 
ATOM     17  O   UNL     1      -1.512  12.162  17.716  0.00  0.00    +0.000 OA
ATOM     18  H   UNL     1      -1.584   9.490  19.462  0.00  0.00    +0.000 HD
BRANCH  16  19
ATOM     19  C   UNL     1      -3.316  10.589  17.882  0.00  0.00    +0.000 C 
BRANCH  19  20
ATOM     20  C   UNL     1      -4.405  11.617  18.063  0.00  0.00    +0.000 A 
ATOM     21  C   UNL     1      -5.254  11.975  16.986  0.00  0.00    +0.000 A 
ATOM     22  C   UNL     1      -6.355  12.816  17.186  0.00  0.00    +0.000 A 
ATOM     23  C   UNL     1      -6.591  13.253  18.468  0.00  0.00    +0.000 A 
ATOM     24  C   UNL     1      -5.733  12.959  19.505  0.00  0.00    +0.000 A 
ATOM     25  C   UNL     1      -4.615  12.179  19.330  0.00  0.00    +0.000 A 
ATOM     26  O   UNL     1      -6.182  13.441  20.696  0.00  0.00    +0.000 OA
ATOM     27  C   UNL     1      -7.540  13.747  20.323  0.00  0.00    +0.000 C 
ATOM     28  O   UNL     1      -7.690  13.934  18.900  0.00  0.00    +0.000 OA
ENDBRANCH  19  20
ENDBRANCH  16  19
ENDBRANCH   1  15
BRANCH   1  29
ATOM     29  C   UNL     1       0.135  11.379  20.913  0.00  0.00    +0.000 C 
ATOM     30  O   UNL     1       1.053  12.058  21.364  0.00  0.00    +0.000 OA
BRANCH  29  31
ATOM     31  O   UNL     1      -1.034  11.114  21.567  0.00  0.00    +0.000 OA
ATOM     32  C   UNL     1      -0.867  10.637  22.904  0.00  0.00    +0.000 C 
ENDBRANCH  29  31
ENDBRANCH   1  29
TORSDOF 11
ENDMDL
MODEL 8
REMARK VINA RESULT:      -6.8      6.542     10.082
REMARK  Name = 
REMARK  14 active torsions:
REMARK  status: ('A' for Active; 'I' for Inactive)
REMARK    1  A    between atoms: C_1  and  C_2
REMARK    2  A    between atoms: C_2  and  C_3
REMARK    3  A    between atoms: C_3  and  C_4
REMARK    4  A    between atoms: C_4  and  C_5
REMARK    5  A    between atoms: C_4  and  C_6
REMARK    6  A    between atoms: C_6  and  O_7
REMARK    7  A    between atoms: O_7  and  C_8
REMARK    8  A    between atoms: C_11  and  C_12
REMARK    9  A    between atoms: C_12  and  N_13
REMARK   10  A    between atoms: C_12  and  C_26
REMARK   11  A    between atoms: C_14  and  C_16
REMARK   12  A    between atoms: C_16  and  C_17
REMARK   13  A    between atoms: C_26  and  O_28
REMARK   14  A    between atoms: O_28  and  C_29
REMARK                            x       y       z     vdW  Elec       q    Type
REMARK                         _______ _______ _______ _____ _____    ______ ____
ROOT
ATOM      1  C   UNL     1       0.612   9.733  20.498  0.00  0.00    +0.000 C 
ENDROOT
BRANCH   1   5
ATOM      2  C   UNL     1       2.843   6.727  18.300  0.00  0.00    +0.000 A 
ATOM      3  C   UNL     1       2.468   7.937  17.724  0.00  0.00    +0.000 A 
ATOM      4  C   UNL     1       1.812   8.907  18.469  0.00  0.00    +0.000 A 
ATOM      5  C   UNL     1       1.478   8.685  19.814  0.00  0.00    +0.000 A 
ATOM      6  C   UNL     1       1.865   7.474  20.399  0.00  0.00    +0.000 A 
ATOM      7  C   UNL     1       2.553   6.509  19.651  0.00  0.00    +0.000 A 
BRANCH   2   8
ATOM      8  O   UNL     1       3.473   5.704  17.636  0.00  0.00    +0.000 OA
BRANCH   8   9
ATOM      9  C   UNL     1       4.776   5.387  18.137  0.00  0.00    +0.000 C 
BRANCH   9  10
ATOM     10  C   UNL     1       5.854   5.582  17.064  0.00  0.00    +0.000 C 
ATOM     11  C   UNL     1       6.528   6.936  17.307  0.00  0.00    +0.000 C 
BRANCH  10  12
ATOM     12  C   UNL     1       5.242   5.479  15.654  0.00  0.00    +0.000 C 
BRANCH  12  14
ATOM     13  C   UNL     1       6.939   4.729  13.950  0.00  0.00    +0.000 C 
ATOM     14  C   UNL     1       5.788   4.300  14.847  0.00  0.00    +0.000 C 
ENDBRANCH  12  14
ENDBRANCH  10  12
ENDBRANCH   9  10
ENDBRANCH   8   9
ENDBRANCH   2   8
ENDBRANCH   1   5
BRANCH   1  15
ATOM     15  N   UNL     1      -0.386  10.270  19.565  0.00  0.00    +0.000 N 
ATOM     16  C   UNL     1      -0.432  11.603  19.217  0.00  0.00    +0.000 C 
ATOM     17  O   UNL     1       0.304  12.458  19.703  0.00  0.00    +0.000 OA
ATOM     18  H   UNL     1      -0.974   9.597  19.090  0.00  0.00    +0.000 HD
BRANCH  16  19
ATOM     19  C   UNL     1      -1.501  11.970  18.200  0.00  0.00    +0.000 C 
BRANCH  19  20
ATOM     20  C   UNL     1      -2.895  11.962  18.776  0.00  0.00    +0.000 A 
ATOM     21  C   UNL     1      -3.165  12.545  20.039  0.00  0.00    +0.000 A 
ATOM     22  C   UNL     1      -4.476  12.671  20.510  0.00  0.00    +0.000 A 
ATOM     23  C   UNL     1      -5.487  12.235  19.686  0.00  0.00    +0.000 A 
ATOM     24  C   UNL     1      -5.227  11.611  18.485  0.00  0.00    +0.000 A 
ATOM     25  C   UNL     1      -3.947  11.425  18.020  0.00  0.00    +0.000 A 
ATOM     26  O   UNL     1      -6.367  11.310  17.805  0.00  0.00    +0.000 OA
ATOM     27  C   UNL     1      -7.300  12.114  18.553  0.00  0.00    +0.000 C 
ATOM     28  O   UNL     1      -6.824  12.415  19.881  0.00  0.00    +0.000 OA
ENDBRANCH  19  20
ENDBRANCH  16  19
ENDBRANCH   1  15
BRANCH   1  29
ATOM     29  C   UNL     1      -0.090   9.213  21.762  0.00  0.00    +0.000 C 
ATOM     30  O   UNL     1      -0.737   8.170  21.812  0.00  0.00    +0.000 OA
BRANCH  29  31
ATOM     31  O   UNL     1       0.106  10.061  22.814  0.00  0.00    +0.000 OA
ATOM     32  C   UNL     1      -1.009  10.908  23.103  0.00  0.00    +0.000 C 
ENDBRANCH  29  31
ENDBRANCH   1  29
TORSDOF 11
ENDMDL
MODEL 9
REMARK VINA RESULT:      -6.8      0.832      1.420
REMARK  Name = 
REMARK  14 active torsions:
REMARK  status: ('A' for Active; 'I' for Inactive)
REMARK    1  A    between atoms: C_1  and  C_2
REMARK    2  A    between atoms: C_2  and  C_3
REMARK    3  A    between atoms: C_3  and  C_4
REMARK    4  A    between atoms: C_4  and  C_5
REMARK    5  A    between atoms: C_4  and  C_6
REMARK    6  A    between atoms: C_6  and  O_7
REMARK    7  A    between atoms: O_7  and  C_8
REMARK    8  A    between atoms: C_11  and  C_12
REMARK    9  A    between atoms: C_12  and  N_13
REMARK   10  A    between atoms: C_12  and  C_26
REMARK   11  A    between atoms: C_14  and  C_16
REMARK   12  A    between atoms: C_16  and  C_17
REMARK   13  A    between atoms: C_26  and  O_28
REMARK   14  A    between atoms: O_28  and  C_29
REMARK                            x       y       z     vdW  Elec       q    Type
REMARK                         _______ _______ _______ _____ _____    ______ ____
ROOT
ATOM      1  C   UNL     1       6.722   6.595  16.851  0.00  0.00    +0.000 C 
ENDROOT
BRANCH   1   5
ATOM      2  C   UNL     1       3.153   6.139  19.279  0.00  0.00    +0.000 A 
ATOM      3  C   UNL     1       3.184   6.964  18.159  0.00  0.00    +0.000 A 
ATOM      4  C   UNL     1       4.318   7.041  17.362  0.00  0.00    +0.000 A 
ATOM      5  C   UNL     1       5.477   6.317  17.681  0.00  0.00    +0.000 A 
ATOM      6  C   UNL     1       5.444   5.478  18.800  0.00  0.00    +0.000 A 
ATOM      7  C   UNL     1       4.287   5.380  19.584  0.00  0.00    +0.000 A 
BRANCH   2   8
ATOM      8  O   UNL     1       2.086   6.016  20.134  0.00  0.00    +0.000 OA
BRANCH   8   9
ATOM      9  C   UNL     1       1.077   5.100  19.696  0.00  0.00    +0.000 C 
BRANCH   9  10
ATOM     10  C   UNL     1       1.686   3.914  18.937  0.00  0.00    +0.000 C 
ATOM     11  C   UNL     1       1.213   3.988  17.481  0.00  0.00    +0.000 C 
BRANCH  10  12
ATOM     12  C   UNL     1       1.299   2.583  19.609  0.00  0.00    +0.000 C 
BRANCH  12  14
ATOM     13  C   UNL     1       2.668   2.637  21.722  0.00  0.00    +0.000 C 
ATOM     14  C   UNL     1       1.266   2.670  21.136  0.00  0.00    +0.000 C 
ENDBRANCH  12  14
ENDBRANCH  10  12
ENDBRANCH   9  10
ENDBRANCH   8   9
ENDBRANCH   2   8
ENDBRANCH   1   5
BRANCH   1  15
ATOM     15  N   UNL     1       7.800   7.125  17.695  0.00  0.00    +0.000 N 
ATOM     16  C   UNL     1       7.938   8.469  17.963  0.00  0.00    +0.000 C 
ATOM     17  O   UNL     1       7.222   9.337  17.470  0.00  0.00    +0.000 OA
ATOM     18  H   UNL     1       8.379   6.445  18.174  0.00  0.00    +0.000 HD
BRANCH  16  19
ATOM     19  C   UNL     1       9.083   8.830  18.897  0.00  0.00    +0.000 C 
BRANCH  19  20
ATOM     20  C   UNL     1       9.297  10.318  19.025  0.00  0.00    +0.000 A 
ATOM     21  C   UNL     1       9.449  11.133  17.876  0.00  0.00    +0.000 A 
ATOM     22  C   UNL     1       9.501  12.528  17.983  0.00  0.00    +0.000 A 
ATOM     23  C   UNL     1       9.369  13.069  19.240  0.00  0.00    +0.000 A 
ATOM     24  C   UNL     1       9.284  12.279  20.366  0.00  0.00    +0.000 A 
ATOM     25  C   UNL     1       9.283  10.906  20.297  0.00  0.00    +0.000 A 
ATOM     26  O   UNL     1       9.103  13.014  21.497  0.00  0.00    +0.000 OA
ATOM     27  C   UNL     1       8.751  14.277  20.897  0.00  0.00    +0.000 C 
ATOM     28  O   UNL     1       9.227  14.391  19.540  0.00  0.00    +0.000 OA
ENDBRANCH  19  20
ENDBRANCH  16  19
ENDBRANCH   1  15
BRANCH   1  29
ATOM     29  C   UNL     1       7.226   5.367  16.079  0.00  0.00    +0.000 C 
ATOM     30  O   UNL     1       7.918   4.479  16.570  0.00  0.00    +0.000 OA
BRANCH  29  31
ATOM     31  O   UNL     1       6.801   5.397  14.781  0.00  0.00    +0.000 OA
ATOM     32  C   UNL     1       6.354   4.135  14.278  0.00  0.00    +0.000 C 
ENDBRANCH  29  31
ENDBRANCH   1  29
TORSDOF 11
ENDMDL
