MODEL 1
REMARK VINA RESULT:      -7.7      0.000      0.000
REMARK  Name = 
REMARK  7 active torsions:
REMARK  status: ('A' for Active; 'I' for Inactive)
REMARK    1  A    between atoms: C_2  and  C_14
REMARK    2  A    between atoms: N_3  and  C_4
REMARK    3  A    between atoms: C_4  and  C_5
REMARK    4  A    between atoms: C_5  and  C_6
REMARK    5  A    between atoms: C_6  and  C_7
REMARK    6  A    between atoms: C_7  and  N_8
REMARK    7  A    between atoms: C_17  and  C_18
REMARK                            x       y       z     vdW  Elec       q    Type
REMARK                         _______ _______ _______ _____ _____    ______ ____
ROOT
ATOM      1  O   UNL     1       3.882   7.364  17.177  0.00  0.00    +0.000 OA
ATOM      2  C   UNL     1       3.066   6.928  17.974  0.00  0.00    +0.000 C 
ATOM      3  N   UNL     1       2.803   5.587  18.160  0.00  0.00    +0.000 N 
ATOM      4  H   UNL     1       2.000   5.303  18.704  0.00  0.00    +0.000 HD
ENDROOT
BRANCH   2   5
ATOM      5  C   UNL     1       2.242   7.843  18.793  0.00  0.00    +0.000 A 
ATOM      6  C   UNL     1       1.692   8.977  18.200  0.00  0.00    +0.000 A 
ATOM      7  C   UNL     1       0.889   9.832  18.958  0.00  0.00    +0.000 A 
ATOM      8  C   UNL     1       0.612   9.568  20.313  0.00  0.00    +0.000 A 
ATOM      9  C   UNL     1       1.190   8.422  20.887  0.00  0.00    +0.000 A 
ATOM     10  C   UNL     1       2.008   7.574  20.143  0.00  0.00    +0.000 A 
BRANCH   8  11
ATOM     11  C   UNL     1      -0.251  10.456  21.112  0.00  0.00    +0.000 A 
ATOM     12  C   UNL     1      -1.004  11.486  20.536  0.00  0.00    +0.000 A 
ATOM     13  C   UNL     1      -1.811  12.302  21.324  0.00  0.00    +0.000 A 
ATOM     14  C   UNL     1      -1.856  12.062  22.688  0.00  0.00    +0.000 A 
ATOM     15  N   UNL     1      -1.160  11.087  23.295  0.00  0.00    +0.000 NA
ATOM     16  C   UNL     1      -0.374  10.317  22.498  0.00  0.00    +0.000 A 
ENDBRANCH   8  11
ENDBRANCH   2   5
BRANCH   3  17
ATOM     17  C   UNL     1       3.487   4.582  17.391  0.00  0.00    +0.000 C 
BRANCH  17  18
ATOM     18  C   UNL     1       3.765   3.330  18.216  0.00  0.00    +0.000 C 
BRANCH  18  19
ATOM     19  C   UNL     1       4.891   3.567  19.228  0.00  0.00    +0.000 C 
BRANCH  19  20
ATOM     20  C   UNL     1       5.628   4.898  19.011  0.00  0.00    +0.000 C 
BRANCH  20  21
ATOM     21  N   UNL     1       7.017   4.742  18.558  0.00  0.00    +0.000 NA
ATOM     22  C   UNL     1       7.794   5.981  18.809  0.00  0.00    +0.000 C 
ATOM     23  C   UNL     1       7.479   7.129  17.831  0.00  0.00    +0.000 C 
ATOM     24  O   UNL     1       7.687   6.724  16.473  0.00  0.00    +0.000 OA
ATOM     25  C   UNL     1       6.900   5.571  16.152  0.00  0.00    +0.000 C 
ATOM     26  C   UNL     1       7.164   4.407  17.125  0.00  0.00    +0.000 C 
ENDBRANCH  20  21
ENDBRANCH  19  20
ENDBRANCH  18  19
ENDBRANCH  17  18
ENDBRANCH   3  17
TORSDOF 7
ENDMDL
MODEL 2
REMARK VINA RESULT:      -7.4      3.083      9.212
REMARK  Name = 
REMARK  7 active torsions:
REMARK  status: ('A' for Active; 'I' for Inactive)
REMARK    1  A    between atoms: C_2  and  C_14
REMARK    2  A    between atoms: N_3  and  C_4
REMARK    3  A    between atoms: C_4  and  C_5
REMARK    4  A    between atoms: C_5  and  C_6
REMARK    5  A    between atoms: C_6  and  C_7
REMARK    6  A    between atoms: C_7  and  N_8
REMARK    7  A    between atoms: C_17  and  C_18
REMARK                            x       y       z     vdW  Elec       q    Type
REMARK                         _______ _______ _______ _____ _____    ______ ____
ROOT
ATOM      1  O   UNL     1       1.486   5.353  20.560  0.00  0.00    +0.000 OA
ATOM      2  C   UNL     1       2.136   6.236  20.022  0.00  0.00    +0.000 C 
ATOM      3  N   UNL     1       2.065   7.571  20.365  0.00  0.00    +0.000 N 
ATOM      4  H   UNL     1       2.494   8.266  19.770  0.00  0.00    +0.000 HD
ENDROOT
BRANCH   2   5
ATOM      5  C   UNL     1       3.043   5.931  18.895  0.00  0.00    +0.000 A 
ATOM      6  C   UNL     1       3.340   4.602  18.602  0.00  0.00    +0.000 A 
ATOM      7  C   UNL     1       4.173   4.302  17.521  0.00  0.00    +0.000 A 
ATOM      8  C   UNL     1       4.714   5.317  16.710  0.00  0.00    +0.000 A 
ATOM      9  C   UNL     1       4.406   6.650  17.037  0.00  0.00    +0.000 A 
ATOM     10  C   UNL     1       3.591   6.958  18.124  0.00  0.00    +0.000 A 
BRANCH   8  11
ATOM     11  C   UNL     1       5.578   5.006  15.557  0.00  0.00    +0.000 A 
ATOM     12  C   UNL     1       5.170   4.152  14.526  0.00  0.00    +0.000 A 
ATOM     13  C   UNL     1       6.013   3.886  13.449  0.00  0.00    +0.000 A 
ATOM     14  C   UNL     1       7.258   4.494  13.423  0.00  0.00    +0.000 A 
ATOM     15  N   UNL     1       7.700   5.325  14.380  0.00  0.00    +0.000 NA
ATOM     16  C   UNL     1       6.857   5.554  15.421  0.00  0.00    +0.000 A 
ENDBRANCH   8  11
ENDBRANCH   2   5
BRANCH   3  17
ATOM     17  C   UNL     1       1.182   8.025  21.405  0.00  0.00    +0.000 C 
BRANCH  17  18
ATOM     18  C   UNL     1       0.913   9.523  21.307  0.00  0.00    +0.000 C 
BRANCH  18  19
ATOM     19  C   UNL     1       0.677   9.953  19.855  0.00  0.00    +0.000 C 
BRANCH  19  20
ATOM     20  C   UNL     1      -0.809  10.152  19.518  0.00  0.00    +0.000 C 
BRANCH  20  21
ATOM     21  N   UNL     1      -1.044  10.767  18.204  0.00  0.00    +0.000 NA
ATOM     22  C   UNL     1      -1.837  12.013  18.341  0.00  0.00    +0.000 C 
ATOM     23  C   UNL     1      -3.332  11.777  18.631  0.00  0.00    +0.000 C 
ATOM     24  O   UNL     1      -3.933  10.960  17.619  0.00  0.00    +0.000 OA
ATOM     25  C   UNL     1      -3.249   9.707  17.495  0.00  0.00    +0.000 C 
ATOM     26  C   UNL     1      -1.745   9.898  17.233  0.00  0.00    +0.000 C 
ENDBRANCH  20  21
ENDBRANCH  19  20
ENDBRANCH  18  19
ENDBRANCH  17  18
ENDBRANCH   3  17
TORSDOF 7
ENDMDL
MODEL 3
REMARK VINA RESULT:      -7.4      2.246      3.831
REMARK  Name = 
REMARK  7 active torsions:
REMARK  status: ('A' for Active; 'I' for Inactive)
REMARK    1  A    between atoms: C_2  and  C_14
REMARK    2  A    between atoms: N_3  and  C_4
REMARK    3  A    between atoms: C_4  and  C_5
REMARK    4  A    between atoms: C_5  and  C_6
REMARK    5  A    between atoms: C_6  and  C_7
REMARK    6  A    between atoms: C_7  and  N_8
REMARK    7  A    between atoms: C_17  and  C_18
REMARK                            x       y       z     vdW  Elec       q    Type
REMARK                         _______ _______ _______ _____ _____    ______ ____
ROOT
ATOM      1  O   UNL     1       3.872   5.871  19.471  0.00  0.00    +0.000 OA
ATOM      2  C   UNL     1       3.557   6.647  18.582  0.00  0.00    +0.000 C 
ATOM      3  N   UNL     1       4.136   6.669  17.330  0.00  0.00    +0.000 N 
ATOM      4  H   UNL     1       3.954   7.442  16.706  0.00  0.00    +0.000 HD
ENDROOT
BRANCH   2   5
ATOM      5  C   UNL     1       2.530   7.685  18.811  0.00  0.00    +0.000 A 
ATOM      6  C   UNL     1       2.168   8.526  17.763  0.00  0.00    +0.000 A 
ATOM      7  C   UNL     1       1.177   9.491  17.961  0.00  0.00    +0.000 A 
ATOM      8  C   UNL     1       0.525   9.628  19.201  0.00  0.00    +0.000 A 
ATOM      9  C   UNL     1       0.920   8.772  20.245  0.00  0.00    +0.000 A 
ATOM     10  C   UNL     1       1.920   7.819  20.060  0.00  0.00    +0.000 A 
BRANCH   8  11
ATOM     11  C   UNL     1      -0.534  10.631  19.411  0.00  0.00    +0.000 A 
ATOM     12  C   UNL     1      -1.645  10.734  18.568  0.00  0.00    +0.000 A 
ATOM     13  C   UNL     1      -2.628  11.692  18.801  0.00  0.00    +0.000 A 
ATOM     14  C   UNL     1      -2.481  12.533  19.893  0.00  0.00    +0.000 A 
ATOM     15  N   UNL     1      -1.439  12.478  20.739  0.00  0.00    +0.000 NA
ATOM     16  C   UNL     1      -0.493  11.538  20.475  0.00  0.00    +0.000 A 
ENDBRANCH   8  11
ENDBRANCH   2   5
BRANCH   3  17
ATOM     17  C   UNL     1       5.191   5.754  16.982  0.00  0.00    +0.000 C 
BRANCH  17  18
ATOM     18  C   UNL     1       4.679   4.595  16.134  0.00  0.00    +0.000 C 
BRANCH  18  19
ATOM     19  C   UNL     1       4.255   3.410  17.007  0.00  0.00    +0.000 C 
BRANCH  19  20
ATOM     20  C   UNL     1       2.745   3.380  17.293  0.00  0.00    +0.000 C 
BRANCH  20  21
ATOM     21  N   UNL     1       2.306   2.200  18.053  0.00  0.00    +0.000 NA
ATOM     22  C   UNL     1       0.970   2.431  18.656  0.00  0.00    +0.000 C 
ATOM     23  C   UNL     1       0.988   3.362  19.883  0.00  0.00    +0.000 C 
ATOM     24  O   UNL     1       1.870   2.866  20.897  0.00  0.00    +0.000 OA
ATOM     25  C   UNL     1       3.197   2.695  20.387  0.00  0.00    +0.000 C 
ATOM     26  C   UNL     1       3.221   1.792  19.140  0.00  0.00    +0.000 C 
ENDBRANCH  20  21
ENDBRANCH  19  20
ENDBRANCH  18  19
ENDBRANCH  17  18
ENDBRANCH   3  17
TORSDOF 7
ENDMDL
MODEL 4
REMARK VINA RESULT:      -7.3      2.263      2.809
REMARK  Name = 
REMARK  7 active torsions:
REMARK  status: ('A' for Active; 'I' for Inactive)
REMARK    1  A    between atoms: C_2  and  C_14
REMARK    2  A    between atoms: N_3  and  C_4
REMARK    3  A    between atoms: C_4  and  C_5
REMARK    4  A    between atoms: C_5  and  C_6
REMARK    5  A    between atoms: C_6  and  C_7
REMARK    6  A    between atoms: C_7  and  N_8
REMARK    7  A    between atoms: C_17  and  C_18
REMARK                            x       y       z     vdW  Elec       q    Type
REMARK                         _______ _______ _______ _____ _____    ______ ____
ROOT
ATOM      1  O   UNL     1       4.561   5.635  19.660  0.00  0.00    +0.000 OA
ATOM      2  C   UNL     1       3.347   5.644  19.525  0.00  0.00    +0.000 C 
ATOM      3  N   UNL     1       2.565   4.509  19.459  0.00  0.00    +0.000 N 
ATOM      4  H   UNL     1       1.599   4.581  19.174  0.00  0.00    +0.000 HD
ENDROOT
BRANCH   2   5
ATOM      5  C   UNL     1       2.611   6.917  19.372  0.00  0.00    +0.000 A 
ATOM      6  C   UNL     1       2.600   7.552  18.133  0.00  0.00    +0.000 A 
ATOM      7  C   UNL     1       1.884   8.740  17.971  0.00  0.00    +0.000 A 
ATOM      8  C   UNL     1       1.159   9.310  19.035  0.00  0.00    +0.000 A 
ATOM      9  C   UNL     1       1.198   8.652  20.277  0.00  0.00    +0.000 A 
ATOM     10  C   UNL     1       1.925   7.477  20.452  0.00  0.00    +0.000 A 
BRANCH   8  11
ATOM     11  C   UNL     1       0.386  10.553  18.865  0.00  0.00    +0.000 A 
ATOM     12  C   UNL     1       0.796  11.771  19.417  0.00  0.00    +0.000 A 
ATOM     13  C   UNL     1       0.041  12.926  19.231  0.00  0.00    +0.000 A 
ATOM     14  C   UNL     1      -1.121  12.838  18.480  0.00  0.00    +0.000 A 
ATOM     15  N   UNL     1      -1.561  11.698  17.923  0.00  0.00    +0.000 NA
ATOM     16  C   UNL     1      -0.805  10.588  18.134  0.00  0.00    +0.000 A 
ENDBRANCH   8  11
ENDBRANCH   2   5
BRANCH   3  17
ATOM     17  C   UNL     1       3.151   3.198  19.535  0.00  0.00    +0.000 C 
BRANCH  17  18
ATOM     18  C   UNL     1       3.101   2.476  18.193  0.00  0.00    +0.000 C 
BRANCH  18  19
ATOM     19  C   UNL     1       3.231   3.460  17.025  0.00  0.00    +0.000 C 
BRANCH  19  20
ATOM     20  C   UNL     1       4.691   3.782  16.666  0.00  0.00    +0.000 C 
BRANCH  20  21
ATOM     21  N   UNL     1       4.845   4.964  15.807  0.00  0.00    +0.000 NA
ATOM     22  C   UNL     1       5.616   4.628  14.585  0.00  0.00    +0.000 C 
ATOM     23  C   UNL     1       7.128   4.458  14.824  0.00  0.00    +0.000 C 
ATOM     24  O   UNL     1       7.695   5.633  15.415  0.00  0.00    +0.000 OA
ATOM     25  C   UNL     1       7.034   5.962  16.642  0.00  0.00    +0.000 C 
ATOM     26  C   UNL     1       5.514   6.114  16.453  0.00  0.00    +0.000 C 
ENDBRANCH  20  21
ENDBRANCH  19  20
ENDBRANCH  18  19
ENDBRANCH  17  18
ENDBRANCH   3  17
TORSDOF 7
ENDMDL
MODEL 5
REMARK VINA RESULT:      -7.3      3.276      8.938
REMARK  Name = 
REMARK  7 active torsions:
REMARK  status: ('A' for Active; 'I' for Inactive)
REMARK    1  A    between atoms: C_2  and  C_14
REMARK    2  A    between atoms: N_3  and  C_4
REMARK    3  A    between atoms: C_4  and  C_5
REMARK    4  A    between atoms: C_5  and  C_6
REMARK    5  A    between atoms: C_6  and  C_7
REMARK    6  A    between atoms: C_7  and  N_8
REMARK    7  A    between atoms: C_17  and  C_18
REMARK                            x       y       z     vdW  Elec       q    Type
REMARK                         _______ _______ _______ _____ _____    ______ ____
ROOT
ATOM      1  O   UNL     1      -0.120   8.710  21.693  0.00  0.00    +0.000 OA
ATOM      2  C   UNL     1       0.622   9.204  20.858  0.00  0.00    +0.000 C 
ATOM      3  N   UNL     1       0.732  10.559  20.623  0.00  0.00    +0.000 N 
ATOM      4  H   UNL     1       1.229  10.888  19.808  0.00  0.00    +0.000 HD
ENDROOT
BRANCH   2   5
ATOM      5  C   UNL     1       1.448   8.350  19.978  0.00  0.00    +0.000 A 
ATOM      6  C   UNL     1       1.787   8.810  18.708  0.00  0.00    +0.000 A 
ATOM      7  C   UNL     1       2.592   8.023  17.881  0.00  0.00    +0.000 A 
ATOM      8  C   UNL     1       3.079   6.772  18.306  0.00  0.00    +0.000 A 
ATOM      9  C   UNL     1       2.710   6.329  19.589  0.00  0.00    +0.000 A 
ATOM     10  C   UNL     1       1.893   7.100  20.414  0.00  0.00    +0.000 A 
BRANCH   8  11
ATOM     11  C   UNL     1       3.944   5.946  17.445  0.00  0.00    +0.000 A 
ATOM     12  C   UNL     1       4.844   6.505  16.532  0.00  0.00    +0.000 A 
ATOM     13  C   UNL     1       5.649   5.692  15.738  0.00  0.00    +0.000 A 
ATOM     14  C   UNL     1       5.540   4.318  15.882  0.00  0.00    +0.000 A 
ATOM     15  N   UNL     1       4.697   3.725  16.744  0.00  0.00    +0.000 NA
ATOM     16  C   UNL     1       3.920   4.549  17.495  0.00  0.00    +0.000 A 
ENDBRANCH   8  11
ENDBRANCH   2   5
BRANCH   3  17
ATOM     17  C   UNL     1      -0.055  11.508  21.364  0.00  0.00    +0.000 C 
BRANCH  17  18
ATOM     18  C   UNL     1      -0.838  12.436  20.442  0.00  0.00    +0.000 C 
BRANCH  18  19
ATOM     19  C   UNL     1      -0.338  12.339  18.997  0.00  0.00    +0.000 C 
BRANCH  19  20
ATOM     20  C   UNL     1      -1.477  12.211  17.972  0.00  0.00    +0.000 C 
BRANCH  20  21
ATOM     21  N   UNL     1      -2.279  10.990  18.124  0.00  0.00    +0.000 NA
ATOM     22  C   UNL     1      -2.027  10.052  17.002  0.00  0.00    +0.000 C 
ATOM     23  C   UNL     1      -2.692  10.467  15.676  0.00  0.00    +0.000 C 
ATOM     24  O   UNL     1      -4.108  10.624  15.833  0.00  0.00    +0.000 OA
ATOM     25  C   UNL     1      -4.409  11.578  16.857  0.00  0.00    +0.000 C 
ATOM     26  C   UNL     1      -3.739  11.216  18.195  0.00  0.00    +0.000 C 
ENDBRANCH  20  21
ENDBRANCH  19  20
ENDBRANCH  18  19
ENDBRANCH  17  18
ENDBRANCH   3  17
TORSDOF 7
ENDMDL
MODEL 6
REMARK VINA RESULT:      -7.3      3.338      9.012
REMARK  Name = 
REMARK  7 active torsions:
REMARK  status: ('A' for Active; 'I' for Inactive)
REMARK    1  A    between atoms: C_2  and  C_14
REMARK    2  A    between atoms: N_3  and  C_4
REMARK    3  A    between atoms: C_4  and  C_5
REMARK    4  A    between atoms: C_5  and  C_6
REMARK    5  A    between atoms: C_6  and  C_7
REMARK    6  A    between atoms: C_7  and  N_8
REMARK    7  A    between atoms: C_17  and  C_18
REMARK                            x       y       z     vdW  Elec       q    Type
REMARK                         _______ _______ _______ _____ _____    ______ ____
ROOT
ATOM      1  O   UNL     1      -0.521   9.819  21.283  0.00  0.00    +0.000 OA
ATOM      2  C   UNL     1       0.452  10.126  20.612  0.00  0.00    +0.000 C 
ATOM      3  N   UNL     1       0.891  11.422  20.428  0.00  0.00    +0.000 N 
ATOM      4  H   UNL     1       1.590  11.620  19.727  0.00  0.00    +0.000 HD
ENDROOT
BRANCH   2   5
ATOM      5  C   UNL     1       1.228   9.098  19.887  0.00  0.00    +0.000 A 
ATOM      6  C   UNL     1       1.615   7.940  20.557  0.00  0.00    +0.000 A 
ATOM      7  C   UNL     1       2.323   6.950  19.872  0.00  0.00    +0.000 A 
ATOM      8  C   UNL     1       2.650   7.091  18.510  0.00  0.00    +0.000 A 
ATOM      9  C   UNL     1       2.257   8.276  17.864  0.00  0.00    +0.000 A 
ATOM     10  C   UNL     1       1.565   9.276  18.544  0.00  0.00    +0.000 A 
BRANCH   8  11
ATOM     11  C   UNL     1       3.381   6.041  17.778  0.00  0.00    +0.000 A 
ATOM     12  C   UNL     1       2.969   4.704  17.778  0.00  0.00    +0.000 A 
ATOM     13  C   UNL     1       3.683   3.740  17.070  0.00  0.00    +0.000 A 
ATOM     14  C   UNL     1       4.804   4.143  16.360  0.00  0.00    +0.000 A 
ATOM     15  N   UNL     1       5.243   5.411  16.320  0.00  0.00    +0.000 NA
ATOM     16  C   UNL     1       4.529   6.323  17.031  0.00  0.00    +0.000 A 
ENDBRANCH   8  11
ENDBRANCH   2   5
BRANCH   3  17
ATOM     17  C   UNL     1       0.199  12.532  21.026  0.00  0.00    +0.000 C 
BRANCH  17  18
ATOM     18  C   UNL     1      -0.528  13.374  19.984  0.00  0.00    +0.000 C 
BRANCH  18  19
ATOM     19  C   UNL     1      -1.821  12.695  19.520  0.00  0.00    +0.000 C 
BRANCH  19  20
ATOM     20  C   UNL     1      -1.661  11.932  18.195  0.00  0.00    +0.000 C 
BRANCH  20  21
ATOM     21  N   UNL     1      -2.491  10.723  18.100  0.00  0.00    +0.000 NA
ATOM     22  C   UNL     1      -2.156   9.950  16.880  0.00  0.00    +0.000 C 
ATOM     23  C   UNL     1      -2.699  10.568  15.577  0.00  0.00    +0.000 C 
ATOM     24  O   UNL     1      -4.120  10.739  15.636  0.00  0.00    +0.000 OA
ATOM     25  C   UNL     1      -4.495  11.544  16.760  0.00  0.00    +0.000 C 
ATOM     26  C   UNL     1      -3.948  10.976  18.082  0.00  0.00    +0.000 C 
ENDBRANCH  20  21
ENDBRANCH  19  20
ENDBRANCH  18  19
ENDBRANCH  17  18
ENDBRANCH   3  17
TORSDOF 7
ENDMDL
MODEL 7
REMARK VINA RESULT:      -7.3      2.050      3.798
REMARK  Name = 
REMARK  7 active torsions:
REMARK  status: ('A' for Active; 'I' for Inactive)
REMARK    1  A    between atoms: C_2  and  C_14
REMARK    2  A    between atoms: N_3  and  C_4
REMARK    3  A    between atoms: C_4  and  C_5
REMARK    4  A    between atoms: C_5  and  C_6
REMARK    5  A    between atoms: C_6  and  C_7
REMARK    6  A    between atoms: C_7  and  N_8
REMARK    7  A    between atoms: C_17  and  C_18
REMARK                            x       y       z     vdW  Elec       q    Type
REMARK                         _______ _______ _______ _____ _____    ______ ____
ROOT
ATOM      1  O   UNL     1       4.370   6.906  16.736  0.00  0.00    +0.000 OA
ATOM      2  C   UNL     1       3.812   6.666  17.796  0.00  0.00    +0.000 C 
ATOM      3  N   UNL     1       4.007   5.515  18.532  0.00  0.00    +0.000 N 
ATOM      4  H   UNL     1       3.390   5.302  19.303  0.00  0.00    +0.000 HD
ENDROOT
BRANCH   2   5
ATOM      5  C   UNL     1       2.821   7.606  18.362  0.00  0.00    +0.000 A 
ATOM      6  C   UNL     1       2.346   7.397  19.654  0.00  0.00    +0.000 A 
ATOM      7  C   UNL     1       1.430   8.296  20.207  0.00  0.00    +0.000 A 
ATOM      8  C   UNL     1       0.981   9.420  19.489  0.00  0.00    +0.000 A 
ATOM      9  C   UNL     1       1.470   9.598  18.182  0.00  0.00    +0.000 A 
ATOM     10  C   UNL     1       2.369   8.697  17.616  0.00  0.00    +0.000 A 
BRANCH   8  11
ATOM     11  C   UNL     1       0.031  10.382  20.074  0.00  0.00    +0.000 A 
ATOM     12  C   UNL     1      -0.911  11.069  19.300  0.00  0.00    +0.000 A 
ATOM     13  C   UNL     1      -1.796  11.968  19.890  0.00  0.00    +0.000 A 
ATOM     14  C   UNL     1      -1.725  12.156  21.261  0.00  0.00    +0.000 A 
ATOM     15  N   UNL     1      -0.846  11.522  22.054  0.00  0.00    +0.000 NA
ATOM     16  C   UNL     1       0.009  10.661  21.444  0.00  0.00    +0.000 A 
ENDBRANCH   8  11
ENDBRANCH   2   5
BRANCH   3  17
ATOM     17  C   UNL     1       4.899   4.483  18.076  0.00  0.00    +0.000 C 
BRANCH  17  18
ATOM     18  C   UNL     1       4.223   3.549  17.078  0.00  0.00    +0.000 C 
BRANCH  18  19
ATOM     19  C   UNL     1       3.587   2.346  17.783  0.00  0.00    +0.000 C 
BRANCH  19  20
ATOM     20  C   UNL     1       3.827   2.339  19.301  0.00  0.00    +0.000 C 
BRANCH  20  21
ATOM     21  N   UNL     1       2.640   1.980  20.090  0.00  0.00    +0.000 NA
ATOM     22  C   UNL     1       1.398   2.295  19.342  0.00  0.00    +0.000 C 
ATOM     23  C   UNL     1       1.058   3.796  19.295  0.00  0.00    +0.000 C 
ATOM     24  O   UNL     1       0.952   4.346  20.613  0.00  0.00    +0.000 OA
ATOM     25  C   UNL     1       2.157   4.135  21.358  0.00  0.00    +0.000 C 
ATOM     26  C   UNL     1       2.549   2.648  21.406  0.00  0.00    +0.000 C 
ENDBRANCH  20  21
ENDBRANCH  19  20
ENDBRANCH  18  19
ENDBRANCH  17  18
ENDBRANCH   3  17
TORSDOF 7
ENDMDL
MODEL 8
REMARK VINA RESULT:      -7.3      1.897      3.140
REMARK  Name = 
REMARK  7 active torsions:
REMARK  status: ('A' for Active; 'I' for Inactive)
REMARK    1  A    between atoms: C_2  and  C_14
REMARK    2  A    between atoms: N_3  and  C_4
REMARK    3  A    between atoms: C_4  and  C_5
REMARK    4  A    between atoms: C_5  and  C_6
REMARK    5  A    between atoms: C_6  and  C_7
REMARK    6  A    between atoms: C_7  and  N_8
REMARK    7  A    between atoms: C_17  and  C_18
REMARK                            x       y       z     vdW  Elec       q    Type
REMARK                         _______ _______ _______ _____ _____    ______ ____
ROOT
ATOM      1  O   UNL     1       2.174   7.960  19.344  0.00  0.00    +0.000 OA
ATOM      2  C   UNL     1       1.579   7.795  20.397  0.00  0.00    +0.000 C 
ATOM      3  N   UNL     1       1.542   6.601  21.089  0.00  0.00    +0.000 N 
ATOM      4  H   UNL     1       0.894   6.484  21.855  0.00  0.00    +0.000 HD
ENDROOT
BRANCH   2   5
ATOM      5  C   UNL     1       0.789   8.889  21.002  0.00  0.00    +0.000 A 
ATOM      6  C   UNL     1       0.180   8.685  22.237  0.00  0.00    +0.000 A 
ATOM      7  C   UNL     1      -0.544   9.722  22.830  0.00  0.00    +0.000 A 
ATOM      8  C   UNL     1      -0.665  10.980  22.210  0.00  0.00    +0.000 A 
ATOM      9  C   UNL     1      -0.048  11.152  20.958  0.00  0.00    +0.000 A 
ATOM     10  C   UNL     1       0.660  10.117  20.351  0.00  0.00    +0.000 A 
BRANCH   8  11
ATOM     11  C   UNL     1      -1.411  12.084  22.839  0.00  0.00    +0.000 A 
ATOM     12  C   UNL     1      -2.715  11.927  23.320  0.00  0.00    +0.000 A 
ATOM     13  C   UNL     1      -3.387  12.994  23.914  0.00  0.00    +0.000 A 
ATOM     14  C   UNL     1      -2.727  14.207  24.022  0.00  0.00    +0.000 A 
ATOM     15  N   UNL     1      -1.475  14.415  23.582  0.00  0.00    +0.000 NA
ATOM     16  C   UNL     1      -0.854  13.357  22.999  0.00  0.00    +0.000 A 
ENDBRANCH   8  11
ENDBRANCH   2   5
BRANCH   3  17
ATOM     17  C   UNL     1       2.217   5.432  20.590  0.00  0.00    +0.000 C 
BRANCH  17  18
ATOM     18  C   UNL     1       1.232   4.379  20.095  0.00  0.00    +0.000 C 
BRANCH  18  19
ATOM     19  C   UNL     1       1.500   4.008  18.632  0.00  0.00    +0.000 C 
BRANCH  19  20
ATOM     20  C   UNL     1       2.784   4.644  18.074  0.00  0.00    +0.000 C 
BRANCH  20  21
ATOM     21  N   UNL     1       3.882   3.688  17.873  0.00  0.00    +0.000 NA
ATOM     22  C   UNL     1       4.809   3.701  19.031  0.00  0.00    +0.000 C 
ATOM     23  C   UNL     1       5.732   4.933  19.081  0.00  0.00    +0.000 C 
ATOM     24  O   UNL     1       6.500   5.056  17.878  0.00  0.00    +0.000 OA
ATOM     25  C   UNL     1       5.648   5.123  16.729  0.00  0.00    +0.000 C 
ATOM     26  C   UNL     1       4.688   3.922  16.655  0.00  0.00    +0.000 C 
ENDBRANCH  20  21
ENDBRANCH  19  20
ENDBRANCH  18  19
ENDBRANCH  17  18
ENDBRANCH   3  17
TORSDOF 7
ENDMDL
MODEL 9
REMARK VINA RESULT:      -7.2      2.303      2.666
REMARK  Name = 
REMARK  7 active torsions:
REMARK  status: ('A' for Active; 'I' for Inactive)
REMARK    1  A    between atoms: C_2  and  C_14
REMARK    2  A    between atoms: N_3  and  C_4
REMARK    3  A    between atoms: C_4  and  C_5
REMARK    4  A    between atoms: C_5  and  C_6
REMARK    5  A    between atoms: C_6  and  C_7
REMARK    6  A    between atoms: C_7  and  N_8
REMARK    7  A    between atoms: C_17  and  C_18
REMARK                            x       y       z     vdW  Elec       q    Type
REMARK                         _______ _______ _______ _____ _____    ______ ____
ROOT
ATOM      1  O   UNL     1       3.794   5.473  20.025  0.00  0.00    +0.000 OA
ATOM      2  C   UNL     1       2.639   5.687  19.692  0.00  0.00    +0.000 C 
ATOM      3  N   UNL     1       1.711   4.700  19.431  0.00  0.00    +0.000 N 
ATOM      4  H   UNL     1       0.832   4.939  18.995  0.00  0.00    +0.000 HD
ENDROOT
BRANCH   2   5
ATOM      5  C   UNL     1       2.151   7.068  19.492  0.00  0.00    +0.000 A 
ATOM      6  C   UNL     1       2.216   7.635  18.222  0.00  0.00    +0.000 A 
ATOM      7  C   UNL     1       1.731   8.930  18.018  0.00  0.00    +0.000 A 
ATOM      8  C   UNL     1       1.165   9.675  19.069  0.00  0.00    +0.000 A 
ATOM      9  C   UNL     1       1.124   9.081  20.343  0.00  0.00    +0.000 A 
ATOM     10  C   UNL     1       1.622   7.797  20.559  0.00  0.00    +0.000 A 
BRANCH   8  11
ATOM     11  C   UNL     1       0.634  11.033  18.856  0.00  0.00    +0.000 A 
ATOM     12  C   UNL     1      -0.702  11.269  18.515  0.00  0.00    +0.000 A 
ATOM     13  C   UNL     1      -1.168  12.568  18.326  0.00  0.00    +0.000 A 
ATOM     14  C   UNL     1      -0.278  13.617  18.491  0.00  0.00    +0.000 A 
ATOM     15  N   UNL     1       1.013  13.451  18.821  0.00  0.00    +0.000 NA
ATOM     16  C   UNL     1       1.437  12.170  18.988  0.00  0.00    +0.000 A 
ENDBRANCH   8  11
ENDBRANCH   2   5
BRANCH   3  17
ATOM     17  C   UNL     1       2.060   3.308  19.528  0.00  0.00    +0.000 C 
BRANCH  17  18
ATOM     18  C   UNL     1       2.367   2.704  18.162  0.00  0.00    +0.000 C 
BRANCH  18  19
ATOM     19  C   UNL     1       3.877   2.590  17.929  0.00  0.00    +0.000 C 
BRANCH  19  20
ATOM     20  C   UNL     1       4.389   3.526  16.823  0.00  0.00    +0.000 C 
BRANCH  20  21
ATOM     21  N   UNL     1       5.289   4.583  17.308  0.00  0.00    +0.000 NA
ATOM     22  C   UNL     1       4.927   5.894  16.715  0.00  0.00    +0.000 C 
ATOM     23  C   UNL     1       5.343   6.052  15.240  0.00  0.00    +0.000 C 
ATOM     24  O   UNL     1       6.751   5.846  15.074  0.00  0.00    +0.000 OA
ATOM     25  C   UNL     1       7.144   4.560  15.564  0.00  0.00    +0.000 C 
ATOM     26  C   UNL     1       6.722   4.349  17.029  0.00  0.00    +0.000 C 
ENDBRANCH  20  21
ENDBRANCH  19  20
ENDBRANCH  18  19
ENDBRANCH  17  18
ENDBRANCH   3  17
TORSDOF 7
ENDMDL
