MODEL 1
REMARK VINA RESULT:      -8.0      0.000      0.000
REMARK  Name = 
REMARK  8 active torsions:
REMARK  status: ('A' for Active; 'I' for Inactive)
REMARK    1  A    between atoms: C_2  and  O_3
REMARK    2  A    between atoms: C_2  and  C_4
REMARK    3  A    between atoms: C_8  and  C_9
REMARK    4  A    between atoms: C_9  and  C_10
REMARK    5  A    between atoms: C_10  and  N_11
REMARK    6  A    between atoms: N_11  and  N_12
REMARK    7  A    between atoms: C_13  and  C_14
REMARK    8  A    between atoms: C_17  and  C_18
REMARK                            x       y       z     vdW  Elec       q    Type
REMARK                         _______ _______ _______ _____ _____    ______ ____
ROOT
ATOM      1  N   UNL     1       8.527   9.806  17.983  0.00  0.00    +0.000 N 
ATOM      2  H   UNL     1       8.282  10.727  17.612  0.00  0.00    +0.000 HD
ENDROOT
BRANCH   1   3
ATOM      3  N   UNL     1       7.559   8.890  17.712  0.00  0.00    +0.000 NA
ATOM      4  C   UNL     1       7.833   7.641  17.909  0.00  0.00    +0.000 C 
BRANCH   4   5
ATOM      5  C   UNL     1       6.903   6.582  17.630  0.00  0.00    +0.000 A 
ATOM      6  C   UNL     1       6.773   5.787  16.515  0.00  0.00    +0.000 A 
ATOM      7  C   UNL     1       5.709   4.893  16.782  0.00  0.00    +0.000 A 
ATOM      8  C   UNL     1       5.284   5.149  18.070  0.00  0.00    +0.000 A 
ATOM      9  O   UNL     1       5.993   6.207  18.575  0.00  0.00    +0.000 OA
BRANCH   8  10
ATOM     10  C   UNL     1       4.292   4.570  18.977  0.00  0.00    +0.000 A 
ATOM     11  C   UNL     1       4.444   3.222  19.365  0.00  0.00    +0.000 A 
ATOM     12  C   UNL     1       3.526   2.602  20.216  0.00  0.00    +0.000 A 
ATOM     13  C   UNL     1       2.439   3.321  20.696  0.00  0.00    +0.000 A 
ATOM     14 CL   UNL     1       1.299   2.559  21.734  0.00  0.00    +0.000 Cl
ATOM     15  C   UNL     1       2.260   4.651  20.332  0.00  0.00    +0.000 A 
ATOM     16  C   UNL     1       3.178   5.273  19.474  0.00  0.00    +0.000 A 
ATOM     17 CL   UNL     1       2.819   6.913  19.045  0.00  0.00    +0.000 Cl
ENDBRANCH   8  10
ENDBRANCH   4   5
ENDBRANCH   1   3
BRANCH   1  18
ATOM     18  C   UNL     1       9.280   9.894  19.230  0.00  0.00    +0.000 C 
BRANCH  18  19
ATOM     19  C   UNL     1       9.878  11.290  19.445  0.00  0.00    +0.000 C 
BRANCH  19  24
ATOM     20  C   UNL     1      11.030  13.692  17.504  0.00  0.00    +0.000 C 
ATOM     21  C   UNL     1      12.030  14.277  18.516  0.00  0.00    +0.000 C 
ATOM     22  N   UNL     1      12.090  13.572  19.801  0.00  0.00    +0.000 NA
ATOM     23  C   UNL     1      12.323  12.144  19.631  0.00  0.00    +0.000 C 
ATOM     24  C   UNL     1      11.258  11.452  18.767  0.00  0.00    +0.000 C 
ATOM     25  C   UNL     1      11.155  12.164  17.406  0.00  0.00    +0.000 C 
ATOM     26  H   UNL     1      11.221  13.741  20.313  0.00  0.00    +0.000 HD
BRANCH  20  28
ATOM     27  O   UNL     1       9.318  15.125  18.479  0.00  0.00    +0.000 OA
ATOM     28  C   UNL     1       9.612  14.171  17.772  0.00  0.00    +0.000 C 
BRANCH  28  29
ATOM     29  O   UNL     1       8.670  13.468  17.103  0.00  0.00    +0.000 OA
ATOM     30  H   UNL     1       8.387  12.640  17.535  0.00  0.00    +0.000 HD
ENDBRANCH  28  29
ENDBRANCH  20  28
ENDBRANCH  19  24
ENDBRANCH  18  19
ENDBRANCH   1  18
TORSDOF 8
ENDMDL
MODEL 2
REMARK VINA RESULT:      -7.9      6.769     10.521
REMARK  Name = 
REMARK  8 active torsions:
REMARK  status: ('A' for Active; 'I' for Inactive)
REMARK    1  A    between atoms: C_2  and  O_3
REMARK    2  A    between atoms: C_2  and  C_4
REMARK    3  A    between atoms: C_8  and  C_9
REMARK    4  A    between atoms: C_9  and  C_10
REMARK    5  A    between atoms: C_10  and  N_11
REMARK    6  A    between atoms: N_11  and  N_12
REMARK    7  A    between atoms: C_13  and  C_14
REMARK    8  A    between atoms: C_17  and  C_18
REMARK                            x       y       z     vdW  Elec       q    Type
REMARK                         _______ _______ _______ _____ _____    ______ ____
ROOT
ATOM      1  N   UNL     1       2.597   6.529  18.085  0.00  0.00    +0.000 N 
ATOM      2  H   UNL     1       2.206   6.518  17.140  0.00  0.00    +0.000 HD
ENDROOT
BRANCH   1   3
ATOM      3  N   UNL     1       2.244   7.661  18.752  0.00  0.00    +0.000 NA
ATOM      4  C   UNL     1       1.846   8.676  18.055  0.00  0.00    +0.000 C 
BRANCH   4   5
ATOM      5  C   UNL     1       1.477   9.933  18.644  0.00  0.00    +0.000 A 
ATOM      6  C   UNL     1       1.868  11.212  18.324  0.00  0.00    +0.000 A 
ATOM      7  C   UNL     1       1.183  12.075  19.210  0.00  0.00    +0.000 A 
ATOM      8  C   UNL     1       0.361  11.283  19.986  0.00  0.00    +0.000 A 
ATOM      9  O   UNL     1       0.568   9.969  19.662  0.00  0.00    +0.000 OA
BRANCH   8  10
ATOM     10  C   UNL     1      -0.638  11.521  21.030  0.00  0.00    +0.000 A 
ATOM     11  C   UNL     1      -1.646  12.477  20.788  0.00  0.00    +0.000 A 
ATOM     12  C   UNL     1      -2.621  12.765  21.746  0.00  0.00    +0.000 A 
ATOM     13  C   UNL     1      -2.606  12.098  22.964  0.00  0.00    +0.000 A 
ATOM     14 CL   UNL     1      -3.797  12.456  24.152  0.00  0.00    +0.000 Cl
ATOM     15  C   UNL     1      -1.625  11.150  23.234  0.00  0.00    +0.000 A 
ATOM     16  C   UNL     1      -0.642  10.864  22.275  0.00  0.00    +0.000 A 
ATOM     17 CL   UNL     1       0.560   9.710  22.747  0.00  0.00    +0.000 Cl
ENDBRANCH   8  10
ENDBRANCH   4   5
ENDBRANCH   1   3
BRANCH   1  18
ATOM     18  C   UNL     1       3.904   5.883  18.152  0.00  0.00    +0.000 C 
BRANCH  18  19
ATOM     19  C   UNL     1       3.918   4.712  19.143  0.00  0.00    +0.000 C 
BRANCH  19  24
ATOM     20  C   UNL     1       1.905   2.208  19.881  0.00  0.00    +0.000 C 
ATOM     21  C   UNL     1       0.958   2.380  18.680  0.00  0.00    +0.000 C 
ATOM     22  N   UNL     1       1.321   3.461  17.758  0.00  0.00    +0.000 NA
ATOM     23  C   UNL     1       2.700   3.349  17.299  0.00  0.00    +0.000 C 
ATOM     24  C   UNL     1       3.724   3.346  18.444  0.00  0.00    +0.000 C 
ATOM     25  C   UNL     1       3.378   2.228  19.444  0.00  0.00    +0.000 C 
ATOM     26  H   UNL     1       1.164   4.359  18.221  0.00  0.00    +0.000 HD
BRANCH  20  28
ATOM     27  O   UNL     1       2.099   3.181  22.105  0.00  0.00    +0.000 OA
ATOM     28  C   UNL     1       1.587   3.193  20.994  0.00  0.00    +0.000 C 
BRANCH  28  29
ATOM     29  O   UNL     1       0.701   4.148  20.633  0.00  0.00    +0.000 OA
ATOM     30  H   UNL     1       0.009   3.857  20.012  0.00  0.00    +0.000 HD
ENDBRANCH  28  29
ENDBRANCH  20  28
ENDBRANCH  19  24
ENDBRANCH  18  19
ENDBRANCH   1  18
TORSDOF 8
ENDMDL
MODEL 3
REMARK VINA RESULT:      -7.8      7.330     10.941
REMARK  Name = 
REMARK  8 active torsions:
REMARK  status: ('A' for Active; 'I' for Inactive)
REMARK    1  A    between atoms: C_2  and  O_3
REMARK    2  A    between atoms: C_2  and  C_4
REMARK    3  A    between atoms: C_8  and  C_9
REMARK    4  A    between atoms: C_9  and  C_10
REMARK    5  A    between atoms: C_10  and  N_11
REMARK    6  A    between atoms: N_11  and  N_12
REMARK    7  A    between atoms: C_13  and  C_14
REMARK    8  A    between atoms: C_17  and  C_18
REMARK                            x       y       z     vdW  Elec       q    Type
REMARK                         _______ _______ _______ _____ _____    ______ ____
ROOT
ATOM      1  N   UNL     1       2.901   7.756  17.820  0.00  0.00    +0.000 N 
ATOM      2  H   UNL     1       3.719   7.915  18.413  0.00  0.00    +0.000 HD
ENDROOT
BRANCH   1   3
ATOM      3  N   UNL     1       2.168   8.892  17.675  0.00  0.00    +0.000 NA
ATOM      4  C   UNL     1       1.515   9.328  18.704  0.00  0.00    +0.000 C 
BRANCH   4   5
ATOM      5  C   UNL     1       0.683  10.499  18.664  0.00  0.00    +0.000 A 
ATOM      6  C   UNL     1       1.025  11.831  18.672  0.00  0.00    +0.000 A 
ATOM      7  C   UNL     1      -0.186  12.557  18.593  0.00  0.00    +0.000 A 
ATOM      8  C   UNL     1      -1.202  11.630  18.480  0.00  0.00    +0.000 A 
ATOM      9  O   UNL     1      -0.671  10.370  18.559  0.00  0.00    +0.000 OA
BRANCH   8  10
ATOM     10  C   UNL     1      -2.654  11.687  18.302  0.00  0.00    +0.000 A 
ATOM     11  C   UNL     1      -3.444  12.144  19.377  0.00  0.00    +0.000 A 
ATOM     12  C   UNL     1      -4.836  12.209  19.282  0.00  0.00    +0.000 A 
ATOM     13  C   UNL     1      -5.463  11.819  18.105  0.00  0.00    +0.000 A 
ATOM     14 CL   UNL     1      -7.178  11.885  17.986  0.00  0.00    +0.000 Cl
ATOM     15  C   UNL     1      -4.713  11.362  17.028  0.00  0.00    +0.000 A 
ATOM     16  C   UNL     1      -3.316  11.292  17.124  0.00  0.00    +0.000 A 
ATOM     17 CL   UNL     1      -2.495  10.652  15.739  0.00  0.00    +0.000 Cl
ENDBRANCH   8  10
ENDBRANCH   4   5
ENDBRANCH   1   3
BRANCH   1  18
ATOM     18  C   UNL     1       2.354   6.413  17.981  0.00  0.00    +0.000 C 
BRANCH  18  19
ATOM     19  C   UNL     1       3.112   5.604  19.041  0.00  0.00    +0.000 C 
BRANCH  19  24
ATOM     20  C   UNL     1       2.702   2.465  19.959  0.00  0.00    +0.000 C 
ATOM     21  C   UNL     1       1.894   2.022  18.727  0.00  0.00    +0.000 C 
ATOM     22  N   UNL     1       1.686   3.066  17.717  0.00  0.00    +0.000 NA
ATOM     23  C   UNL     1       2.939   3.683  17.302  0.00  0.00    +0.000 C 
ATOM     24  C   UNL     1       3.726   4.306  18.466  0.00  0.00    +0.000 C 
ATOM     25  C   UNL     1       3.962   3.245  19.556  0.00  0.00    +0.000 C 
ATOM     26  H   UNL     1       1.042   3.766  18.093  0.00  0.00    +0.000 HD
BRANCH  20  28
ATOM     27  O   UNL     1       2.186   3.511  22.097  0.00  0.00    +0.000 OA
ATOM     28  C   UNL     1       1.832   3.194  20.970  0.00  0.00    +0.000 C 
BRANCH  28  29
ATOM     29  O   UNL     1       0.610   3.523  20.493  0.00  0.00    +0.000 OA
ATOM     30  H   UNL     1       0.038   2.767  20.265  0.00  0.00    +0.000 HD
ENDBRANCH  28  29
ENDBRANCH  20  28
ENDBRANCH  19  24
ENDBRANCH  18  19
ENDBRANCH   1  18
TORSDOF 8
ENDMDL
MODEL 4
REMARK VINA RESULT:      -7.8      7.431     10.827
REMARK  Name = 
REMARK  8 active torsions:
REMARK  status: ('A' for Active; 'I' for Inactive)
REMARK    1  A    between atoms: C_2  and  O_3
REMARK    2  A    between atoms: C_2  and  C_4
REMARK    3  A    between atoms: C_8  and  C_9
REMARK    4  A    between atoms: C_9  and  C_10
REMARK    5  A    between atoms: C_10  and  N_11
REMARK    6  A    between atoms: N_11  and  N_12
REMARK    7  A    between atoms: C_13  and  C_14
REMARK    8  A    between atoms: C_17  and  C_18
REMARK                            x       y       z     vdW  Elec       q    Type
REMARK                         _______ _______ _______ _____ _____    ______ ____
ROOT
ATOM      1  N   UNL     1       2.004   7.458  20.965  0.00  0.00    +0.000 N 
ATOM      2  H   UNL     1       2.532   7.483  21.840  0.00  0.00    +0.000 HD
ENDROOT
BRANCH   1   3
ATOM      3  N   UNL     1       1.321   8.617  20.766  0.00  0.00    +0.000 NA
ATOM      4  C   UNL     1       1.090   8.984  19.547  0.00  0.00    +0.000 C 
BRANCH   4   5
ATOM      5  C   UNL     1       0.406  10.203  19.213  0.00  0.00    +0.000 A 
ATOM      6  C   UNL     1       0.905  11.461  18.966  0.00  0.00    +0.000 A 
ATOM      7  C   UNL     1      -0.207  12.281  18.664  0.00  0.00    +0.000 A 
ATOM      8  C   UNL     1      -1.322  11.468  18.683  0.00  0.00    +0.000 A 
ATOM      9  O   UNL     1      -0.948  10.203  19.053  0.00  0.00    +0.000 OA
BRANCH   8  10
ATOM     10  C   UNL     1      -2.749  11.644  18.407  0.00  0.00    +0.000 A 
ATOM     11  C   UNL     1      -3.569  12.168  19.427  0.00  0.00    +0.000 A 
ATOM     12  C   UNL     1      -4.942  12.348  19.238  0.00  0.00    +0.000 A 
ATOM     13  C   UNL     1      -5.518  12.006  18.021  0.00  0.00    +0.000 A 
ATOM     14 CL   UNL     1      -7.209  12.213  17.785  0.00  0.00    +0.000 Cl
ATOM     15  C   UNL     1      -4.737  11.485  16.995  0.00  0.00    +0.000 A 
ATOM     16  C   UNL     1      -3.360  11.300  17.186  0.00  0.00    +0.000 A 
ATOM     17 CL   UNL     1      -2.502  10.590  15.859  0.00  0.00    +0.000 Cl
ENDBRANCH   8  10
ENDBRANCH   4   5
ENDBRANCH   1   3
BRANCH   1  18
ATOM     18  C   UNL     1       1.506   6.121  20.658  0.00  0.00    +0.000 C 
BRANCH  18  19
ATOM     19  C   UNL     1       2.408   5.384  19.660  0.00  0.00    +0.000 C 
BRANCH  19  24
ATOM     20  C   UNL     1       3.499   3.117  17.531  0.00  0.00    +0.000 C 
ATOM     21  C   UNL     1       3.167   1.887  18.394  0.00  0.00    +0.000 C 
ATOM     22  N   UNL     1       2.523   2.188  19.676  0.00  0.00    +0.000 NA
ATOM     23  C   UNL     1       1.340   3.022  19.512  0.00  0.00    +0.000 C 
ATOM     24  C   UNL     1       1.629   4.356  18.807  0.00  0.00    +0.000 C 
ATOM     25  C   UNL     1       2.312   4.089  17.455  0.00  0.00    +0.000 C 
ATOM     26  H   UNL     1       3.205   2.640  20.291  0.00  0.00    +0.000 HD
BRANCH  20  28
ATOM     27  O   UNL     1       5.269   4.790  17.470  0.00  0.00    +0.000 OA
ATOM     28  C   UNL     1       4.798   3.776  17.967  0.00  0.00    +0.000 C 
BRANCH  28  29
ATOM     29  O   UNL     1       5.389   3.162  19.017  0.00  0.00    +0.000 OA
ATOM     30  H   UNL     1       4.784   2.892  19.732  0.00  0.00    +0.000 HD
ENDBRANCH  28  29
ENDBRANCH  20  28
ENDBRANCH  19  24
ENDBRANCH  18  19
ENDBRANCH   1  18
TORSDOF 8
ENDMDL
MODEL 5
REMARK VINA RESULT:      -7.8      1.584      1.739
REMARK  Name = 
REMARK  8 active torsions:
REMARK  status: ('A' for Active; 'I' for Inactive)
REMARK    1  A    between atoms: C_2  and  O_3
REMARK    2  A    between atoms: C_2  and  C_4
REMARK    3  A    between atoms: C_8  and  C_9
REMARK    4  A    between atoms: C_9  and  C_10
REMARK    5  A    between atoms: C_10  and  N_11
REMARK    6  A    between atoms: N_11  and  N_12
REMARK    7  A    between atoms: C_13  and  C_14
REMARK    8  A    between atoms: C_17  and  C_18
REMARK                            x       y       z     vdW  Elec       q    Type
REMARK                         _______ _______ _______ _____ _____    ______ ____
ROOT
ATOM      1  N   UNL     1       7.783   9.615  17.712  0.00  0.00    +0.000 N 
ATOM      2  H   UNL     1       7.189  10.446  17.753  0.00  0.00    +0.000 HD
ENDROOT
BRANCH   1   3
ATOM      3  N   UNL     1       7.052   8.498  17.453  0.00  0.00    +0.000 NA
ATOM      4  C   UNL     1       7.690   7.394  17.228  0.00  0.00    +0.000 C 
BRANCH   4   5
ATOM      5  C   UNL     1       7.028   6.159  16.913  0.00  0.00    +0.000 A 
ATOM      6  C   UNL     1       7.454   5.092  16.157  0.00  0.00    +0.000 A 
ATOM      7  C   UNL     1       6.416   4.132  16.195  0.00  0.00    +0.000 A 
ATOM      8  C   UNL     1       5.434   4.637  17.024  0.00  0.00    +0.000 A 
ATOM      9  O   UNL     1       5.795   5.893  17.434  0.00  0.00    +0.000 OA
BRANCH   8  10
ATOM     10  C   UNL     1       4.152   4.155  17.540  0.00  0.00    +0.000 A 
ATOM     11  C   UNL     1       3.931   2.762  17.591  0.00  0.00    +0.000 A 
ATOM     12  C   UNL     1       2.725   2.233  18.057  0.00  0.00    +0.000 A 
ATOM     13  C   UNL     1       1.718   3.090  18.483  0.00  0.00    +0.000 A 
ATOM     14 CL   UNL     1       0.226   2.445  19.047  0.00  0.00    +0.000 Cl
ATOM     15  C   UNL     1       1.904   4.467  18.445  0.00  0.00    +0.000 A 
ATOM     16  C   UNL     1       3.112   4.999  17.972  0.00  0.00    +0.000 A 
ATOM     17 CL   UNL     1       3.205   6.728  17.916  0.00  0.00    +0.000 Cl
ENDBRANCH   8  10
ENDBRANCH   4   5
ENDBRANCH   1   3
BRANCH   1  18
ATOM     18  C   UNL     1       8.906   9.692  18.640  0.00  0.00    +0.000 C 
BRANCH  18  19
ATOM     19  C   UNL     1       9.484  11.110  18.731  0.00  0.00    +0.000 C 
BRANCH  19  24
ATOM     20  C   UNL     1      12.239  12.910  18.553  0.00  0.00    +0.000 C 
ATOM     21  C   UNL     1      11.898  13.874  19.702  0.00  0.00    +0.000 C 
ATOM     22  N   UNL     1      10.623  13.605  20.375  0.00  0.00    +0.000 NA
ATOM     23  C   UNL     1      10.526  12.225  20.832  0.00  0.00    +0.000 C 
ATOM     24  C   UNL     1      10.685  11.197  19.700  0.00  0.00    +0.000 C 
ATOM     25  C   UNL     1      12.011  11.446  18.959  0.00  0.00    +0.000 C 
ATOM     26  H   UNL     1       9.857  13.833  19.737  0.00  0.00    +0.000 HD
BRANCH  20  28
ATOM     27  O   UNL     1      10.451  13.860  17.199  0.00  0.00    +0.000 OA
ATOM     28  C   UNL     1      11.537  13.300  17.262  0.00  0.00    +0.000 C 
BRANCH  28  29
ATOM     29  O   UNL     1      12.254  13.018  16.151  0.00  0.00    +0.000 OA
ATOM     30  H   UNL     1      13.177  12.750  16.312  0.00  0.00    +0.000 HD
ENDBRANCH  28  29
ENDBRANCH  20  28
ENDBRANCH  19  24
ENDBRANCH  18  19
ENDBRANCH   1  18
TORSDOF 8
ENDMDL
MODEL 6
REMARK VINA RESULT:      -7.7      1.162      1.420
REMARK  Name = 
REMARK  8 active torsions:
REMARK  status: ('A' for Active; 'I' for Inactive)
REMARK    1  A    between atoms: C_2  and  O_3
REMARK    2  A    between atoms: C_2  and  C_4
REMARK    3  A    between atoms: C_8  and  C_9
REMARK    4  A    between atoms: C_9  and  C_10
REMARK    5  A    between atoms: C_10  and  N_11
REMARK    6  A    between atoms: N_11  and  N_12
REMARK    7  A    between atoms: C_13  and  C_14
REMARK    8  A    between atoms: C_17  and  C_18
REMARK                            x       y       z     vdW  Elec       q    Type
REMARK                         _______ _______ _______ _____ _____    ______ ____
ROOT
ATOM      1  N   UNL     1       8.530   9.733  17.862  0.00  0.00    +0.000 N 
ATOM      2  H   UNL     1       8.298  10.626  17.421  0.00  0.00    +0.000 HD
ENDROOT
BRANCH   1   3
ATOM      3  N   UNL     1       7.600   8.783  17.573  0.00  0.00    +0.000 NA
ATOM      4  C   UNL     1       7.877   7.554  17.868  0.00  0.00    +0.000 C 
BRANCH   4   5
ATOM      5  C   UNL     1       6.987   6.462  17.583  0.00  0.00    +0.000 A 
ATOM      6  C   UNL     1       6.954   5.602  16.510  0.00  0.00    +0.000 A 
ATOM      7  C   UNL     1       5.889   4.703  16.749  0.00  0.00    +0.000 A 
ATOM      8  C   UNL     1       5.363   5.023  17.985  0.00  0.00    +0.000 A 
ATOM      9  O   UNL     1       6.015   6.122  18.478  0.00  0.00    +0.000 OA
BRANCH   8  10
ATOM     10  C   UNL     1       4.316   4.477  18.848  0.00  0.00    +0.000 A 
ATOM     11  C   UNL     1       4.525   3.214  19.441  0.00  0.00    +0.000 A 
ATOM     12  C   UNL     1       3.561   2.626  20.263  0.00  0.00    +0.000 A 
ATOM     13  C   UNL     1       2.368   3.294  20.508  0.00  0.00    +0.000 A 
ATOM     14 CL   UNL     1       1.172   2.570  21.510  0.00  0.00    +0.000 Cl
ATOM     15  C   UNL     1       2.130   4.539  19.939  0.00  0.00    +0.000 A 
ATOM     16  C   UNL     1       3.095   5.128  19.109  0.00  0.00    +0.000 A 
ATOM     17 CL   UNL     1       2.662   6.653  18.411  0.00  0.00    +0.000 Cl
ENDBRANCH   8  10
ENDBRANCH   4   5
ENDBRANCH   1   3
BRANCH   1  18
ATOM     18  C   UNL     1       9.184   9.907  19.155  0.00  0.00    +0.000 C 
BRANCH  18  19
ATOM     19  C   UNL     1      10.102  11.137  19.175  0.00  0.00    +0.000 C 
BRANCH  19  24
ATOM     20  C   UNL     1       9.500  14.329  18.621  0.00  0.00    +0.000 C 
ATOM     21  C   UNL     1      10.931  14.712  18.206  0.00  0.00    +0.000 C 
ATOM     22  N   UNL     1      11.887  13.600  18.188  0.00  0.00    +0.000 NA
ATOM     23  C   UNL     1      11.412  12.483  17.382  0.00  0.00    +0.000 C 
ATOM     24  C   UNL     1      10.056  11.929  17.849  0.00  0.00    +0.000 C 
ATOM     25  C   UNL     1       9.020  13.067  17.889  0.00  0.00    +0.000 C 
ATOM     26  H   UNL     1      12.068  13.303  19.150  0.00  0.00    +0.000 HD
BRANCH  20  28
ATOM     27  O   UNL     1       8.302  14.049  20.722  0.00  0.00    +0.000 OA
ATOM     28  C   UNL     1       9.354  14.250  20.132  0.00  0.00    +0.000 C 
BRANCH  28  29
ATOM     29  O   UNL     1      10.526  14.371  20.794  0.00  0.00    +0.000 OA
ATOM     30  H   UNL     1      11.262  13.845  20.433  0.00  0.00    +0.000 HD
ENDBRANCH  28  29
ENDBRANCH  20  28
ENDBRANCH  19  24
ENDBRANCH  18  19
ENDBRANCH   1  18
TORSDOF 8
ENDMDL
MODEL 7
REMARK VINA RESULT:      -7.7      7.451     11.197
REMARK  Name = 
REMARK  8 active torsions:
REMARK  status: ('A' for Active; 'I' for Inactive)
REMARK    1  A    between atoms: C_2  and  O_3
REMARK    2  A    between atoms: C_2  and  C_4
REMARK    3  A    between atoms: C_8  and  C_9
REMARK    4  A    between atoms: C_9  and  C_10
REMARK    5  A    between atoms: C_10  and  N_11
REMARK    6  A    between atoms: N_11  and  N_12
REMARK    7  A    between atoms: C_13  and  C_14
REMARK    8  A    between atoms: C_17  and  C_18
REMARK                            x       y       z     vdW  Elec       q    Type
REMARK                         _______ _______ _______ _____ _____    ______ ____
ROOT
ATOM      1  N   UNL     1       1.913   7.040  20.946  0.00  0.00    +0.000 N 
ATOM      2  H   UNL     1       1.534   6.455  21.695  0.00  0.00    +0.000 HD
ENDROOT
BRANCH   1   3
ATOM      3  N   UNL     1       1.299   8.252  20.907  0.00  0.00    +0.000 NA
ATOM      4  C   UNL     1       0.900   8.766  22.025  0.00  0.00    +0.000 C 
BRANCH   4   5
ATOM      5  C   UNL     1       0.212  10.025  22.106  0.00  0.00    +0.000 A 
ATOM      6  C   UNL     1      -0.762  10.449  22.980  0.00  0.00    +0.000 A 
ATOM      7  C   UNL     1      -1.068  11.783  22.623  0.00  0.00    +0.000 A 
ATOM      8  C   UNL     1      -0.221  12.125  21.587  0.00  0.00    +0.000 A 
ATOM      9  O   UNL     1       0.538  11.036  21.250  0.00  0.00    +0.000 OA
BRANCH   8  10
ATOM     10  C   UNL     1       0.038  13.335  20.805  0.00  0.00    +0.000 A 
ATOM     11  C   UNL     1       0.742  14.393  21.419  0.00  0.00    +0.000 A 
ATOM     12  C   UNL     1       1.009  15.582  20.736  0.00  0.00    +0.000 A 
ATOM     13  C   UNL     1       0.578  15.733  19.424  0.00  0.00    +0.000 A 
ATOM     14 CL   UNL     1       0.894  17.200  18.583  0.00  0.00    +0.000 Cl
ATOM     15  C   UNL     1      -0.119  14.711  18.792  0.00  0.00    +0.000 A 
ATOM     16  C   UNL     1      -0.393  13.518  19.478  0.00  0.00    +0.000 A 
ATOM     17 CL   UNL     1      -1.319  12.341  18.607  0.00  0.00    +0.000 Cl
ENDBRANCH   8  10
ENDBRANCH   4   5
ENDBRANCH   1   3
BRANCH   1  18
ATOM     18  C   UNL     1       2.311   6.257  19.780  0.00  0.00    +0.000 C 
BRANCH  18  19
ATOM     19  C   UNL     1       1.893   4.786  19.903  0.00  0.00    +0.000 C 
BRANCH  19  24
ATOM     20  C   UNL     1       3.869   3.213  17.785  0.00  0.00    +0.000 C 
ATOM     21  C   UNL     1       3.281   1.808  18.001  0.00  0.00    +0.000 C 
ATOM     22  N   UNL     1       2.159   1.747  18.943  0.00  0.00    +0.000 NA
ATOM     23  C   UNL     1       1.101   2.687  18.596  0.00  0.00    +0.000 C 
ATOM     24  C   UNL     1       1.580   4.145  18.531  0.00  0.00    +0.000 C 
ATOM     25  C   UNL     1       2.765   4.256  17.556  0.00  0.00    +0.000 C 
ATOM     26  H   UNL     1       2.509   1.925  19.888  0.00  0.00    +0.000 HD
BRANCH  20  28
ATOM     27  O   UNL     1       5.374   4.687  19.007  0.00  0.00    +0.000 OA
ATOM     28  C   UNL     1       4.845   3.591  18.888  0.00  0.00    +0.000 C 
BRANCH  28  29
ATOM     29  O   UNL     1       5.050   2.604  19.788  0.00  0.00    +0.000 OA
ATOM     30  H   UNL     1       5.338   2.901  20.671  0.00  0.00    +0.000 HD
ENDBRANCH  28  29
ENDBRANCH  20  28
ENDBRANCH  19  24
ENDBRANCH  18  19
ENDBRANCH   1  18
TORSDOF 8
ENDMDL
MODEL 8
REMARK VINA RESULT:      -7.7      1.458      1.802
REMARK  Name = 
REMARK  8 active torsions:
REMARK  status: ('A' for Active; 'I' for Inactive)
REMARK    1  A    between atoms: C_2  and  O_3
REMARK    2  A    between atoms: C_2  and  C_4
REMARK    3  A    between atoms: C_8  and  C_9
REMARK    4  A    between atoms: C_9  and  C_10
REMARK    5  A    between atoms: C_10  and  N_11
REMARK    6  A    between atoms: N_11  and  N_12
REMARK    7  A    between atoms: C_13  and  C_14
REMARK    8  A    between atoms: C_17  and  C_18
REMARK                            x       y       z     vdW  Elec       q    Type
REMARK                         _______ _______ _______ _____ _____    ______ ____
ROOT
ATOM      1  N   UNL     1       8.789   8.343  18.571  0.00  0.00    +0.000 N 
ATOM      2  H   UNL     1       9.631   7.960  18.135  0.00  0.00    +0.000 HD
ENDROOT
BRANCH   1   3
ATOM      3  N   UNL     1       7.755   7.461  18.505  0.00  0.00    +0.000 NA
ATOM      4  C   UNL     1       7.363   7.073  17.334  0.00  0.00    +0.000 C 
BRANCH   4   5
ATOM      5  C   UNL     1       6.262   6.171  17.138  0.00  0.00    +0.000 A 
ATOM      6  C   UNL     1       5.808   5.562  15.991  0.00  0.00    +0.000 A 
ATOM      7  C   UNL     1       4.710   4.757  16.372  0.00  0.00    +0.000 A 
ATOM      8  C   UNL     1       4.587   4.868  17.743  0.00  0.00    +0.000 A 
ATOM      9  O   UNL     1       5.517   5.761  18.205  0.00  0.00    +0.000 OA
BRANCH   8  10
ATOM     10  C   UNL     1       3.728   4.273  18.767  0.00  0.00    +0.000 A 
ATOM     11  C   UNL     1       3.283   5.090  19.827  0.00  0.00    +0.000 A 
ATOM     12  C   UNL     1       2.474   4.584  20.847  0.00  0.00    +0.000 A 
ATOM     13  C   UNL     1       2.094   3.247  20.823  0.00  0.00    +0.000 A 
ATOM     14 CL   UNL     1       1.107   2.615  22.082  0.00  0.00    +0.000 Cl
ATOM     15  C   UNL     1       2.516   2.415  19.793  0.00  0.00    +0.000 A 
ATOM     16  C   UNL     1       3.333   2.921  18.772  0.00  0.00    +0.000 A 
ATOM     17 CL   UNL     1       3.844   1.777  17.576  0.00  0.00    +0.000 Cl
ENDBRANCH   8  10
ENDBRANCH   4   5
ENDBRANCH   1   3
BRANCH   1  18
ATOM     18  C   UNL     1       8.680   9.787  18.391  0.00  0.00    +0.000 C 
BRANCH  18  19
ATOM     19  C   UNL     1       9.398  10.562  19.504  0.00  0.00    +0.000 C 
BRANCH  19  24
ATOM     20  C   UNL     1      10.011  13.342  17.844  0.00  0.00    +0.000 C 
ATOM     21  C   UNL     1      10.666  14.105  19.008  0.00  0.00    +0.000 C 
ATOM     22  N   UNL     1      10.778  13.346  20.258  0.00  0.00    +0.000 NA
ATOM     23  C   UNL     1      11.441  12.064  20.062  0.00  0.00    +0.000 C 
ATOM     24  C   UNL     1      10.739  11.168  19.029  0.00  0.00    +0.000 C 
ATOM     25  C   UNL     1      10.593  11.928  17.699  0.00  0.00    +0.000 C 
ATOM     26  H   UNL     1       9.843  13.216  20.652  0.00  0.00    +0.000 HD
BRANCH  20  28
ATOM     27  O   UNL     1       7.735  12.915  17.090  0.00  0.00    +0.000 OA
ATOM     28  C   UNL     1       8.494  13.370  17.934  0.00  0.00    +0.000 C 
BRANCH  28  29
ATOM     29  O   UNL     1       8.032  13.910  19.084  0.00  0.00    +0.000 OA
ATOM     30  H   UNL     1       8.123  13.345  19.873  0.00  0.00    +0.000 HD
ENDBRANCH  28  29
ENDBRANCH  20  28
ENDBRANCH  19  24
ENDBRANCH  18  19
ENDBRANCH   1  18
TORSDOF 8
ENDMDL
MODEL 9
REMARK VINA RESULT:      -7.7      1.840      2.122
REMARK  Name = 
REMARK  8 active torsions:
REMARK  status: ('A' for Active; 'I' for Inactive)
REMARK    1  A    between atoms: C_2  and  O_3
REMARK    2  A    between atoms: C_2  and  C_4
REMARK    3  A    between atoms: C_8  and  C_9
REMARK    4  A    between atoms: C_9  and  C_10
REMARK    5  A    between atoms: C_10  and  N_11
REMARK    6  A    between atoms: N_11  and  N_12
REMARK    7  A    between atoms: C_13  and  C_14
REMARK    8  A    between atoms: C_17  and  C_18
REMARK                            x       y       z     vdW  Elec       q    Type
REMARK                         _______ _______ _______ _____ _____    ______ ____
ROOT
ATOM      1  N   UNL     1       8.522   9.531  18.482  0.00  0.00    +0.000 N 
ATOM      2  H   UNL     1       8.949   9.041  19.272  0.00  0.00    +0.000 HD
ENDROOT
BRANCH   1   3
ATOM      3  N   UNL     1       7.638   8.732  17.825  0.00  0.00    +0.000 NA
ATOM      4  C   UNL     1       7.860   7.457  17.822  0.00  0.00    +0.000 C 
BRANCH   4   5
ATOM      5  C   UNL     1       7.015   6.519  17.137  0.00  0.00    +0.000 A 
ATOM      6  C   UNL     1       7.171   5.914  15.912  0.00  0.00    +0.000 A 
ATOM      7  C   UNL     1       6.054   5.063  15.738  0.00  0.00    +0.000 A 
ATOM      8  C   UNL     1       5.304   5.146  16.894  0.00  0.00    +0.000 A 
ATOM      9  O   UNL     1       5.875   6.064  17.735  0.00  0.00    +0.000 OA
BRANCH   8  10
ATOM     10  C   UNL     1       4.091   4.502  17.401  0.00  0.00    +0.000 A 
ATOM     11  C   UNL     1       4.025   3.093  17.391  0.00  0.00    +0.000 A 
ATOM     12  C   UNL     1       2.892   2.414  17.846  0.00  0.00    +0.000 A 
ATOM     13  C   UNL     1       1.803   3.135  18.320  0.00  0.00    +0.000 A 
ATOM     14 CL   UNL     1       0.401   2.305  18.870  0.00  0.00    +0.000 Cl
ATOM     15  C   UNL     1       1.836   4.524  18.342  0.00  0.00    +0.000 A 
ATOM     16  C   UNL     1       2.971   5.207  17.882  0.00  0.00    +0.000 A 
ATOM     17 CL   UNL     1       2.873   6.937  17.903  0.00  0.00    +0.000 Cl
ENDBRANCH   8  10
ENDBRANCH   4   5
ENDBRANCH   1   3
BRANCH   1  18
ATOM     18  C   UNL     1       9.443  10.469  17.849  0.00  0.00    +0.000 C 
BRANCH  18  19
ATOM     19  C   UNL     1       9.019  11.928  18.064  0.00  0.00    +0.000 C 
BRANCH  19  24
ATOM     20  C   UNL     1      11.041  13.778  19.895  0.00  0.00    +0.000 C 
ATOM     21  C   UNL     1      12.333  13.009  19.567  0.00  0.00    +0.000 C 
ATOM     22  N   UNL     1      12.167  11.894  18.629  0.00  0.00    +0.000 NA
ATOM     23  C   UNL     1      11.501  12.306  17.401  0.00  0.00    +0.000 C 
ATOM     24  C   UNL     1      10.117  12.930  17.638  0.00  0.00    +0.000 C 
ATOM     25  C   UNL     1      10.242  14.105  18.624  0.00  0.00    +0.000 C 
ATOM     26  H   UNL     1      11.645  11.146  19.093  0.00  0.00    +0.000 HD
BRANCH  20  28
ATOM     27  O   UNL     1       9.307  13.583  21.594  0.00  0.00    +0.000 OA
ATOM     28  C   UNL     1      10.223  13.072  20.964  0.00  0.00    +0.000 C 
BRANCH  28  29
ATOM     29  O   UNL     1      10.563  11.775  21.136  0.00  0.00    +0.000 OA
ATOM     30  H   UNL     1      11.269  11.451  20.546  0.00  0.00    +0.000 HD
ENDBRANCH  28  29
ENDBRANCH  20  28
ENDBRANCH  19  24
ENDBRANCH  18  19
ENDBRANCH   1  18
TORSDOF 8
ENDMDL
