MODEL 1
REMARK VINA RESULT:      -8.1      0.000      0.000
REMARK  Name = 
REMARK  10 active torsions:
REMARK  status: ('A' for Active; 'I' for Inactive)
REMARK    1  A    between atoms: C_1  and  C_2
REMARK    2  A    between atoms: C_2  and  C_3
REMARK    3  A    between atoms: C_2  and  C_4
REMARK    4  A    between atoms: C_6  and  N_7
REMARK    5  A    between atoms: C_8  and  C_10
REMARK    6  A    between atoms: C_13  and  C_14
REMARK    7  A    between atoms: C_14  and  O_16
REMARK    8  A    between atoms: C_20  and  C_21
REMARK    9  A    between atoms: C_21  and  C_22
REMARK   10  A    between atoms: C_21  and  C_23
REMARK                            x       y       z     vdW  Elec       q    Type
REMARK                         _______ _______ _______ _____ _____    ______ ____
ROOT
ATOM      1  N   UNL     1       2.124   7.350  19.078  0.00  0.00    +0.000 N 
ATOM      2  C   UNL     1       1.783   8.622  18.648  0.00  0.00    +0.000 C 
ATOM      3  O   UNL     1       1.925   9.086  17.524  0.00  0.00    +0.000 OA
ATOM      4  H   UNL     1       1.757   7.042  19.968  0.00  0.00    +0.000 HD
ENDROOT
BRANCH   1   7
ATOM      5  C   UNL     1       4.733   5.696  16.966  0.00  0.00    +0.000 A 
ATOM      6  C   UNL     1       4.020   6.682  17.660  0.00  0.00    +0.000 A 
ATOM      7  C   UNL     1       2.844   6.385  18.342  0.00  0.00    +0.000 A 
ATOM      8  C   UNL     1       2.374   5.065  18.342  0.00  0.00    +0.000 A 
ATOM      9  C   UNL     1       3.053   4.051  17.643  0.00  0.00    +0.000 A 
ATOM     10  C   UNL     1       4.230   4.385  16.952  0.00  0.00    +0.000 A 
BRANCH   5  12
ATOM     11  C   UNL     1       7.061   6.649  17.269  0.00  0.00    +0.000 C 
ATOM     12  C   UNL     1       6.052   6.037  16.292  0.00  0.00    +0.000 C 
ATOM     13  C   UNL     1       6.653   4.797  15.617  0.00  0.00    +0.000 C 
ENDBRANCH   5  12
BRANCH   9  14
ATOM     14  C   UNL     1       2.523   2.625  17.684  0.00  0.00    +0.000 C 
ATOM     15  C   UNL     1       3.564   1.628  18.199  0.00  0.00    +0.000 C 
ATOM     16  C   UNL     1       1.234   2.531  18.505  0.00  0.00    +0.000 C 
ENDBRANCH   9  14
ENDBRANCH   1   7
BRANCH   2  17
ATOM     17  C   UNL     1       1.118   9.476  19.669  0.00  0.00    +0.000 A 
ATOM     18  C   UNL     1       0.561  10.713  19.334  0.00  0.00    +0.000 A 
ATOM     19  C   UNL     1      -0.056  11.484  20.323  0.00  0.00    +0.000 A 
ATOM     20  C   UNL     1      -0.130  11.020  21.646  0.00  0.00    +0.000 A 
ATOM     21  C   UNL     1       0.383   9.757  21.968  0.00  0.00    +0.000 A 
ATOM     22  C   UNL     1       1.007   8.991  20.981  0.00  0.00    +0.000 A 
BRANCH  20  23
ATOM     23  C   UNL     1      -0.812  11.888  22.641  0.00  0.00    +0.000 C 
ATOM     24  O   UNL     1      -0.337  12.943  23.024  0.00  0.00    +0.000 OA
BRANCH  23  25
ATOM     25  O   UNL     1      -1.969  11.385  23.120  0.00  0.00    +0.000 OA
ATOM     26  H   UNL     1      -2.772  11.875  22.885  0.00  0.00    +0.000 HD
ENDBRANCH  23  25
ENDBRANCH  20  23
ENDBRANCH   2  17
TORSDOF 6
ENDMDL
MODEL 2
REMARK VINA RESULT:      -7.9      0.188      1.194
REMARK  Name = 
REMARK  10 active torsions:
REMARK  status: ('A' for Active; 'I' for Inactive)
REMARK    1  A    between atoms: C_1  and  C_2
REMARK    2  A    between atoms: C_2  and  C_3
REMARK    3  A    between atoms: C_2  and  C_4
REMARK    4  A    between atoms: C_6  and  N_7
REMARK    5  A    between atoms: C_8  and  C_10
REMARK    6  A    between atoms: C_13  and  C_14
REMARK    7  A    between atoms: C_14  and  O_16
REMARK    8  A    between atoms: C_20  and  C_21
REMARK    9  A    between atoms: C_21  and  C_22
REMARK   10  A    between atoms: C_21  and  C_23
REMARK                            x       y       z     vdW  Elec       q    Type
REMARK                         _______ _______ _______ _____ _____    ______ ____
ROOT
ATOM      1  N   UNL     1       2.127   7.425  19.101  0.00  0.00    +0.000 N 
ATOM      2  C   UNL     1       1.704   8.664  18.650  0.00  0.00    +0.000 C 
ATOM      3  O   UNL     1       1.765   9.097  17.506  0.00  0.00    +0.000 OA
ATOM      4  H   UNL     1       1.821   7.130  20.018  0.00  0.00    +0.000 HD
ENDROOT
BRANCH   1   7
ATOM      5  C   UNL     1       4.763   5.802  16.997  0.00  0.00    +0.000 A 
ATOM      6  C   UNL     1       4.042   6.778  17.697  0.00  0.00    +0.000 A 
ATOM      7  C   UNL     1       2.856   6.471  18.359  0.00  0.00    +0.000 A 
ATOM      8  C   UNL     1       2.384   5.152  18.331  0.00  0.00    +0.000 A 
ATOM      9  C   UNL     1       3.071   4.148  17.624  0.00  0.00    +0.000 A 
ATOM     10  C   UNL     1       4.258   4.492  16.954  0.00  0.00    +0.000 A 
BRANCH   5  12
ATOM     11  C   UNL     1       7.179   6.463  17.380  0.00  0.00    +0.000 C 
ATOM     12  C   UNL     1       6.091   6.152  16.346  0.00  0.00    +0.000 C 
ATOM     13  C   UNL     1       6.553   5.024  15.415  0.00  0.00    +0.000 C 
ENDBRANCH   5  12
BRANCH   9  14
ATOM     14  C   UNL     1       2.539   2.723  17.634  0.00  0.00    +0.000 C 
ATOM     15  C   UNL     1       3.598   1.705  18.065  0.00  0.00    +0.000 C 
ATOM     16  C   UNL     1       1.287   2.600  18.508  0.00  0.00    +0.000 C 
ENDBRANCH   9  14
ENDBRANCH   1   7
BRANCH   2  17
ATOM     17  C   UNL     1       1.050   9.519  19.677  0.00  0.00    +0.000 A 
ATOM     18  C   UNL     1       0.796   9.043  20.967  0.00  0.00    +0.000 A 
ATOM     19  C   UNL     1       0.181   9.879  21.903  0.00  0.00    +0.000 A 
ATOM     20  C   UNL     1      -0.173  11.193  21.563  0.00  0.00    +0.000 A 
ATOM     21  C   UNL     1       0.129  11.684  20.285  0.00  0.00    +0.000 A 
ATOM     22  C   UNL     1       0.736  10.846  19.347  0.00  0.00    +0.000 A 
BRANCH  20  23
ATOM     23  C   UNL     1      -0.811  12.027  22.613  0.00  0.00    +0.000 C 
ATOM     24  O   UNL     1      -1.884  11.739  23.117  0.00  0.00    +0.000 OA
BRANCH  23  25
ATOM     25  O   UNL     1      -0.133  13.152  22.922  0.00  0.00    +0.000 OA
ATOM     26  H   UNL     1       0.694  13.294  22.436  0.00  0.00    +0.000 HD
ENDBRANCH  23  25
ENDBRANCH  20  23
ENDBRANCH   2  17
TORSDOF 6
ENDMDL
MODEL 3
REMARK VINA RESULT:      -7.9      1.548      1.821
REMARK  Name = 
REMARK  10 active torsions:
REMARK  status: ('A' for Active; 'I' for Inactive)
REMARK    1  A    between atoms: C_1  and  C_2
REMARK    2  A    between atoms: C_2  and  C_3
REMARK    3  A    between atoms: C_2  and  C_4
REMARK    4  A    between atoms: C_6  and  N_7
REMARK    5  A    between atoms: C_8  and  C_10
REMARK    6  A    between atoms: C_13  and  C_14
REMARK    7  A    between atoms: C_14  and  O_16
REMARK    8  A    between atoms: C_20  and  C_21
REMARK    9  A    between atoms: C_21  and  C_22
REMARK   10  A    between atoms: C_21  and  C_23
REMARK                            x       y       z     vdW  Elec       q    Type
REMARK                         _______ _______ _______ _____ _____    ______ ____
ROOT
ATOM      1  N   UNL     1       2.293   7.758  18.175  0.00  0.00    +0.000 N 
ATOM      2  C   UNL     1       1.833   8.079  19.441  0.00  0.00    +0.000 C 
ATOM      3  O   UNL     1       2.132   7.537  20.497  0.00  0.00    +0.000 OA
ATOM      4  H   UNL     1       2.124   8.422  17.432  0.00  0.00    +0.000 HD
ENDROOT
BRANCH   1   7
ATOM      5  C   UNL     1       5.196   5.618  17.174  0.00  0.00    +0.000 A 
ATOM      6  C   UNL     1       4.426   6.749  17.476  0.00  0.00    +0.000 A 
ATOM      7  C   UNL     1       3.084   6.640  17.832  0.00  0.00    +0.000 A 
ATOM      8  C   UNL     1       2.500   5.369  17.901  0.00  0.00    +0.000 A 
ATOM      9  C   UNL     1       3.237   4.212  17.589  0.00  0.00    +0.000 A 
ATOM     10  C   UNL     1       4.585   4.354  17.219  0.00  0.00    +0.000 A 
BRANCH   5  12
ATOM     11  C   UNL     1       7.271   7.046  17.449  0.00  0.00    +0.000 C 
ATOM     12  C   UNL     1       6.676   5.763  16.859  0.00  0.00    +0.000 C 
ATOM     13  C   UNL     1       7.458   4.539  17.354  0.00  0.00    +0.000 C 
ENDBRANCH   5  12
BRANCH   9  14
ATOM     14  C   UNL     1       2.573   2.847  17.696  0.00  0.00    +0.000 C 
ATOM     15  C   UNL     1       3.533   1.767  18.204  0.00  0.00    +0.000 C 
ATOM     16  C   UNL     1       1.315   2.903  18.567  0.00  0.00    +0.000 C 
ENDBRANCH   9  14
ENDBRANCH   1   7
BRANCH   2  17
ATOM     17  C   UNL     1       0.924   9.255  19.502  0.00  0.00    +0.000 A 
ATOM     18  C   UNL     1       0.472   9.887  18.340  0.00  0.00    +0.000 A 
ATOM     19  C   UNL     1      -0.382  10.989  18.440  0.00  0.00    +0.000 A 
ATOM     20  C   UNL     1      -0.798  11.457  19.696  0.00  0.00    +0.000 A 
ATOM     21  C   UNL     1      -0.386  10.790  20.857  0.00  0.00    +0.000 A 
ATOM     22  C   UNL     1       0.475   9.694  20.756  0.00  0.00    +0.000 A 
BRANCH  20  23
ATOM     23  C   UNL     1      -1.717  12.624  19.724  0.00  0.00    +0.000 C 
ATOM     24  O   UNL     1      -2.817  12.580  20.250  0.00  0.00    +0.000 OA
BRANCH  23  25
ATOM     25  O   UNL     1      -1.255  13.714  19.076  0.00  0.00    +0.000 OA
ATOM     26  H   UNL     1      -0.343  13.659  18.753  0.00  0.00    +0.000 HD
ENDBRANCH  23  25
ENDBRANCH  20  23
ENDBRANCH   2  17
TORSDOF 6
ENDMDL
MODEL 4
REMARK VINA RESULT:      -7.8      2.817      8.512
REMARK  Name = 
REMARK  10 active torsions:
REMARK  status: ('A' for Active; 'I' for Inactive)
REMARK    1  A    between atoms: C_1  and  C_2
REMARK    2  A    between atoms: C_2  and  C_3
REMARK    3  A    between atoms: C_2  and  C_4
REMARK    4  A    between atoms: C_6  and  N_7
REMARK    5  A    between atoms: C_8  and  C_10
REMARK    6  A    between atoms: C_13  and  C_14
REMARK    7  A    between atoms: C_14  and  O_16
REMARK    8  A    between atoms: C_20  and  C_21
REMARK    9  A    between atoms: C_21  and  C_22
REMARK   10  A    between atoms: C_21  and  C_23
REMARK                            x       y       z     vdW  Elec       q    Type
REMARK                         _______ _______ _______ _____ _____    ______ ____
ROOT
ATOM      1  N   UNL     1       2.051   8.361  18.355  0.00  0.00    +0.000 N 
ATOM      2  C   UNL     1       2.503   7.155  18.865  0.00  0.00    +0.000 C 
ATOM      3  O   UNL     1       2.003   6.500  19.770  0.00  0.00    +0.000 OA
ATOM      4  H   UNL     1       2.441   8.675  17.476  0.00  0.00    +0.000 HD
ENDROOT
BRANCH   1   7
ATOM      5  C   UNL     1      -0.091  10.320  20.718  0.00  0.00    +0.000 A 
ATOM      6  C   UNL     1       0.938   9.504  20.228  0.00  0.00    +0.000 A 
ATOM      7  C   UNL     1       1.009   9.153  18.882  0.00  0.00    +0.000 A 
ATOM      8  C   UNL     1       0.035   9.640  18.001  0.00  0.00    +0.000 A 
ATOM      9  C   UNL     1      -1.022  10.448  18.458  0.00  0.00    +0.000 A 
ATOM     10  C   UNL     1      -1.075  10.774  19.824  0.00  0.00    +0.000 A 
BRANCH   5  12
ATOM     11  C   UNL     1      -1.268  11.685  22.499  0.00  0.00    +0.000 C 
ATOM     12  C   UNL     1      -0.101  10.745  22.177  0.00  0.00    +0.000 C 
ATOM     13  C   UNL     1      -0.137   9.520  23.099  0.00  0.00    +0.000 C 
ENDBRANCH   5  12
BRANCH   9  14
ATOM     14  C   UNL     1      -2.048  10.975  17.467  0.00  0.00    +0.000 C 
ATOM     15  C   UNL     1      -2.468   9.919  16.441  0.00  0.00    +0.000 C 
ATOM     16  C   UNL     1      -3.275  11.548  18.183  0.00  0.00    +0.000 C 
ENDBRANCH   9  14
ENDBRANCH   1   7
BRANCH   2  17
ATOM     17  C   UNL     1       3.693   6.586  18.176  0.00  0.00    +0.000 A 
ATOM     18  C   UNL     1       4.513   7.376  17.365  0.00  0.00    +0.000 A 
ATOM     19  C   UNL     1       5.622   6.803  16.737  0.00  0.00    +0.000 A 
ATOM     20  C   UNL     1       5.925   5.446  16.923  0.00  0.00    +0.000 A 
ATOM     21  C   UNL     1       5.131   4.669  17.777  0.00  0.00    +0.000 A 
ATOM     22  C   UNL     1       4.018   5.240  18.397  0.00  0.00    +0.000 A 
BRANCH  20  23
ATOM     23  C   UNL     1       7.127   4.910  16.234  0.00  0.00    +0.000 C 
ATOM     24  O   UNL     1       7.352   5.115  15.053  0.00  0.00    +0.000 OA
BRANCH  23  25
ATOM     25  O   UNL     1       7.916   4.136  17.009  0.00  0.00    +0.000 OA
ATOM     26  H   UNL     1       8.847   4.085  16.746  0.00  0.00    +0.000 HD
ENDBRANCH  23  25
ENDBRANCH  20  23
ENDBRANCH   2  17
TORSDOF 6
ENDMDL
MODEL 5
REMARK VINA RESULT:      -7.8      1.119      1.265
REMARK  Name = 
REMARK  10 active torsions:
REMARK  status: ('A' for Active; 'I' for Inactive)
REMARK    1  A    between atoms: C_1  and  C_2
REMARK    2  A    between atoms: C_2  and  C_3
REMARK    3  A    between atoms: C_2  and  C_4
REMARK    4  A    between atoms: C_6  and  N_7
REMARK    5  A    between atoms: C_8  and  C_10
REMARK    6  A    between atoms: C_13  and  C_14
REMARK    7  A    between atoms: C_14  and  O_16
REMARK    8  A    between atoms: C_20  and  C_21
REMARK    9  A    between atoms: C_21  and  C_22
REMARK   10  A    between atoms: C_21  and  C_23
REMARK                            x       y       z     vdW  Elec       q    Type
REMARK                         _______ _______ _______ _____ _____    ______ ____
ROOT
ATOM      1  N   UNL     1       2.300   7.562  18.929  0.00  0.00    +0.000 N 
ATOM      2  C   UNL     1       1.743   7.464  20.193  0.00  0.00    +0.000 C 
ATOM      3  O   UNL     1       1.808   6.511  20.960  0.00  0.00    +0.000 OA
ATOM      4  H   UNL     1       2.341   8.478  18.504  0.00  0.00    +0.000 HD
ENDROOT
BRANCH   1   7
ATOM      5  C   UNL     1       4.720   5.653  16.807  0.00  0.00    +0.000 A 
ATOM      6  C   UNL     1       4.100   6.711  17.483  0.00  0.00    +0.000 A 
ATOM      7  C   UNL     1       2.927   6.522  18.210  0.00  0.00    +0.000 A 
ATOM      8  C   UNL     1       2.367   5.240  18.273  0.00  0.00    +0.000 A 
ATOM      9  C   UNL     1       2.952   4.155  17.594  0.00  0.00    +0.000 A 
ATOM     10  C   UNL     1       4.127   4.381  16.857  0.00  0.00    +0.000 A 
BRANCH   5  12
ATOM     11  C   UNL     1       7.181   6.208  17.047  0.00  0.00    +0.000 C 
ATOM     12  C   UNL     1       6.037   5.875  16.082  0.00  0.00    +0.000 C 
ATOM     13  C   UNL     1       6.402   4.652  15.231  0.00  0.00    +0.000 C 
ENDBRANCH   5  12
BRANCH   9  14
ATOM     14  C   UNL     1       2.326   2.774  17.705  0.00  0.00    +0.000 C 
ATOM     15  C   UNL     1       3.320   1.717  18.193  0.00  0.00    +0.000 C 
ATOM     16  C   UNL     1       1.080   2.793  18.595  0.00  0.00    +0.000 C 
ENDBRANCH   9  14
ENDBRANCH   1   7
BRANCH   2  17
ATOM     17  C   UNL     1       1.045   8.688  20.671  0.00  0.00    +0.000 A 
ATOM     18  C   UNL     1       0.707   9.723  19.795  0.00  0.00    +0.000 A 
ATOM     19  C   UNL     1       0.051  10.856  20.283  0.00  0.00    +0.000 A 
ATOM     20  C   UNL     1      -0.280  10.958  21.643  0.00  0.00    +0.000 A 
ATOM     21  C   UNL     1       0.014   9.896  22.510  0.00  0.00    +0.000 A 
ATOM     22  C   UNL     1       0.677   8.768  22.022  0.00  0.00    +0.000 A 
BRANCH  20  23
ATOM     23  C   UNL     1      -0.989  12.185  22.088  0.00  0.00    +0.000 C 
ATOM     24  O   UNL     1      -2.007  12.585  21.550  0.00  0.00    +0.000 OA
BRANCH  23  25
ATOM     25  O   UNL     1      -0.382  12.844  23.098  0.00  0.00    +0.000 OA
ATOM     26  H   UNL     1      -0.492  12.459  23.980  0.00  0.00    +0.000 HD
ENDBRANCH  23  25
ENDBRANCH  20  23
ENDBRANCH   2  17
TORSDOF 6
ENDMDL
MODEL 6
REMARK VINA RESULT:      -7.8      0.300      3.305
REMARK  Name = 
REMARK  10 active torsions:
REMARK  status: ('A' for Active; 'I' for Inactive)
REMARK    1  A    between atoms: C_1  and  C_2
REMARK    2  A    between atoms: C_2  and  C_3
REMARK    3  A    between atoms: C_2  and  C_4
REMARK    4  A    between atoms: C_6  and  N_7
REMARK    5  A    between atoms: C_8  and  C_10
REMARK    6  A    between atoms: C_13  and  C_14
REMARK    7  A    between atoms: C_14  and  O_16
REMARK    8  A    between atoms: C_20  and  C_21
REMARK    9  A    between atoms: C_21  and  C_22
REMARK   10  A    between atoms: C_21  and  C_23
REMARK                            x       y       z     vdW  Elec       q    Type
REMARK                         _______ _______ _______ _____ _____    ______ ____
ROOT
ATOM      1  N   UNL     1       1.942   7.227  19.319  0.00  0.00    +0.000 N 
ATOM      2  C   UNL     1       1.635   8.505  18.881  0.00  0.00    +0.000 C 
ATOM      3  O   UNL     1       1.800   8.962  17.758  0.00  0.00    +0.000 OA
ATOM      4  H   UNL     1       1.558   6.930  20.206  0.00  0.00    +0.000 HD
ENDROOT
BRANCH   1   7
ATOM      5  C   UNL     1       2.966   3.958  17.812  0.00  0.00    +0.000 A 
ATOM      6  C   UNL     1       2.264   4.907  18.567  0.00  0.00    +0.000 A 
ATOM      7  C   UNL     1       2.651   6.244  18.595  0.00  0.00    +0.000 A 
ATOM      8  C   UNL     1       3.759   6.647  17.840  0.00  0.00    +0.000 A 
ATOM      9  C   UNL     1       4.499   5.721  17.082  0.00  0.00    +0.000 A 
ATOM     10  C   UNL     1       4.093   4.375  17.085  0.00  0.00    +0.000 A 
BRANCH   5  12
ATOM     11  C   UNL     1       3.526   1.527  18.257  0.00  0.00    +0.000 C 
ATOM     12  C   UNL     1       2.477   2.521  17.743  0.00  0.00    +0.000 C 
ATOM     13  C   UNL     1       1.166   2.356  18.521  0.00  0.00    +0.000 C 
ENDBRANCH   5  12
BRANCH   9  14
ATOM     14  C   UNL     1       5.684   6.200  16.258  0.00  0.00    +0.000 C 
ATOM     15  C   UNL     1       6.903   6.532  17.123  0.00  0.00    +0.000 C 
ATOM     16  C   UNL     1       6.055   5.188  15.170  0.00  0.00    +0.000 C 
ENDBRANCH   9  14
ENDBRANCH   1   7
BRANCH   2  17
ATOM     17  C   UNL     1       0.975   9.375  19.892  0.00  0.00    +0.000 A 
ATOM     18  C   UNL     1       0.798   8.954  21.212  0.00  0.00    +0.000 A 
ATOM     19  C   UNL     1       0.175   9.803  22.131  0.00  0.00    +0.000 A 
ATOM     20  C   UNL     1      -0.264  11.077  21.741  0.00  0.00    +0.000 A 
ATOM     21  C   UNL     1      -0.039  11.517  20.430  0.00  0.00    +0.000 A 
ATOM     22  C   UNL     1       0.576  10.665  19.510  0.00  0.00    +0.000 A 
BRANCH  20  23
ATOM     23  C   UNL     1      -0.906  11.929  22.775  0.00  0.00    +0.000 C 
ATOM     24  O   UNL     1      -0.396  12.959  23.184  0.00  0.00    +0.000 OA
BRANCH  23  25
ATOM     25  O   UNL     1      -2.068  11.442  23.257  0.00  0.00    +0.000 OA
ATOM     26  H   UNL     1      -2.567  10.866  22.656  0.00  0.00    +0.000 HD
ENDBRANCH  23  25
ENDBRANCH  20  23
ENDBRANCH   2  17
TORSDOF 6
ENDMDL
MODEL 7
REMARK VINA RESULT:      -7.8      0.515      3.245
REMARK  Name = 
REMARK  10 active torsions:
REMARK  status: ('A' for Active; 'I' for Inactive)
REMARK    1  A    between atoms: C_1  and  C_2
REMARK    2  A    between atoms: C_2  and  C_3
REMARK    3  A    between atoms: C_2  and  C_4
REMARK    4  A    between atoms: C_6  and  N_7
REMARK    5  A    between atoms: C_8  and  C_10
REMARK    6  A    between atoms: C_13  and  C_14
REMARK    7  A    between atoms: C_14  and  O_16
REMARK    8  A    between atoms: C_20  and  C_21
REMARK    9  A    between atoms: C_21  and  C_22
REMARK   10  A    between atoms: C_21  and  C_23
REMARK                            x       y       z     vdW  Elec       q    Type
REMARK                         _______ _______ _______ _____ _____    ______ ____
ROOT
ATOM      1  N   UNL     1       2.207   7.314  19.075  0.00  0.00    +0.000 N 
ATOM      2  C   UNL     1       1.881   8.532  18.500  0.00  0.00    +0.000 C 
ATOM      3  O   UNL     1       2.004   8.851  17.324  0.00  0.00    +0.000 OA
ATOM      4  H   UNL     1       1.857   7.126  20.005  0.00  0.00    +0.000 HD
ENDROOT
BRANCH   1   7
ATOM      5  C   UNL     1       3.090   3.910  17.795  0.00  0.00    +0.000 A 
ATOM      6  C   UNL     1       2.410   4.942  18.456  0.00  0.00    +0.000 A 
ATOM      7  C   UNL     1       2.888   6.250  18.447  0.00  0.00    +0.000 A 
ATOM      8  C   UNL     1       4.069   6.537  17.750  0.00  0.00    +0.000 A 
ATOM      9  C   UNL     1       4.788   5.525  17.088  0.00  0.00    +0.000 A 
ATOM     10  C   UNL     1       4.288   4.212  17.127  0.00  0.00    +0.000 A 
BRANCH   5  12
ATOM     11  C   UNL     1       3.495   1.455  18.273  0.00  0.00    +0.000 C 
ATOM     12  C   UNL     1       2.505   2.508  17.761  0.00  0.00    +0.000 C 
ATOM     13  C   UNL     1       1.201   2.444  18.565  0.00  0.00    +0.000 C 
ENDBRANCH   5  12
BRANCH   9  14
ATOM     14  C   UNL     1       6.054   5.880  16.324  0.00  0.00    +0.000 C 
ATOM     15  C   UNL     1       7.109   6.543  17.214  0.00  0.00    +0.000 C 
ATOM     16  C   UNL     1       6.640   4.656  15.613  0.00  0.00    +0.000 C 
ENDBRANCH   9  14
ENDBRANCH   1   7
BRANCH   2  17
ATOM     17  C   UNL     1       1.260   9.519  19.423  0.00  0.00    +0.000 A 
ATOM     18  C   UNL     1       1.006  10.833  19.022  0.00  0.00    +0.000 A 
ATOM     19  C   UNL     1       0.420  11.729  19.920  0.00  0.00    +0.000 A 
ATOM     20  C   UNL     1       0.075  11.317  21.216  0.00  0.00    +0.000 A 
ATOM     21  C   UNL     1       0.283   9.985  21.599  0.00  0.00    +0.000 A 
ATOM     22  C   UNL     1       0.877   9.093  20.704  0.00  0.00    +0.000 A 
BRANCH  20  23
ATOM     23  C   UNL     1      -0.557  12.321  22.111  0.00  0.00    +0.000 C 
ATOM     24  O   UNL     1      -1.011  12.030  23.204  0.00  0.00    +0.000 OA
BRANCH  23  25
ATOM     25  O   UNL     1      -0.632  13.564  21.591  0.00  0.00    +0.000 OA
ATOM     26  H   UNL     1      -1.481  14.018  21.702  0.00  0.00    +0.000 HD
ENDBRANCH  23  25
ENDBRANCH  20  23
ENDBRANCH   2  17
TORSDOF 6
ENDMDL
MODEL 8
REMARK VINA RESULT:      -7.7      1.209      1.718
REMARK  Name = 
REMARK  10 active torsions:
REMARK  status: ('A' for Active; 'I' for Inactive)
REMARK    1  A    between atoms: C_1  and  C_2
REMARK    2  A    between atoms: C_2  and  C_3
REMARK    3  A    between atoms: C_2  and  C_4
REMARK    4  A    between atoms: C_6  and  N_7
REMARK    5  A    between atoms: C_8  and  C_10
REMARK    6  A    between atoms: C_13  and  C_14
REMARK    7  A    between atoms: C_14  and  O_16
REMARK    8  A    between atoms: C_20  and  C_21
REMARK    9  A    between atoms: C_21  and  C_22
REMARK   10  A    between atoms: C_21  and  C_23
REMARK                            x       y       z     vdW  Elec       q    Type
REMARK                         _______ _______ _______ _____ _____    ______ ____
ROOT
ATOM      1  N   UNL     1       2.493   7.255  18.853  0.00  0.00    +0.000 N 
ATOM      2  C   UNL     1       1.870   7.183  20.089  0.00  0.00    +0.000 C 
ATOM      3  O   UNL     1       1.821   6.217  20.838  0.00  0.00    +0.000 OA
ATOM      4  H   UNL     1       2.630   8.172  18.450  0.00  0.00    +0.000 HD
ENDROOT
BRANCH   1   7
ATOM      5  C   UNL     1       4.775   5.226  16.690  0.00  0.00    +0.000 A 
ATOM      6  C   UNL     1       4.207   6.319  17.356  0.00  0.00    +0.000 A 
ATOM      7  C   UNL     1       3.067   6.179  18.144  0.00  0.00    +0.000 A 
ATOM      8  C   UNL     1       2.487   4.911  18.279  0.00  0.00    +0.000 A 
ATOM      9  C   UNL     1       3.019   3.792  17.612  0.00  0.00    +0.000 A 
ATOM     10  C   UNL     1       4.162   3.968  16.813  0.00  0.00    +0.000 A 
BRANCH   5  12
ATOM     11  C   UNL     1       7.288   4.903  16.670  0.00  0.00    +0.000 C 
ATOM     12  C   UNL     1       6.060   5.397  15.897  0.00  0.00    +0.000 C 
ATOM     13  C   UNL     1       5.963   4.681  14.544  0.00  0.00    +0.000 C 
ENDBRANCH   5  12
BRANCH   9  14
ATOM     14  C   UNL     1       2.374   2.428  17.801  0.00  0.00    +0.000 C 
ATOM     15  C   UNL     1       3.331   1.408  18.424  0.00  0.00    +0.000 C 
ATOM     16  C   UNL     1       1.084   2.527  18.621  0.00  0.00    +0.000 C 
ENDBRANCH   9  14
ENDBRANCH   1   7
BRANCH   2  17
ATOM     17  C   UNL     1       1.253   8.454  20.558  0.00  0.00    +0.000 A 
ATOM     18  C   UNL     1       0.965   8.668  21.908  0.00  0.00    +0.000 A 
ATOM     19  C   UNL     1       0.386   9.876  22.308  0.00  0.00    +0.000 A 
ATOM     20  C   UNL     1       0.104  10.877  21.367  0.00  0.00    +0.000 A 
ATOM     21  C   UNL     1       0.442  10.680  20.022  0.00  0.00    +0.000 A 
ATOM     22  C   UNL     1       1.012   9.470  19.621  0.00  0.00    +0.000 A 
BRANCH  20  23
ATOM     23  C   UNL     1      -0.499  12.140  21.867  0.00  0.00    +0.000 C 
ATOM     24  O   UNL     1      -1.683  12.237  22.140  0.00  0.00    +0.000 OA
BRANCH  23  25
ATOM     25  O   UNL     1       0.361  13.178  21.942  0.00  0.00    +0.000 OA
ATOM     26  H   UNL     1       1.247  13.020  21.581  0.00  0.00    +0.000 HD
ENDBRANCH  23  25
ENDBRANCH  20  23
ENDBRANCH   2  17
TORSDOF 6
ENDMDL
MODEL 9
REMARK VINA RESULT:      -7.7      1.470      3.681
REMARK  Name = 
REMARK  10 active torsions:
REMARK  status: ('A' for Active; 'I' for Inactive)
REMARK    1  A    between atoms: C_1  and  C_2
REMARK    2  A    between atoms: C_2  and  C_3
REMARK    3  A    between atoms: C_2  and  C_4
REMARK    4  A    between atoms: C_6  and  N_7
REMARK    5  A    between atoms: C_8  and  C_10
REMARK    6  A    between atoms: C_13  and  C_14
REMARK    7  A    between atoms: C_14  and  O_16
REMARK    8  A    between atoms: C_20  and  C_21
REMARK    9  A    between atoms: C_21  and  C_22
REMARK   10  A    between atoms: C_21  and  C_23
REMARK                            x       y       z     vdW  Elec       q    Type
REMARK                         _______ _______ _______ _____ _____    ______ ____
ROOT
ATOM      1  N   UNL     1       2.166   7.834  18.316  0.00  0.00    +0.000 N 
ATOM      2  C   UNL     1       1.732   8.154  19.592  0.00  0.00    +0.000 C 
ATOM      3  O   UNL     1       2.008   7.575  20.634  0.00  0.00    +0.000 OA
ATOM      4  H   UNL     1       2.028   8.521  17.587  0.00  0.00    +0.000 HD
ENDROOT
BRANCH   1   7
ATOM      5  C   UNL     1       3.092   4.278  17.607  0.00  0.00    +0.000 A 
ATOM      6  C   UNL     1       2.358   5.400  18.014  0.00  0.00    +0.000 A 
ATOM      7  C   UNL     1       2.894   6.683  17.945  0.00  0.00    +0.000 A 
ATOM      8  C   UNL     1       4.191   6.851  17.445  0.00  0.00    +0.000 A 
ATOM      9  C   UNL     1       4.965   5.748  17.042  0.00  0.00    +0.000 A 
ATOM     10  C   UNL     1       4.402   4.463  17.137  0.00  0.00    +0.000 A 
BRANCH   5  12
ATOM     11  C   UNL     1       3.437   1.811  18.076  0.00  0.00    +0.000 C 
ATOM     12  C   UNL     1       2.454   2.898  17.626  0.00  0.00    +0.000 C 
ATOM     13  C   UNL     1       1.208   2.889  18.521  0.00  0.00    +0.000 C 
ENDBRANCH   5  12
BRANCH   9  14
ATOM     14  C   UNL     1       6.362   5.972  16.484  0.00  0.00    +0.000 C 
ATOM     15  C   UNL     1       7.279   6.695  17.475  0.00  0.00    +0.000 C 
ATOM     16  C   UNL     1       6.998   4.658  16.021  0.00  0.00    +0.000 C 
ENDBRANCH   9  14
ENDBRANCH   1   7
BRANCH   2  17
ATOM     17  C   UNL     1       0.887   9.375  19.682  0.00  0.00    +0.000 A 
ATOM     18  C   UNL     1       0.627   9.993  20.908  0.00  0.00    +0.000 A 
ATOM     19  C   UNL     1      -0.171  11.140  20.949  0.00  0.00    +0.000 A 
ATOM     20  C   UNL     1      -0.703  11.681  19.770  0.00  0.00    +0.000 A 
ATOM     21  C   UNL     1      -0.399  11.090  18.536  0.00  0.00    +0.000 A 
ATOM     22  C   UNL     1       0.391   9.939  18.496  0.00  0.00    +0.000 A 
BRANCH  20  23
ATOM     23  C   UNL     1      -1.531  12.909  19.889  0.00  0.00    +0.000 C 
ATOM     24  O   UNL     1      -2.459  12.999  20.675  0.00  0.00    +0.000 OA
BRANCH  23  25
ATOM     25  O   UNL     1      -1.204  13.889  19.021  0.00  0.00    +0.000 OA
ATOM     26  H   UNL     1      -0.791  13.601  18.193  0.00  0.00    +0.000 HD
ENDBRANCH  23  25
ENDBRANCH  20  23
ENDBRANCH   2  17
TORSDOF 6
ENDMDL
