MODEL 1
REMARK VINA RESULT:      -7.0      0.000      0.000
REMARK  Name = 
REMARK  7 active torsions:
REMARK  status: ('A' for Active; 'I' for Inactive)
REMARK    1  A    between atoms: C_1  and  N_2
REMARK    2  A    between atoms: N_2  and  C_3
REMARK    3  A    between atoms: N_2  and  N_4
REMARK    4  A    between atoms: C_8  and  C_9
REMARK    5  A    between atoms: C_10  and  C_11
REMARK    6  A    between atoms: C_10  and  S_13
REMARK    7  A    between atoms: S_13  and  C_16
REMARK                            x       y       z     vdW  Elec       q    Type
REMARK                         _______ _______ _______ _____ _____    ______ ____
ROOT
ATOM      1  C   UNL     1       4.011   5.153  17.804  0.00  0.00    +0.000 C 
ATOM      2  C   UNL     1       3.760   4.480  18.934  0.00  0.00    +0.000 C 
ENDROOT
BRANCH   1   7
ATOM      3  N   UNL     1       6.345   5.313  17.131  0.00  0.00    +0.000 N 
ATOM      4  C   UNL     1       7.191   4.697  16.240  0.00  0.00    +0.000 A 
ATOM      5  C   UNL     1       6.441   3.925  15.374  0.00  0.00    +0.000 A 
ATOM      6  C   UNL     1       5.092   4.041  15.775  0.00  0.00    +0.000 A 
ATOM      7  C   UNL     1       5.051   4.865  16.885  0.00  0.00    +0.000 A 
BRANCH   3   9
ATOM      8  C   UNL     1       7.460   7.435  17.580  0.00  0.00    +0.000 C 
ATOM      9  N   UNL     1       6.710   6.306  18.130  0.00  0.00    +0.000 N 
ATOM     10  C   UNL     1       7.426   5.717  19.262  0.00  0.00    +0.000 C 
ENDBRANCH   3   9
ENDBRANCH   1   7
BRANCH   2  11
ATOM     11  S   UNL     1       2.307   4.949  19.775  0.00  0.00    +0.000 S 
ATOM     12  O   UNL     1       1.159   4.307  19.155  0.00  0.00    +0.000 OA
ATOM     13  O   UNL     1       2.516   4.794  21.203  0.00  0.00    +0.000 OA
BRANCH  11  14
ATOM     14  C   UNL     1       2.095   6.695  19.476  0.00  0.00    +0.000 A 
ATOM     15  C   UNL     1       2.259   7.200  18.180  0.00  0.00    +0.000 A 
ATOM     16  C   UNL     1       1.997   8.549  17.930  0.00  0.00    +0.000 A 
ATOM     17  C   UNL     1       1.567   9.378  18.968  0.00  0.00    +0.000 A 
ATOM     18 CL   UNL     1       1.245  11.039  18.656  0.00  0.00    +0.000 Cl
ATOM     19  C   UNL     1       1.384   8.867  20.254  0.00  0.00    +0.000 A 
ATOM     20  C   UNL     1       1.638   7.519  20.509  0.00  0.00    +0.000 A 
ENDBRANCH  11  14
ENDBRANCH   2  11
BRANCH   2  21
ATOM     21  C   UNL     1       4.485   3.375  19.418  0.00  0.00    +0.000 C 
ATOM     22  N   UNL     1       5.060   2.463  19.850  0.00  0.00    +0.000 NA
ENDBRANCH   2  21
TORSDOF 5
ENDMDL
MODEL 2
REMARK VINA RESULT:      -7.0      3.914      6.464
REMARK  Name = 
REMARK  7 active torsions:
REMARK  status: ('A' for Active; 'I' for Inactive)
REMARK    1  A    between atoms: C_1  and  N_2
REMARK    2  A    between atoms: N_2  and  C_3
REMARK    3  A    between atoms: N_2  and  N_4
REMARK    4  A    between atoms: C_8  and  C_9
REMARK    5  A    between atoms: C_10  and  C_11
REMARK    6  A    between atoms: C_10  and  S_13
REMARK    7  A    between atoms: S_13  and  C_16
REMARK                            x       y       z     vdW  Elec       q    Type
REMARK                         _______ _______ _______ _____ _____    ______ ____
ROOT
ATOM      1  C   UNL     1       4.923   5.196  18.975  0.00  0.00    +0.000 C 
ATOM      2  C   UNL     1       5.096   6.174  18.077  0.00  0.00    +0.000 C 
ENDROOT
BRANCH   1   7
ATOM      3  N   UNL     1       3.419   3.555  19.958  0.00  0.00    +0.000 N 
ATOM      4  C   UNL     1       2.318   3.549  20.782  0.00  0.00    +0.000 A 
ATOM      5  C   UNL     1       1.848   4.841  20.907  0.00  0.00    +0.000 A 
ATOM      6  C   UNL     1       2.716   5.674  20.166  0.00  0.00    +0.000 A 
ATOM      7  C   UNL     1       3.704   4.874  19.621  0.00  0.00    +0.000 A 
BRANCH   3   9
ATOM      8  C   UNL     1       3.339   1.536  18.592  0.00  0.00    +0.000 C 
ATOM      9  N   UNL     1       4.141   2.391  19.466  0.00  0.00    +0.000 N 
ATOM     10  C   UNL     1       4.732   1.607  20.550  0.00  0.00    +0.000 C 
ENDBRANCH   3   9
ENDBRANCH   1   7
BRANCH   2  11
ATOM     11  S   UNL     1       6.665   6.223  17.318  0.00  0.00    +0.000 S 
ATOM     12  O   UNL     1       6.944   7.577  16.868  0.00  0.00    +0.000 OA
ATOM     13  O   UNL     1       7.626   5.551  18.174  0.00  0.00    +0.000 OA
BRANCH  11  14
ATOM     14  C   UNL     1       6.533   5.245  15.831  0.00  0.00    +0.000 A 
ATOM     15  C   UNL     1       5.442   4.383  15.665  0.00  0.00    +0.000 A 
ATOM     16  C   UNL     1       5.290   3.693  14.460  0.00  0.00    +0.000 A 
ATOM     17  C   UNL     1       6.217   3.875  13.432  0.00  0.00    +0.000 A 
ATOM     18 CL   UNL     1       6.025   3.024  11.949  0.00  0.00    +0.000 Cl
ATOM     19  C   UNL     1       7.291   4.751  13.593  0.00  0.00    +0.000 A 
ATOM     20  C   UNL     1       7.446   5.448  14.792  0.00  0.00    +0.000 A 
ENDBRANCH  11  14
ENDBRANCH   2  11
BRANCH   2  21
ATOM     21  C   UNL     1       4.105   7.062  17.619  0.00  0.00    +0.000 C 
ATOM     22  N   UNL     1       3.259   7.772  17.259  0.00  0.00    +0.000 NA
ENDBRANCH   2  21
TORSDOF 5
ENDMDL
MODEL 3
REMARK VINA RESULT:      -6.9      3.917      6.446
REMARK  Name = 
REMARK  7 active torsions:
REMARK  status: ('A' for Active; 'I' for Inactive)
REMARK    1  A    between atoms: C_1  and  N_2
REMARK    2  A    between atoms: N_2  and  C_3
REMARK    3  A    between atoms: N_2  and  N_4
REMARK    4  A    between atoms: C_8  and  C_9
REMARK    5  A    between atoms: C_10  and  C_11
REMARK    6  A    between atoms: C_10  and  S_13
REMARK    7  A    between atoms: S_13  and  C_16
REMARK                            x       y       z     vdW  Elec       q    Type
REMARK                         _______ _______ _______ _____ _____    ______ ____
ROOT
ATOM      1  C   UNL     1       4.824   5.290  18.936  0.00  0.00    +0.000 C 
ATOM      2  C   UNL     1       5.003   6.236  18.007  0.00  0.00    +0.000 C 
ENDROOT
BRANCH   1   7
ATOM      3  N   UNL     1       3.301   3.679  19.941  0.00  0.00    +0.000 N 
ATOM      4  C   UNL     1       2.199   3.697  20.763  0.00  0.00    +0.000 A 
ATOM      5  C   UNL     1       1.742   4.996  20.868  0.00  0.00    +0.000 A 
ATOM      6  C   UNL     1       2.620   5.808  20.116  0.00  0.00    +0.000 A 
ATOM      7  C   UNL     1       3.600   4.990  19.585  0.00  0.00    +0.000 A 
BRANCH   3   9
ATOM      8  C   UNL     1       3.198   1.634  18.617  0.00  0.00    +0.000 C 
ATOM      9  N   UNL     1       4.012   2.501  19.468  0.00  0.00    +0.000 N 
ATOM     10  C   UNL     1       4.605   1.734  20.564  0.00  0.00    +0.000 C 
ENDBRANCH   3   9
ENDBRANCH   1   7
BRANCH   2  11
ATOM     11  S   UNL     1       6.577   6.259  17.257  0.00  0.00    +0.000 S 
ATOM     12  O   UNL     1       6.923   7.625  16.898  0.00  0.00    +0.000 OA
ATOM     13  O   UNL     1       7.500   5.487  18.069  0.00  0.00    +0.000 OA
BRANCH  11  14
ATOM     14  C   UNL     1       6.407   5.388  15.709  0.00  0.00    +0.000 A 
ATOM     15  C   UNL     1       7.426   5.472  14.752  0.00  0.00    +0.000 A 
ATOM     16  C   UNL     1       7.336   4.711  13.584  0.00  0.00    +0.000 A 
ATOM     17  C   UNL     1       6.241   3.870  13.385  0.00  0.00    +0.000 A 
ATOM     18 CL   UNL     1       6.134   2.935  11.945  0.00  0.00    +0.000 Cl
ATOM     19  C   UNL     1       5.237   3.772  14.349  0.00  0.00    +0.000 A 
ATOM     20  C   UNL     1       5.324   4.524  15.522  0.00  0.00    +0.000 A 
ENDBRANCH  11  14
ENDBRANCH   2  11
BRANCH   2  21
ATOM     21  C   UNL     1       4.015   7.108  17.511  0.00  0.00    +0.000 C 
ATOM     22  N   UNL     1       3.226   7.841  17.077  0.00  0.00    +0.000 NA
ENDBRANCH   2  21
TORSDOF 5
ENDMDL
MODEL 4
REMARK VINA RESULT:      -6.9      3.865      6.396
REMARK  Name = 
REMARK  7 active torsions:
REMARK  status: ('A' for Active; 'I' for Inactive)
REMARK    1  A    between atoms: C_1  and  N_2
REMARK    2  A    between atoms: N_2  and  C_3
REMARK    3  A    between atoms: N_2  and  N_4
REMARK    4  A    between atoms: C_8  and  C_9
REMARK    5  A    between atoms: C_10  and  C_11
REMARK    6  A    between atoms: C_10  and  S_13
REMARK    7  A    between atoms: S_13  and  C_16
REMARK                            x       y       z     vdW  Elec       q    Type
REMARK                         _______ _______ _______ _____ _____    ______ ____
ROOT
ATOM      1  C   UNL     1       4.142   5.886  17.834  0.00  0.00    +0.000 C 
ATOM      2  C   UNL     1       5.476   5.844  17.926  0.00  0.00    +0.000 C 
ENDROOT
BRANCH   1   7
ATOM      3  N   UNL     1       3.080   4.176  19.203  0.00  0.00    +0.000 N 
ATOM      4  C   UNL     1       2.345   4.113  20.363  0.00  0.00    +0.000 A 
ATOM      5  C   UNL     1       1.955   5.390  20.713  0.00  0.00    +0.000 A 
ATOM      6  C   UNL     1       2.504   6.271  19.755  0.00  0.00    +0.000 A 
ATOM      7  C   UNL     1       3.231   5.514  18.854  0.00  0.00    +0.000 A 
BRANCH   3   9
ATOM      8  C   UNL     1       2.581   2.490  17.512  0.00  0.00    +0.000 C 
ATOM      9  N   UNL     1       3.576   3.049  18.427  0.00  0.00    +0.000 N 
ATOM     10  C   UNL     1       4.141   1.999  19.275  0.00  0.00    +0.000 C 
ENDBRANCH   3   9
ENDBRANCH   1   7
BRANCH   2  11
ATOM     11  S   UNL     1       6.341   6.530  16.577  0.00  0.00    +0.000 S 
ATOM     12  O   UNL     1       5.609   7.677  16.065  0.00  0.00    +0.000 OA
ATOM     13  O   UNL     1       7.737   6.688  16.940  0.00  0.00    +0.000 OA
BRANCH  11  14
ATOM     14  C   UNL     1       6.287   5.311  15.275  0.00  0.00    +0.000 A 
ATOM     15  C   UNL     1       5.187   4.450  15.179  0.00  0.00    +0.000 A 
ATOM     16  C   UNL     1       5.100   3.564  14.103  0.00  0.00    +0.000 A 
ATOM     17  C   UNL     1       6.101   3.550  13.131  0.00  0.00    +0.000 A 
ATOM     18 CL   UNL     1       5.990   2.458  11.806  0.00  0.00    +0.000 Cl
ATOM     19  C   UNL     1       7.185   4.425  13.216  0.00  0.00    +0.000 A 
ATOM     20  C   UNL     1       7.275   5.318  14.286  0.00  0.00    +0.000 A 
ENDBRANCH  11  14
ENDBRANCH   2  11
BRANCH   2  21
ATOM     21  C   UNL     1       6.216   5.419  19.046  0.00  0.00    +0.000 C 
ATOM     22  N   UNL     1       6.842   5.038  19.948  0.00  0.00    +0.000 NA
ENDBRANCH   2  21
TORSDOF 5
ENDMDL
MODEL 5
REMARK VINA RESULT:      -6.8      0.893      2.087
REMARK  Name = 
REMARK  7 active torsions:
REMARK  status: ('A' for Active; 'I' for Inactive)
REMARK    1  A    between atoms: C_1  and  N_2
REMARK    2  A    between atoms: N_2  and  C_3
REMARK    3  A    between atoms: N_2  and  N_4
REMARK    4  A    between atoms: C_8  and  C_9
REMARK    5  A    between atoms: C_10  and  C_11
REMARK    6  A    between atoms: C_10  and  S_13
REMARK    7  A    between atoms: S_13  and  C_16
REMARK                            x       y       z     vdW  Elec       q    Type
REMARK                         _______ _______ _______ _____ _____    ______ ____
ROOT
ATOM      1  C   UNL     1       4.607   5.435  19.312  0.00  0.00    +0.000 C 
ATOM      2  C   UNL     1       3.841   4.400  19.679  0.00  0.00    +0.000 C 
ENDROOT
BRANCH   1   7
ATOM      3  N   UNL     1       6.323   5.292  17.592  0.00  0.00    +0.000 N 
ATOM      4  C   UNL     1       7.681   5.482  17.492  0.00  0.00    +0.000 A 
ATOM      5  C   UNL     1       8.211   5.588  18.763  0.00  0.00    +0.000 A 
ATOM      6  C   UNL     1       7.134   5.501  19.672  0.00  0.00    +0.000 A 
ATOM      7  C   UNL     1       5.971   5.361  18.936  0.00  0.00    +0.000 A 
BRANCH   3   9
ATOM      8  C   UNL     1       5.756   3.813  15.738  0.00  0.00    +0.000 C 
ATOM      9  N   UNL     1       5.403   5.010  16.500  0.00  0.00    +0.000 N 
ATOM     10  C   UNL     1       5.236   6.156  15.607  0.00  0.00    +0.000 C 
ENDBRANCH   3   9
ENDBRANCH   1   7
BRANCH   2  11
ATOM     11  S   UNL     1       2.153   4.766  19.915  0.00  0.00    +0.000 S 
ATOM     12  O   UNL     1       1.366   4.110  18.883  0.00  0.00    +0.000 OA
ATOM     13  O   UNL     1       1.811   4.548  21.308  0.00  0.00    +0.000 OA
BRANCH  11  14
ATOM     14  C   UNL     1       1.972   6.515  19.612  0.00  0.00    +0.000 A 
ATOM     15  C   UNL     1       2.159   7.017  18.318  0.00  0.00    +0.000 A 
ATOM     16  C   UNL     1       1.921   8.369  18.065  0.00  0.00    +0.000 A 
ATOM     17  C   UNL     1       1.492   9.205  19.096  0.00  0.00    +0.000 A 
ATOM     18 CL   UNL     1       1.199  10.871  18.780  0.00  0.00    +0.000 Cl
ATOM     19  C   UNL     1       1.285   8.699  20.380  0.00  0.00    +0.000 A 
ATOM     20  C   UNL     1       1.515   7.346  20.639  0.00  0.00    +0.000 A 
ENDBRANCH  11  14
ENDBRANCH   2  11
BRANCH   2  21
ATOM     21  C   UNL     1       4.251   3.056  19.766  0.00  0.00    +0.000 C 
ATOM     22  N   UNL     1       4.596   1.953  19.876  0.00  0.00    +0.000 NA
ENDBRANCH   2  21
TORSDOF 5
ENDMDL
MODEL 6
REMARK VINA RESULT:      -6.8      6.087      8.950
REMARK  Name = 
REMARK  7 active torsions:
REMARK  status: ('A' for Active; 'I' for Inactive)
REMARK    1  A    between atoms: C_1  and  N_2
REMARK    2  A    between atoms: N_2  and  C_3
REMARK    3  A    between atoms: N_2  and  N_4
REMARK    4  A    between atoms: C_8  and  C_9
REMARK    5  A    between atoms: C_10  and  C_11
REMARK    6  A    between atoms: C_10  and  S_13
REMARK    7  A    between atoms: S_13  and  C_16
REMARK                            x       y       z     vdW  Elec       q    Type
REMARK                         _______ _______ _______ _____ _____    ______ ____
ROOT
ATOM      1  C   UNL     1      -1.787  10.200  18.543  0.00  0.00    +0.000 C 
ATOM      2  C   UNL     1      -0.932  11.101  19.042  0.00  0.00    +0.000 C 
ENDROOT
BRANCH   1   7
ATOM      3  N   UNL     1      -3.879  10.945  17.546  0.00  0.00    +0.000 N 
ATOM      4  C   UNL     1      -4.358  11.243  16.293  0.00  0.00    +0.000 A 
ATOM      5  C   UNL     1      -3.449  10.805  15.351  0.00  0.00    +0.000 A 
ATOM      6  C   UNL     1      -2.354  10.255  16.054  0.00  0.00    +0.000 A 
ATOM      7  C   UNL     1      -2.613  10.386  17.406  0.00  0.00    +0.000 A 
BRANCH   3   9
ATOM      8  C   UNL     1      -5.990  10.743  18.749  0.00  0.00    +0.000 C 
ATOM      9  N   UNL     1      -4.579  11.122  18.809  0.00  0.00    +0.000 N 
ATOM     10  C   UNL     1      -4.435  12.479  19.337  0.00  0.00    +0.000 C 
ENDBRANCH   3   9
ENDBRANCH   1   7
BRANCH   2  11
ATOM     11  S   UNL     1       0.082  10.531  20.341  0.00  0.00    +0.000 S 
ATOM     12  O   UNL     1       0.951  11.608  20.786  0.00  0.00    +0.000 OA
ATOM     13  O   UNL     1      -0.742   9.839  21.316  0.00  0.00    +0.000 OA
BRANCH  11  14
ATOM     14  C   UNL     1       1.167   9.306  19.629  0.00  0.00    +0.000 A 
ATOM     15  C   UNL     1       1.474   8.149  20.354  0.00  0.00    +0.000 A 
ATOM     16  C   UNL     1       2.244   7.148  19.757  0.00  0.00    +0.000 A 
ATOM     17  C   UNL     1       2.690   7.304  18.444  0.00  0.00    +0.000 A 
ATOM     18 CL   UNL     1       3.637   6.069  17.711  0.00  0.00    +0.000 Cl
ATOM     19  C   UNL     1       2.364   8.449  17.715  0.00  0.00    +0.000 A 
ATOM     20  C   UNL     1       1.590   9.451  18.304  0.00  0.00    +0.000 A 
ENDBRANCH  11  14
ENDBRANCH   2  11
BRANCH   2  21
ATOM     21  C   UNL     1      -0.704  12.395  18.536  0.00  0.00    +0.000 C 
ATOM     22  N   UNL     1      -0.477  13.457  18.125  0.00  0.00    +0.000 NA
ENDBRANCH   2  21
TORSDOF 5
ENDMDL
MODEL 7
REMARK VINA RESULT:      -6.7      3.811      6.294
REMARK  Name = 
REMARK  7 active torsions:
REMARK  status: ('A' for Active; 'I' for Inactive)
REMARK    1  A    between atoms: C_1  and  N_2
REMARK    2  A    between atoms: N_2  and  C_3
REMARK    3  A    between atoms: N_2  and  N_4
REMARK    4  A    between atoms: C_8  and  C_9
REMARK    5  A    between atoms: C_10  and  C_11
REMARK    6  A    between atoms: C_10  and  S_13
REMARK    7  A    between atoms: S_13  and  C_16
REMARK                            x       y       z     vdW  Elec       q    Type
REMARK                         _______ _______ _______ _____ _____    ______ ____
ROOT
ATOM      1  C   UNL     1       4.459   4.421  19.642  0.00  0.00    +0.000 C 
ATOM      2  C   UNL     1       4.717   5.496  18.888  0.00  0.00    +0.000 C 
ENDROOT
BRANCH   1   7
ATOM      3  N   UNL     1       2.242   3.451  19.378  0.00  0.00    +0.000 N 
ATOM      4  C   UNL     1       1.226   3.001  20.187  0.00  0.00    +0.000 A 
ATOM      5  C   UNL     1       1.478   3.400  21.484  0.00  0.00    +0.000 A 
ATOM      6  C   UNL     1       2.713   4.085  21.476  0.00  0.00    +0.000 A 
ATOM      7  C   UNL     1       3.194   4.072  20.179  0.00  0.00    +0.000 A 
BRANCH   3   9
ATOM      8  C   UNL     1       1.222   4.070  17.250  0.00  0.00    +0.000 C 
ATOM      9  N   UNL     1       2.304   3.355  17.927  0.00  0.00    +0.000 N 
ATOM     10  C   UNL     1       2.370   1.968  17.466  0.00  0.00    +0.000 C 
ENDBRANCH   3   9
ENDBRANCH   1   7
BRANCH   2  11
ATOM     11  S   UNL     1       6.326   5.573  18.221  0.00  0.00    +0.000 S 
ATOM     12  O   UNL     1       6.757   6.960  18.156  0.00  0.00    +0.000 OA
ATOM     13  O   UNL     1       7.166   4.603  18.900  0.00  0.00    +0.000 OA
BRANCH  11  14
ATOM     14  C   UNL     1       6.192   5.036  16.525  0.00  0.00    +0.000 A 
ATOM     15  C   UNL     1       7.242   5.287  15.634  0.00  0.00    +0.000 A 
ATOM     16  C   UNL     1       7.177   4.780  14.335  0.00  0.00    +0.000 A 
ATOM     17  C   UNL     1       6.075   4.022  13.938  0.00  0.00    +0.000 A 
ATOM     18 CL   UNL     1       5.999   3.398  12.337  0.00  0.00    +0.000 Cl
ATOM     19  C   UNL     1       5.039   3.754  14.834  0.00  0.00    +0.000 A 
ATOM     20  C   UNL     1       5.100   4.253  16.137  0.00  0.00    +0.000 A 
ENDBRANCH  11  14
ENDBRANCH   2  11
BRANCH   2  21
ATOM     21  C   UNL     1       3.785   6.477  18.499  0.00  0.00    +0.000 C 
ATOM     22  N   UNL     1       2.991   7.258  18.168  0.00  0.00    +0.000 NA
ENDBRANCH   2  21
TORSDOF 5
ENDMDL
MODEL 8
REMARK VINA RESULT:      -6.7      0.153      1.046
REMARK  Name = 
REMARK  7 active torsions:
REMARK  status: ('A' for Active; 'I' for Inactive)
REMARK    1  A    between atoms: C_1  and  N_2
REMARK    2  A    between atoms: N_2  and  C_3
REMARK    3  A    between atoms: N_2  and  N_4
REMARK    4  A    between atoms: C_8  and  C_9
REMARK    5  A    between atoms: C_10  and  C_11
REMARK    6  A    between atoms: C_10  and  S_13
REMARK    7  A    between atoms: S_13  and  C_16
REMARK                            x       y       z     vdW  Elec       q    Type
REMARK                         _______ _______ _______ _____ _____    ______ ____
ROOT
ATOM      1  C   UNL     1       3.963   5.046  17.844  0.00  0.00    +0.000 C 
ATOM      2  C   UNL     1       3.745   4.393  18.992  0.00  0.00    +0.000 C 
ENDROOT
BRANCH   1   7
ATOM      3  N   UNL     1       6.296   5.231  17.175  0.00  0.00    +0.000 N 
ATOM      4  C   UNL     1       7.148   4.628  16.279  0.00  0.00    +0.000 A 
ATOM      5  C   UNL     1       6.406   3.856  15.408  0.00  0.00    +0.000 A 
ATOM      6  C   UNL     1       5.055   3.957  15.808  0.00  0.00    +0.000 A 
ATOM      7  C   UNL     1       5.006   4.773  16.924  0.00  0.00    +0.000 A 
BRANCH   3   9
ATOM      8  C   UNL     1       7.243   7.434  17.618  0.00  0.00    +0.000 C 
ATOM      9  N   UNL     1       6.651   6.220  18.181  0.00  0.00    +0.000 N 
ATOM     10  C   UNL     1       7.514   5.665  19.223  0.00  0.00    +0.000 C 
ENDBRANCH   3   9
ENDBRANCH   1   7
BRANCH   2  11
ATOM     11  S   UNL     1       2.282   4.829  19.834  0.00  0.00    +0.000 S 
ATOM     12  O   UNL     1       1.159   4.103  19.262  0.00  0.00    +0.000 OA
ATOM     13  O   UNL     1       2.517   4.753  21.264  0.00  0.00    +0.000 OA
BRANCH  11  14
ATOM     14  C   UNL     1       1.979   6.547  19.456  0.00  0.00    +0.000 A 
ATOM     15  C   UNL     1       1.613   7.427  20.482  0.00  0.00    +0.000 A 
ATOM     16  C   UNL     1       1.474   8.788  20.202  0.00  0.00    +0.000 A 
ATOM     17  C   UNL     1       1.708   9.260  18.910  0.00  0.00    +0.000 A 
ATOM     18 CL   UNL     1       1.536  10.937  18.569  0.00  0.00    +0.000 Cl
ATOM     19  C   UNL     1       2.094   8.384  17.894  0.00  0.00    +0.000 A 
ATOM     20  C   UNL     1       2.242   7.023  18.168  0.00  0.00    +0.000 A 
ENDBRANCH  11  14
ENDBRANCH   2  11
BRANCH   2  21
ATOM     21  C   UNL     1       4.513   3.326  19.497  0.00  0.00    +0.000 C 
ATOM     22  N   UNL     1       5.113   2.425  19.917  0.00  0.00    +0.000 NA
ENDBRANCH   2  21
TORSDOF 5
ENDMDL
MODEL 9
REMARK VINA RESULT:      -6.7      0.937      2.340
REMARK  Name = 
REMARK  7 active torsions:
REMARK  status: ('A' for Active; 'I' for Inactive)
REMARK    1  A    between atoms: C_1  and  N_2
REMARK    2  A    between atoms: N_2  and  C_3
REMARK    3  A    between atoms: N_2  and  N_4
REMARK    4  A    between atoms: C_8  and  C_9
REMARK    5  A    between atoms: C_10  and  C_11
REMARK    6  A    between atoms: C_10  and  S_13
REMARK    7  A    between atoms: S_13  and  C_16
REMARK                            x       y       z     vdW  Elec       q    Type
REMARK                         _______ _______ _______ _____ _____    ______ ____
ROOT
ATOM      1  C   UNL     1       4.547   5.317  19.243  0.00  0.00    +0.000 C 
ATOM      2  C   UNL     1       3.841   4.269  19.686  0.00  0.00    +0.000 C 
ENDROOT
BRANCH   1   7
ATOM      3  N   UNL     1       6.318   5.264  17.573  0.00  0.00    +0.000 N 
ATOM      4  C   UNL     1       7.670   5.510  17.516  0.00  0.00    +0.000 A 
ATOM      5  C   UNL     1       8.157   5.622  18.803  0.00  0.00    +0.000 A 
ATOM      6  C   UNL     1       7.058   5.480  19.679  0.00  0.00    +0.000 A 
ATOM      7  C   UNL     1       5.924   5.302  18.907  0.00  0.00    +0.000 A 
BRANCH   3   9
ATOM      8  C   UNL     1       5.924   3.853  15.623  0.00  0.00    +0.000 C 
ATOM      9  N   UNL     1       5.443   4.959  16.452  0.00  0.00    +0.000 N 
ATOM     10  C   UNL     1       5.167   6.135  15.628  0.00  0.00    +0.000 C 
ENDBRANCH   3   9
ENDBRANCH   1   7
BRANCH   2  11
ATOM     11  S   UNL     1       2.126   4.539  19.848  0.00  0.00    +0.000 S 
ATOM     12  O   UNL     1       1.422   3.827  18.794  0.00  0.00    +0.000 OA
ATOM     13  O   UNL     1       1.741   4.317  21.230  0.00  0.00    +0.000 OA
BRANCH  11  14
ATOM     14  C   UNL     1       1.858   6.271  19.514  0.00  0.00    +0.000 A 
ATOM     15  C   UNL     1       1.541   7.138  20.567  0.00  0.00    +0.000 A 
ATOM     16  C   UNL     1       1.428   8.508  20.319  0.00  0.00    +0.000 A 
ATOM     17  C   UNL     1       1.641   9.001  19.031  0.00  0.00    +0.000 A 
ATOM     18 CL   UNL     1       1.502  10.689  18.730  0.00  0.00    +0.000 Cl
ATOM     19  C   UNL     1       1.978   8.138  17.988  0.00  0.00    +0.000 A 
ATOM     20  C   UNL     1       2.098   6.768  18.230  0.00  0.00    +0.000 A 
ENDBRANCH  11  14
ENDBRANCH   2  11
BRANCH   2  21
ATOM     21  C   UNL     1       4.337   2.970  19.906  0.00  0.00    +0.000 C 
ATOM     22  N   UNL     1       4.743   1.905  20.127  0.00  0.00    +0.000 NA
ENDBRANCH   2  21
TORSDOF 5
ENDMDL
