MODEL 1
REMARK VINA RESULT:      -7.4      0.000      0.000
REMARK  Name = 
REMARK  7 active torsions:
REMARK  status: ('A' for Active; 'I' for Inactive)
REMARK    1  A    between atoms: C_2  and  C_3
REMARK    2  A    between atoms: C_3  and  N_4
REMARK    3  A    between atoms: C_11  and  C_12
REMARK    4  A    between atoms: C_11  and  N_13
REMARK    5  A    between atoms: N_13  and  C_14
REMARK    6  A    between atoms: C_17  and  C_18
REMARK    7  A    between atoms: C_18  and  O_20
REMARK                            x       y       z     vdW  Elec       q    Type
REMARK                         _______ _______ _______ _____ _____    ______ ____
ROOT
ATOM      1  N   UNL     1       3.386   4.320  19.370  0.00  0.00    +0.000 N 
ATOM      2  C   UNL     1       4.210   3.256  19.660  0.00  0.00    +0.000 C 
ATOM      3  O   UNL     1       3.819   2.182  20.115  0.00  0.00    +0.000 OA
ATOM      4  N   UNL     1       5.545   3.443  19.406  0.00  0.00    +0.000 N 
ATOM      5  C   UNL     1       6.086   4.447  18.644  0.00  0.00    +0.000 C 
ATOM      6  O   UNL     1       7.257   4.433  18.282  0.00  0.00    +0.000 OA
ATOM      7  C   UNL     1       5.123   5.515  18.291  0.00  0.00    +0.000 C 
ATOM      8  C   UNL     1       5.256   6.265  17.166  0.00  0.00    +0.000 C 
ATOM      9  C   UNL     1       4.214   7.281  16.724  0.00  0.00    +0.000 C 
ATOM     10  C   UNL     1       3.888   5.576  19.101  0.00  0.00    +0.000 C 
ATOM     11  O   UNL     1       3.383   6.628  19.472  0.00  0.00    +0.000 OA
ATOM     12  H   UNL     1       6.141   2.649  19.593  0.00  0.00    +0.000 HD
ENDROOT
BRANCH   8  13
ATOM     13  N   UNL     1       6.321   6.172  16.265  0.00  0.00    +0.000 N 
ATOM     14  H   UNL     1       7.204   5.953  16.740  0.00  0.00    +0.000 HD
BRANCH  13  15
ATOM     15  C   UNL     1       6.260   5.375  15.082  0.00  0.00    +0.000 A 
ATOM     16  C   UNL     1       7.312   5.279  14.162  0.00  0.00    +0.000 A 
ATOM     17  C   UNL     1       7.241   4.397  13.076  0.00  0.00    +0.000 A 
ATOM     18  C   UNL     1       6.124   3.570  12.906  0.00  0.00    +0.000 A 
ATOM     19  C   UNL     1       5.068   3.653  13.821  0.00  0.00    +0.000 A 
ATOM     20  C   UNL     1       5.138   4.553  14.891  0.00  0.00    +0.000 A 
BRANCH  18  21
ATOM     21  C   UNL     1       6.161   2.577  11.800  0.00  0.00    +0.000 C 
ATOM     22  O   UNL     1       5.153   2.145  11.272  0.00  0.00    +0.000 OA
BRANCH  21  23
ATOM     23  O   UNL     1       7.399   2.158  11.457  0.00  0.00    +0.000 OA
ATOM     24  H   UNL     1       7.492   1.199  11.324  0.00  0.00    +0.000 HD
ENDBRANCH  21  23
ENDBRANCH  18  21
ENDBRANCH  13  15
ENDBRANCH   8  13
BRANCH   1  25
ATOM     25  C   UNL     1       1.946   4.170  19.456  0.00  0.00    +0.000 C 
BRANCH  25  27
ATOM     26  C   UNL     1       2.231   3.391  17.063  0.00  0.00    +0.000 C 
ATOM     27  C   UNL     1       1.476   3.895  18.047  0.00  0.00    +0.000 C 
ENDBRANCH  25  27
ENDBRANCH   1  25
TORSDOF 6
ENDMDL
MODEL 2
REMARK VINA RESULT:      -7.3      0.219      1.001
REMARK  Name = 
REMARK  7 active torsions:
REMARK  status: ('A' for Active; 'I' for Inactive)
REMARK    1  A    between atoms: C_2  and  C_3
REMARK    2  A    between atoms: C_3  and  N_4
REMARK    3  A    between atoms: C_11  and  C_12
REMARK    4  A    between atoms: C_11  and  N_13
REMARK    5  A    between atoms: N_13  and  C_14
REMARK    6  A    between atoms: C_17  and  C_18
REMARK    7  A    between atoms: C_18  and  O_20
REMARK                            x       y       z     vdW  Elec       q    Type
REMARK                         _______ _______ _______ _____ _____    ______ ____
ROOT
ATOM      1  N   UNL     1       3.391   4.317  19.543  0.00  0.00    +0.000 N 
ATOM      2  C   UNL     1       4.256   3.274  19.787  0.00  0.00    +0.000 C 
ATOM      3  O   UNL     1       3.915   2.187  20.250  0.00  0.00    +0.000 OA
ATOM      4  N   UNL     1       5.572   3.498  19.474  0.00  0.00    +0.000 N 
ATOM      5  C   UNL     1       6.051   4.522  18.697  0.00  0.00    +0.000 C 
ATOM      6  O   UNL     1       7.204   4.543  18.281  0.00  0.00    +0.000 OA
ATOM      7  C   UNL     1       5.045   5.566  18.396  0.00  0.00    +0.000 C 
ATOM      8  C   UNL     1       5.106   6.327  17.273  0.00  0.00    +0.000 C 
ATOM      9  C   UNL     1       4.018   7.317  16.887  0.00  0.00    +0.000 C 
ATOM     10  C   UNL     1       3.847   5.588  19.262  0.00  0.00    +0.000 C 
ATOM     11  O   UNL     1       3.331   6.623  19.664  0.00  0.00    +0.000 OA
ATOM     12  H   UNL     1       6.197   2.719  19.627  0.00  0.00    +0.000 HD
ENDROOT
BRANCH   8  13
ATOM     13  N   UNL     1       6.131   6.270  16.323  0.00  0.00    +0.000 N 
ATOM     14  H   UNL     1       7.058   6.283  16.763  0.00  0.00    +0.000 HD
BRANCH  13  15
ATOM     15  C   UNL     1       6.161   5.291  15.284  0.00  0.00    +0.000 A 
ATOM     16  C   UNL     1       5.175   4.309  15.121  0.00  0.00    +0.000 A 
ATOM     17  C   UNL     1       5.196   3.443  14.021  0.00  0.00    +0.000 A 
ATOM     18  C   UNL     1       6.191   3.563  13.043  0.00  0.00    +0.000 A 
ATOM     19  C   UNL     1       7.180   4.542  13.191  0.00  0.00    +0.000 A 
ATOM     20  C   UNL     1       7.163   5.389  14.307  0.00  0.00    +0.000 A 
BRANCH  18  21
ATOM     21  C   UNL     1       6.090   2.689  11.844  0.00  0.00    +0.000 C 
ATOM     22  O   UNL     1       5.034   2.464  11.282  0.00  0.00    +0.000 OA
BRANCH  21  23
ATOM     23  O   UNL     1       7.256   2.127  11.453  0.00  0.00    +0.000 OA
ATOM     24  H   UNL     1       7.194   1.532  10.686  0.00  0.00    +0.000 HD
ENDBRANCH  21  23
ENDBRANCH  18  21
ENDBRANCH  13  15
ENDBRANCH   8  13
BRANCH   1  25
ATOM     25  C   UNL     1       1.961   4.127  19.693  0.00  0.00    +0.000 C 
BRANCH  25  27
ATOM     26  C   UNL     1       1.977   3.392  17.270  0.00  0.00    +0.000 C 
ATOM     27  C   UNL     1       1.407   4.044  18.291  0.00  0.00    +0.000 C 
ENDBRANCH  25  27
ENDBRANCH   1  25
TORSDOF 6
ENDMDL
MODEL 3
REMARK VINA RESULT:      -7.2      3.178      7.240
REMARK  Name = 
REMARK  7 active torsions:
REMARK  status: ('A' for Active; 'I' for Inactive)
REMARK    1  A    between atoms: C_2  and  C_3
REMARK    2  A    between atoms: C_3  and  N_4
REMARK    3  A    between atoms: C_11  and  C_12
REMARK    4  A    between atoms: C_11  and  N_13
REMARK    5  A    between atoms: N_13  and  C_14
REMARK    6  A    between atoms: C_17  and  C_18
REMARK    7  A    between atoms: C_18  and  O_20
REMARK                            x       y       z     vdW  Elec       q    Type
REMARK                         _______ _______ _______ _____ _____    ______ ____
ROOT
ATOM      1  N   UNL     1       5.444   4.739  15.844  0.00  0.00    +0.000 N 
ATOM      2  C   UNL     1       6.623   5.301  16.277  0.00  0.00    +0.000 C 
ATOM      3  O   UNL     1       7.531   5.665  15.532  0.00  0.00    +0.000 OA
ATOM      4  N   UNL     1       6.752   5.455  17.634  0.00  0.00    +0.000 N 
ATOM      5  C   UNL     1       5.738   5.373  18.554  0.00  0.00    +0.000 C 
ATOM      6  O   UNL     1       5.881   5.730  19.718  0.00  0.00    +0.000 OA
ATOM      7  C   UNL     1       4.470   4.844  18.000  0.00  0.00    +0.000 C 
ATOM      8  C   UNL     1       3.261   5.174  18.523  0.00  0.00    +0.000 C 
ATOM      9  C   UNL     1       1.945   4.740  17.895  0.00  0.00    +0.000 C 
ATOM     10  C   UNL     1       4.569   4.123  16.714  0.00  0.00    +0.000 C 
ATOM     11  O   UNL     1       3.934   3.106  16.468  0.00  0.00    +0.000 OA
ATOM     12  H   UNL     1       7.607   5.895  17.945  0.00  0.00    +0.000 HD
ENDROOT
BRANCH   8  13
ATOM     13  N   UNL     1       3.069   5.972  19.656  0.00  0.00    +0.000 N 
ATOM     14  H   UNL     1       3.939   6.094  20.186  0.00  0.00    +0.000 HD
BRANCH  13  15
ATOM     15  C   UNL     1       2.417   7.241  19.599  0.00  0.00    +0.000 A 
ATOM     16  C   UNL     1       2.363   8.028  18.441  0.00  0.00    +0.000 A 
ATOM     17  C   UNL     1       1.617   9.213  18.411  0.00  0.00    +0.000 A 
ATOM     18  C   UNL     1       0.886   9.619  19.534  0.00  0.00    +0.000 A 
ATOM     19  C   UNL     1       0.929   8.840  20.695  0.00  0.00    +0.000 A 
ATOM     20  C   UNL     1       1.695   7.668  20.723  0.00  0.00    +0.000 A 
BRANCH  18  21
ATOM     21  C   UNL     1       0.025  10.825  19.399  0.00  0.00    +0.000 C 
ATOM     22  O   UNL     1      -0.818  11.125  20.223  0.00  0.00    +0.000 OA
BRANCH  21  23
ATOM     23  O   UNL     1       0.221  11.537  18.266  0.00  0.00    +0.000 OA
ATOM     24  H   UNL     1       0.252  12.502  18.382  0.00  0.00    +0.000 HD
ENDBRANCH  21  23
ENDBRANCH  18  21
ENDBRANCH  13  15
ENDBRANCH   8  13
BRANCH   1  25
ATOM     25  C   UNL     1       5.145   4.677  14.426  0.00  0.00    +0.000 C 
BRANCH  25  27
ATOM     26  C   UNL     1       6.209   3.349  12.550  0.00  0.00    +0.000 C 
ATOM     27  C   UNL     1       6.162   3.731  13.832  0.00  0.00    +0.000 C 
ENDBRANCH  25  27
ENDBRANCH   1  25
TORSDOF 6
ENDMDL
MODEL 4
REMARK VINA RESULT:      -7.2      0.633      1.130
REMARK  Name = 
REMARK  7 active torsions:
REMARK  status: ('A' for Active; 'I' for Inactive)
REMARK    1  A    between atoms: C_2  and  C_3
REMARK    2  A    between atoms: C_3  and  N_4
REMARK    3  A    between atoms: C_11  and  C_12
REMARK    4  A    between atoms: C_11  and  N_13
REMARK    5  A    between atoms: N_13  and  C_14
REMARK    6  A    between atoms: C_17  and  C_18
REMARK    7  A    between atoms: C_18  and  O_20
REMARK                            x       y       z     vdW  Elec       q    Type
REMARK                         _______ _______ _______ _____ _____    ______ ____
ROOT
ATOM      1  N   UNL     1       3.603   4.232  19.281  0.00  0.00    +0.000 N 
ATOM      2  C   UNL     1       4.470   3.192  19.531  0.00  0.00    +0.000 C 
ATOM      3  O   UNL     1       4.132   2.107  20.001  0.00  0.00    +0.000 OA
ATOM      4  N   UNL     1       5.786   3.417  19.214  0.00  0.00    +0.000 N 
ATOM      5  C   UNL     1       6.262   4.437  18.430  0.00  0.00    +0.000 C 
ATOM      6  O   UNL     1       7.414   4.456  18.013  0.00  0.00    +0.000 OA
ATOM      7  C   UNL     1       5.253   5.477  18.125  0.00  0.00    +0.000 C 
ATOM      8  C   UNL     1       5.312   6.231  16.996  0.00  0.00    +0.000 C 
ATOM      9  C   UNL     1       4.222   7.217  16.605  0.00  0.00    +0.000 C 
ATOM     10  C   UNL     1       4.056   5.502  18.992  0.00  0.00    +0.000 C 
ATOM     11  O   UNL     1       3.539   6.538  19.387  0.00  0.00    +0.000 OA
ATOM     12  H   UNL     1       6.412   2.640  19.371  0.00  0.00    +0.000 HD
ENDROOT
BRANCH   8  13
ATOM     13  N   UNL     1       6.336   6.169  16.046  0.00  0.00    +0.000 N 
ATOM     14  H   UNL     1       7.250   6.008  16.481  0.00  0.00    +0.000 HD
BRANCH  13  15
ATOM     15  C   UNL     1       6.259   5.339  14.887  0.00  0.00    +0.000 A 
ATOM     16  C   UNL     1       7.288   5.239  13.940  0.00  0.00    +0.000 A 
ATOM     17  C   UNL     1       7.207   4.328  12.881  0.00  0.00    +0.000 A 
ATOM     18  C   UNL     1       6.103   3.474  12.764  0.00  0.00    +0.000 A 
ATOM     19  C   UNL     1       5.070   3.560  13.704  0.00  0.00    +0.000 A 
ATOM     20  C   UNL     1       5.150   4.490  14.748  0.00  0.00    +0.000 A 
BRANCH  18  21
ATOM     21  C   UNL     1       6.131   2.452  11.684  0.00  0.00    +0.000 C 
ATOM     22  O   UNL     1       5.120   2.021  11.161  0.00  0.00    +0.000 OA
BRANCH  21  23
ATOM     23  O   UNL     1       7.365   2.006  11.358  0.00  0.00    +0.000 OA
ATOM     24  H   UNL     1       7.420   1.504  10.527  0.00  0.00    +0.000 HD
ENDBRANCH  21  23
ENDBRANCH  18  21
ENDBRANCH  13  15
ENDBRANCH   8  13
BRANCH   1  25
ATOM     25  C   UNL     1       2.174   4.041  19.434  0.00  0.00    +0.000 C 
BRANCH  25  27
ATOM     26  C   UNL     1       1.196   2.976  21.514  0.00  0.00    +0.000 C 
ATOM     27  C   UNL     1       1.931   3.924  20.920  0.00  0.00    +0.000 C 
ENDBRANCH  25  27
ENDBRANCH   1  25
TORSDOF 6
ENDMDL
MODEL 5
REMARK VINA RESULT:      -7.1      3.072      7.232
REMARK  Name = 
REMARK  7 active torsions:
REMARK  status: ('A' for Active; 'I' for Inactive)
REMARK    1  A    between atoms: C_2  and  C_3
REMARK    2  A    between atoms: C_3  and  N_4
REMARK    3  A    between atoms: C_11  and  C_12
REMARK    4  A    between atoms: C_11  and  N_13
REMARK    5  A    between atoms: N_13  and  C_14
REMARK    6  A    between atoms: C_17  and  C_18
REMARK    7  A    between atoms: C_18  and  O_20
REMARK                            x       y       z     vdW  Elec       q    Type
REMARK                         _______ _______ _______ _____ _____    ______ ____
ROOT
ATOM      1  N   UNL     1       5.479   4.695  15.789  0.00  0.00    +0.000 N 
ATOM      2  C   UNL     1       6.626   5.338  16.199  0.00  0.00    +0.000 C 
ATOM      3  O   UNL     1       7.502   5.744  15.437  0.00  0.00    +0.000 OA
ATOM      4  N   UNL     1       6.760   5.526  17.551  0.00  0.00    +0.000 N 
ATOM      5  C   UNL     1       5.762   5.398  18.484  0.00  0.00    +0.000 C 
ATOM      6  O   UNL     1       5.895   5.786  19.639  0.00  0.00    +0.000 OA
ATOM      7  C   UNL     1       4.524   4.782  17.955  0.00  0.00    +0.000 C 
ATOM      8  C   UNL     1       3.302   5.045  18.486  0.00  0.00    +0.000 C 
ATOM      9  C   UNL     1       2.009   4.518  17.882  0.00  0.00    +0.000 C 
ATOM     10  C   UNL     1       4.654   4.043  16.681  0.00  0.00    +0.000 C 
ATOM     11  O   UNL     1       4.081   2.984  16.461  0.00  0.00    +0.000 OA
ATOM     12  H   UNL     1       7.589   6.024  17.844  0.00  0.00    +0.000 HD
ENDROOT
BRANCH   8  13
ATOM     13  N   UNL     1       3.073   5.851  19.605  0.00  0.00    +0.000 N 
ATOM     14  H   UNL     1       3.936   6.021  20.134  0.00  0.00    +0.000 HD
BRANCH  13  15
ATOM     15  C   UNL     1       2.364   7.088  19.529  0.00  0.00    +0.000 A 
ATOM     16  C   UNL     1       1.681   7.653  20.614  0.00  0.00    +0.000 A 
ATOM     17  C   UNL     1       1.095   8.920  20.515  0.00  0.00    +0.000 A 
ATOM     18  C   UNL     1       1.206   9.662  19.333  0.00  0.00    +0.000 A 
ATOM     19  C   UNL     1       1.889   9.112  18.243  0.00  0.00    +0.000 A 
ATOM     20  C   UNL     1       2.453   7.834  18.344  0.00  0.00    +0.000 A 
BRANCH  18  21
ATOM     21  C   UNL     1       0.660  11.046  19.332  0.00  0.00    +0.000 C 
ATOM     22  O   UNL     1       0.819  11.815  20.262  0.00  0.00    +0.000 OA
BRANCH  21  23
ATOM     23  O   UNL     1      -0.065  11.368  18.237  0.00  0.00    +0.000 OA
ATOM     24  H   UNL     1      -1.025  11.427  18.377  0.00  0.00    +0.000 HD
ENDBRANCH  21  23
ENDBRANCH  18  21
ENDBRANCH  13  15
ENDBRANCH   8  13
BRANCH   1  25
ATOM     25  C   UNL     1       5.170   4.588  14.377  0.00  0.00    +0.000 C 
BRANCH  25  27
ATOM     26  C   UNL     1       6.450   3.487  12.488  0.00  0.00    +0.000 C 
ATOM     27  C   UNL     1       6.219   3.670  13.794  0.00  0.00    +0.000 C 
ENDBRANCH  25  27
ENDBRANCH   1  25
TORSDOF 6
ENDMDL
MODEL 6
REMARK VINA RESULT:      -7.1      4.862      7.464
REMARK  Name = 
REMARK  7 active torsions:
REMARK  status: ('A' for Active; 'I' for Inactive)
REMARK    1  A    between atoms: C_2  and  C_3
REMARK    2  A    between atoms: C_3  and  N_4
REMARK    3  A    between atoms: C_11  and  C_12
REMARK    4  A    between atoms: C_11  and  N_13
REMARK    5  A    between atoms: N_13  and  C_14
REMARK    6  A    between atoms: C_17  and  C_18
REMARK    7  A    between atoms: C_18  and  O_20
REMARK                            x       y       z     vdW  Elec       q    Type
REMARK                         _______ _______ _______ _____ _____    ______ ____
ROOT
ATOM      1  N   UNL     1      -0.434  11.121  19.440  0.00  0.00    +0.000 N 
ATOM      2  C   UNL     1      -0.880  11.373  20.719  0.00  0.00    +0.000 C 
ATOM      3  O   UNL     1      -1.887  12.025  20.985  0.00  0.00    +0.000 OA
ATOM      4  N   UNL     1      -0.127  10.838  21.734  0.00  0.00    +0.000 N 
ATOM      5  C   UNL     1       0.832   9.866  21.598  0.00  0.00    +0.000 C 
ATOM      6  O   UNL     1       1.312   9.284  22.565  0.00  0.00    +0.000 OA
ATOM      7  C   UNL     1       1.200   9.580  20.193  0.00  0.00    +0.000 C 
ATOM      8  C   UNL     1       1.668   8.367  19.801  0.00  0.00    +0.000 C 
ATOM      9  C   UNL     1       1.936   8.017  18.345  0.00  0.00    +0.000 C 
ATOM     10  C   UNL     1       0.821  10.604  19.197  0.00  0.00    +0.000 C 
ATOM     11  O   UNL     1       1.546  10.934  18.267  0.00  0.00    +0.000 OA
ATOM     12  H   UNL     1      -0.474  11.001  22.668  0.00  0.00    +0.000 HD
ENDROOT
BRANCH   8  13
ATOM     13  N   UNL     1       1.920   7.292  20.659  0.00  0.00    +0.000 N 
ATOM     14  H   UNL     1       1.129   7.114  21.289  0.00  0.00    +0.000 HD
BRANCH  13  15
ATOM     15  C   UNL     1       2.387   6.027  20.189  0.00  0.00    +0.000 A 
ATOM     16  C   UNL     1       3.648   5.839  19.609  0.00  0.00    +0.000 A 
ATOM     17  C   UNL     1       4.099   4.558  19.266  0.00  0.00    +0.000 A 
ATOM     18  C   UNL     1       3.305   3.434  19.524  0.00  0.00    +0.000 A 
ATOM     19  C   UNL     1       2.045   3.608  20.106  0.00  0.00    +0.000 A 
ATOM     20  C   UNL     1       1.593   4.894  20.426  0.00  0.00    +0.000 A 
BRANCH  18  21
ATOM     21  C   UNL     1       3.889   2.096  19.240  0.00  0.00    +0.000 C 
ATOM     22  O   UNL     1       3.387   1.314  18.455  0.00  0.00    +0.000 OA
BRANCH  21  23
ATOM     23  O   UNL     1       4.997   1.798  19.956  0.00  0.00    +0.000 OA
ATOM     24  H   UNL     1       5.440   2.556  20.372  0.00  0.00    +0.000 HD
ENDBRANCH  21  23
ENDBRANCH  18  21
ENDBRANCH  13  15
ENDBRANCH   8  13
BRANCH   1  25
ATOM     25  C   UNL     1      -1.242  11.507  18.300  0.00  0.00    +0.000 C 
BRANCH  25  27
ATOM     26  C   UNL     1      -2.259   9.926  16.603  0.00  0.00    +0.000 C 
ATOM     27  C   UNL     1      -1.969  10.256  17.867  0.00  0.00    +0.000 C 
ENDBRANCH  25  27
ENDBRANCH   1  25
TORSDOF 6
ENDMDL
MODEL 7
REMARK VINA RESULT:      -7.1      0.725      1.673
REMARK  Name = 
REMARK  7 active torsions:
REMARK  status: ('A' for Active; 'I' for Inactive)
REMARK    1  A    between atoms: C_2  and  C_3
REMARK    2  A    between atoms: C_3  and  N_4
REMARK    3  A    between atoms: C_11  and  C_12
REMARK    4  A    between atoms: C_11  and  N_13
REMARK    5  A    between atoms: N_13  and  C_14
REMARK    6  A    between atoms: C_17  and  C_18
REMARK    7  A    between atoms: C_18  and  O_20
REMARK                            x       y       z     vdW  Elec       q    Type
REMARK                         _______ _______ _______ _____ _____    ______ ____
ROOT
ATOM      1  N   UNL     1       3.267   4.088  19.412  0.00  0.00    +0.000 N 
ATOM      2  C   UNL     1       4.150   3.046  19.585  0.00  0.00    +0.000 C 
ATOM      3  O   UNL     1       3.826   1.919  19.955  0.00  0.00    +0.000 OA
ATOM      4  N   UNL     1       5.465   3.321  19.311  0.00  0.00    +0.000 N 
ATOM      5  C   UNL     1       5.933   4.414  18.626  0.00  0.00    +0.000 C 
ATOM      6  O   UNL     1       7.091   4.490  18.231  0.00  0.00    +0.000 OA
ATOM      7  C   UNL     1       4.909   5.458  18.394  0.00  0.00    +0.000 C 
ATOM      8  C   UNL     1       4.969   6.307  17.336  0.00  0.00    +0.000 C 
ATOM      9  C   UNL     1       3.866   7.304  17.014  0.00  0.00    +0.000 C 
ATOM     10  C   UNL     1       3.699   5.386  19.241  0.00  0.00    +0.000 C 
ATOM     11  O   UNL     1       3.156   6.375  19.716  0.00  0.00    +0.000 OA
ATOM     12  H   UNL     1       6.105   2.545  19.411  0.00  0.00    +0.000 HD
ENDROOT
BRANCH   8  13
ATOM     13  N   UNL     1       6.008   6.347  16.401  0.00  0.00    +0.000 N 
ATOM     14  H   UNL     1       6.925   6.427  16.854  0.00  0.00    +0.000 HD
BRANCH  13  15
ATOM     15  C   UNL     1       6.131   5.390  15.348  0.00  0.00    +0.000 A 
ATOM     16  C   UNL     1       5.168   4.407  15.084  0.00  0.00    +0.000 A 
ATOM     17  C   UNL     1       5.285   3.565  13.972  0.00  0.00    +0.000 A 
ATOM     18  C   UNL     1       6.357   3.710  13.083  0.00  0.00    +0.000 A 
ATOM     19  C   UNL     1       7.324   4.690  13.332  0.00  0.00    +0.000 A 
ATOM     20  C   UNL     1       7.210   5.513  14.459  0.00  0.00    +0.000 A 
BRANCH  18  21
ATOM     21  C   UNL     1       6.362   2.860  11.862  0.00  0.00    +0.000 C 
ATOM     22  O   UNL     1       7.388   2.492  11.322  0.00  0.00    +0.000 OA
BRANCH  21  23
ATOM     23  O   UNL     1       5.137   2.566  11.372  0.00  0.00    +0.000 OA
ATOM     24  H   UNL     1       5.091   1.769  10.817  0.00  0.00    +0.000 HD
ENDBRANCH  21  23
ENDBRANCH  18  21
ENDBRANCH  13  15
ENDBRANCH   8  13
BRANCH   1  25
ATOM     25  C   UNL     1       1.839   3.858  19.524  0.00  0.00    +0.000 C 
BRANCH  25  27
ATOM     26  C   UNL     1       1.233   2.767  21.728  0.00  0.00    +0.000 C 
ATOM     27  C   UNL     1       1.539   3.851  21.004  0.00  0.00    +0.000 C 
ENDBRANCH  25  27
ENDBRANCH   1  25
TORSDOF 6
ENDMDL
MODEL 8
REMARK VINA RESULT:      -7.1      2.048      3.202
REMARK  Name = 
REMARK  7 active torsions:
REMARK  status: ('A' for Active; 'I' for Inactive)
REMARK    1  A    between atoms: C_2  and  C_3
REMARK    2  A    between atoms: C_3  and  N_4
REMARK    3  A    between atoms: C_11  and  C_12
REMARK    4  A    between atoms: C_11  and  N_13
REMARK    5  A    between atoms: N_13  and  C_14
REMARK    6  A    between atoms: C_17  and  C_18
REMARK    7  A    between atoms: C_18  and  O_20
REMARK                            x       y       z     vdW  Elec       q    Type
REMARK                         _______ _______ _______ _____ _____    ______ ____
ROOT
ATOM      1  N   UNL     1       1.503   4.784  19.733  0.00  0.00    +0.000 N 
ATOM      2  C   UNL     1       1.922   6.059  20.040  0.00  0.00    +0.000 C 
ATOM      3  O   UNL     1       1.465   6.735  20.960  0.00  0.00    +0.000 OA
ATOM      4  N   UNL     1       2.918   6.572  19.249  0.00  0.00    +0.000 N 
ATOM      5  C   UNL     1       3.715   5.854  18.393  0.00  0.00    +0.000 C 
ATOM      6  O   UNL     1       4.720   6.334  17.880  0.00  0.00    +0.000 OA
ATOM      7  C   UNL     1       3.259   4.463  18.176  0.00  0.00    +0.000 C 
ATOM      8  C   UNL     1       4.119   3.463  17.850  0.00  0.00    +0.000 C 
ATOM      9  C   UNL     1       3.691   2.007  17.744  0.00  0.00    +0.000 C 
ATOM     10  C   UNL     1       1.861   4.166  18.553  0.00  0.00    +0.000 C 
ATOM     11  O   UNL     1       1.127   3.447  17.887  0.00  0.00    +0.000 OA
ATOM     12  H   UNL     1       3.242   7.496  19.497  0.00  0.00    +0.000 HD
ENDROOT
BRANCH   8  13
ATOM     13  N   UNL     1       5.488   3.630  17.617  0.00  0.00    +0.000 N 
ATOM     14  H   UNL     1       6.022   2.792  17.868  0.00  0.00    +0.000 HD
BRANCH  13  15
ATOM     15  C   UNL     1       6.002   4.111  16.374  0.00  0.00    +0.000 A 
ATOM     16  C   UNL     1       7.275   4.682  16.236  0.00  0.00    +0.000 A 
ATOM     17  C   UNL     1       7.772   5.036  14.976  0.00  0.00    +0.000 A 
ATOM     18  C   UNL     1       7.014   4.799  13.823  0.00  0.00    +0.000 A 
ATOM     19  C   UNL     1       5.743   4.227  13.946  0.00  0.00    +0.000 A 
ATOM     20  C   UNL     1       5.245   3.896  15.213  0.00  0.00    +0.000 A 
BRANCH  18  21
ATOM     21  C   UNL     1       7.646   5.094  12.509  0.00  0.00    +0.000 C 
ATOM     22  O   UNL     1       7.485   4.387  11.530  0.00  0.00    +0.000 OA
BRANCH  21  23
ATOM     23  O   UNL     1       8.448   6.182  12.496  0.00  0.00    +0.000 OA
ATOM     24  H   UNL     1       9.238   6.122  13.059  0.00  0.00    +0.000 HD
ENDBRANCH  21  23
ENDBRANCH  18  21
ENDBRANCH  13  15
ENDBRANCH   8  13
BRANCH   1  25
ATOM     25  C   UNL     1       0.568   4.096  20.602  0.00  0.00    +0.000 C 
BRANCH  25  27
ATOM     26  C   UNL     1       2.311   2.720  21.820  0.00  0.00    +0.000 C 
ATOM     27  C   UNL     1       1.251   2.812  21.007  0.00  0.00    +0.000 C 
ENDBRANCH  25  27
ENDBRANCH   1  25
TORSDOF 6
ENDMDL
MODEL 9
REMARK VINA RESULT:      -6.9      1.010      1.500
REMARK  Name = 
REMARK  7 active torsions:
REMARK  status: ('A' for Active; 'I' for Inactive)
REMARK    1  A    between atoms: C_2  and  C_3
REMARK    2  A    between atoms: C_3  and  N_4
REMARK    3  A    between atoms: C_11  and  C_12
REMARK    4  A    between atoms: C_11  and  N_13
REMARK    5  A    between atoms: N_13  and  C_14
REMARK    6  A    between atoms: C_17  and  C_18
REMARK    7  A    between atoms: C_18  and  O_20
REMARK                            x       y       z     vdW  Elec       q    Type
REMARK                         _______ _______ _______ _____ _____    ______ ____
ROOT
ATOM      1  N   UNL     1       3.054   3.667  19.360  0.00  0.00    +0.000 N 
ATOM      2  C   UNL     1       3.974   2.645  19.430  0.00  0.00    +0.000 C 
ATOM      3  O   UNL     1       3.683   1.462  19.597  0.00  0.00    +0.000 OA
ATOM      4  N   UNL     1       5.289   3.010  19.292  0.00  0.00    +0.000 N 
ATOM      5  C   UNL     1       5.745   4.213  18.818  0.00  0.00    +0.000 C 
ATOM      6  O   UNL     1       6.921   4.395  18.521  0.00  0.00    +0.000 OA
ATOM      7  C   UNL     1       4.689   5.241  18.682  0.00  0.00    +0.000 C 
ATOM      8  C   UNL     1       4.773   6.249  17.775  0.00  0.00    +0.000 C 
ATOM      9  C   UNL     1       3.646   7.241  17.536  0.00  0.00    +0.000 C 
ATOM     10  C   UNL     1       3.434   4.992  19.422  0.00  0.00    +0.000 C 
ATOM     11  O   UNL     1       2.815   5.872  20.006  0.00  0.00    +0.000 OA
ATOM     12  H   UNL     1       5.958   2.252  19.315  0.00  0.00    +0.000 HD
ENDROOT
BRANCH   8  13
ATOM     13  N   UNL     1       5.865   6.475  16.931  0.00  0.00    +0.000 N 
ATOM     14  H   UNL     1       6.755   6.434  17.440  0.00  0.00    +0.000 HD
BRANCH  13  15
ATOM     15  C   UNL     1       6.042   5.773  15.699  0.00  0.00    +0.000 A 
ATOM     16  C   UNL     1       7.250   5.756  14.989  0.00  0.00    +0.000 A 
ATOM     17  C   UNL     1       7.401   4.963  13.845  0.00  0.00    +0.000 A 
ATOM     18  C   UNL     1       6.352   4.147  13.404  0.00  0.00    +0.000 A 
ATOM     19  C   UNL     1       5.141   4.152  14.107  0.00  0.00    +0.000 A 
ATOM     20  C   UNL     1       4.992   4.965  15.237  0.00  0.00    +0.000 A 
BRANCH  18  21
ATOM     21  C   UNL     1       6.615   3.245  12.251  0.00  0.00    +0.000 C 
ATOM     22  O   UNL     1       7.557   3.403  11.497  0.00  0.00    +0.000 OA
BRANCH  21  23
ATOM     23  O   UNL     1       5.702   2.264  12.080  0.00  0.00    +0.000 OA
ATOM     24  H   UNL     1       5.525   1.718  12.865  0.00  0.00    +0.000 HD
ENDBRANCH  21  23
ENDBRANCH  18  21
ENDBRANCH  13  15
ENDBRANCH   8  13
BRANCH   1  25
ATOM     25  C   UNL     1       1.636   3.369  19.338  0.00  0.00    +0.000 C 
BRANCH  25  27
ATOM     26  C   UNL     1       1.392   2.762  21.784  0.00  0.00    +0.000 C 
ATOM     27  C   UNL     1       1.148   3.578  20.752  0.00  0.00    +0.000 C 
ENDBRANCH  25  27
ENDBRANCH   1  25
TORSDOF 6
ENDMDL
