MODEL 1
REMARK VINA RESULT:      -6.7      0.000      0.000
REMARK  Name = 
REMARK  8 active torsions:
REMARK  status: ('A' for Active; 'I' for Inactive)
REMARK    1  A    between atoms: C_1  and  C_2
REMARK    2  A    between atoms: C_2  and  C_3
REMARK    3  A    between atoms: C_3  and  C_4
REMARK    4  A    between atoms: C_4  and  O_5
REMARK    5  A    between atoms: O_5  and  C_6
REMARK    6  A    between atoms: C_8  and  C_9
REMARK    7  A    between atoms: N_11  and  C_12
REMARK    8  A    between atoms: N_14  and  C_15
REMARK                            x       y       z     vdW  Elec       q    Type
REMARK                         _______ _______ _______ _____ _____    ______ ____
ROOT
ATOM      1  C   UNL     1       4.972   5.745  17.024  0.00  0.00    +0.000 A 
ATOM      2  C   UNL     1       5.733   6.046  15.914  0.00  0.00    +0.000 A 
ATOM      3  C   UNL     1       6.012   4.805  15.286  0.00  0.00    +0.000 A 
ATOM      4  N   UNL     1       5.513   3.775  15.998  0.00  0.00    +0.000 NA
ATOM      5  N   UNL     1       4.791   4.366  16.990  0.00  0.00    +0.000 N 
ENDROOT
BRANCH   5   6
ATOM      6  C   UNL     1       3.931   3.589  17.810  0.00  0.00    +0.000 A 
ATOM      7  C   UNL     1       2.632   3.304  17.372  0.00  0.00    +0.000 A 
ATOM      8  C   UNL     1       1.789   2.530  18.170  0.00  0.00    +0.000 A 
ATOM      9  C   UNL     1       2.221   2.083  19.419  0.00  0.00    +0.000 A 
ATOM     10  C   UNL     1       3.499   2.391  19.872  0.00  0.00    +0.000 A 
ATOM     11  C   UNL     1       4.362   3.132  19.064  0.00  0.00    +0.000 A 
ENDBRANCH   5   6
BRANCH   3  12
ATOM     12  C   UNL     1       6.756   4.609  14.026  0.00  0.00    +0.000 C 
ATOM     13  O   UNL     1       7.728   5.293  13.733  0.00  0.00    +0.000 OA
ATOM     14  N   UNL     1       6.246   3.612  13.221  0.00  0.00    +0.000 N 
ATOM     15  C   UNL     1       6.813   3.263  11.944  0.00  0.00    +0.000 C 
ATOM     16  H   UNL     1       5.415   3.137  13.569  0.00  0.00    +0.000 HD
ENDBRANCH   3  12
BRANCH   1  17
ATOM     17  O   UNL     1       4.494   6.476  18.035  0.00  0.00    +0.000 OA
BRANCH  17  18
ATOM     18  C   UNL     1       3.395   7.332  17.743  0.00  0.00    +0.000 C 
BRANCH  18  19
ATOM     19  C   UNL     1       2.180   6.804  18.504  0.00  0.00    +0.000 C 
BRANCH  19  21
ATOM     20  C   UNL     1       1.504   5.472  20.536  0.00  0.00    +0.000 C 
ATOM     21  C   UNL     1       2.556   6.379  19.920  0.00  0.00    +0.000 C 
ENDBRANCH  19  21
ENDBRANCH  18  19
ENDBRANCH  17  18
ENDBRANCH   1  17
TORSDOF 6
ENDMDL
MODEL 2
REMARK VINA RESULT:      -6.5      0.716      1.316
REMARK  Name = 
REMARK  8 active torsions:
REMARK  status: ('A' for Active; 'I' for Inactive)
REMARK    1  A    between atoms: C_1  and  C_2
REMARK    2  A    between atoms: C_2  and  C_3
REMARK    3  A    between atoms: C_3  and  C_4
REMARK    4  A    between atoms: C_4  and  O_5
REMARK    5  A    between atoms: O_5  and  C_6
REMARK    6  A    between atoms: C_8  and  C_9
REMARK    7  A    between atoms: N_11  and  C_12
REMARK    8  A    between atoms: N_14  and  C_15
REMARK                            x       y       z     vdW  Elec       q    Type
REMARK                         _______ _______ _______ _____ _____    ______ ____
ROOT
ATOM      1  C   UNL     1       4.625   5.940  17.161  0.00  0.00    +0.000 A 
ATOM      2  C   UNL     1       5.449   6.164  16.078  0.00  0.00    +0.000 A 
ATOM      3  C   UNL     1       5.722   4.886  15.526  0.00  0.00    +0.000 A 
ATOM      4  N   UNL     1       5.157   3.908  16.261  0.00  0.00    +0.000 NA
ATOM      5  N   UNL     1       4.405   4.567  17.185  0.00  0.00    +0.000 N 
ENDROOT
BRANCH   5   6
ATOM      6  C   UNL     1       3.482   3.855  17.996  0.00  0.00    +0.000 A 
ATOM      7  C   UNL     1       3.936   3.211  19.154  0.00  0.00    +0.000 A 
ATOM      8  C   UNL     1       3.029   2.521  19.960  0.00  0.00    +0.000 A 
ATOM      9  C   UNL     1       1.687   2.434  19.590  0.00  0.00    +0.000 A 
ATOM     10  C   UNL     1       1.238   3.046  18.424  0.00  0.00    +0.000 A 
ATOM     11  C   UNL     1       2.131   3.770  17.633  0.00  0.00    +0.000 A 
ENDBRANCH   5   6
BRANCH   3  12
ATOM     12  C   UNL     1       6.521   4.608  14.318  0.00  0.00    +0.000 C 
ATOM     13  O   UNL     1       7.595   5.158  14.108  0.00  0.00    +0.000 OA
ATOM     14  N   UNL     1       5.942   3.700  13.457  0.00  0.00    +0.000 N 
ATOM     15  C   UNL     1       6.547   3.293  12.215  0.00  0.00    +0.000 C 
ATOM     16  H   UNL     1       5.032   3.337  13.735  0.00  0.00    +0.000 HD
ENDBRANCH   3  12
BRANCH   1  17
ATOM     17  O   UNL     1       4.119   6.733  18.111  0.00  0.00    +0.000 OA
BRANCH  17  18
ATOM     18  C   UNL     1       3.357   7.852  17.671  0.00  0.00    +0.000 C 
BRANCH  18  19
ATOM     19  C   UNL     1       2.040   7.850  18.446  0.00  0.00    +0.000 C 
BRANCH  19  21
ATOM     20  C   UNL     1       1.449   7.769  20.896  0.00  0.00    +0.000 C 
ATOM     21  C   UNL     1       2.169   7.074  19.752  0.00  0.00    +0.000 C 
ENDBRANCH  19  21
ENDBRANCH  18  19
ENDBRANCH  17  18
ENDBRANCH   1  17
TORSDOF 6
ENDMDL
MODEL 3
REMARK VINA RESULT:      -6.4      1.019      1.049
REMARK  Name = 
REMARK  8 active torsions:
REMARK  status: ('A' for Active; 'I' for Inactive)
REMARK    1  A    between atoms: C_1  and  C_2
REMARK    2  A    between atoms: C_2  and  C_3
REMARK    3  A    between atoms: C_3  and  C_4
REMARK    4  A    between atoms: C_4  and  O_5
REMARK    5  A    between atoms: O_5  and  C_6
REMARK    6  A    between atoms: C_8  and  C_9
REMARK    7  A    between atoms: N_11  and  C_12
REMARK    8  A    between atoms: N_14  and  C_15
REMARK                            x       y       z     vdW  Elec       q    Type
REMARK                         _______ _______ _______ _____ _____    ______ ____
ROOT
ATOM      1  C   UNL     1       4.348   6.128  17.192  0.00  0.00    +0.000 A 
ATOM      2  C   UNL     1       5.186   6.353  16.120  0.00  0.00    +0.000 A 
ATOM      3  C   UNL     1       5.576   5.070  15.656  0.00  0.00    +0.000 A 
ATOM      4  N   UNL     1       5.067   4.095  16.435  0.00  0.00    +0.000 NA
ATOM      5  N   UNL     1       4.236   4.746  17.295  0.00  0.00    +0.000 N 
ENDROOT
BRANCH   5   6
ATOM      6  C   UNL     1       3.346   4.012  18.124  0.00  0.00    +0.000 A 
ATOM      7  C   UNL     1       2.011   3.853  17.732  0.00  0.00    +0.000 A 
ATOM      8  C   UNL     1       1.139   3.122  18.539  0.00  0.00    +0.000 A 
ATOM      9  C   UNL     1       1.580   2.593  19.751  0.00  0.00    +0.000 A 
ATOM     10  C   UNL     1       2.897   2.776  20.160  0.00  0.00    +0.000 A 
ATOM     11  C   UNL     1       3.786   3.473  19.341  0.00  0.00    +0.000 A 
ENDBRANCH   5   6
BRANCH   3  12
ATOM     12  C   UNL     1       6.433   4.785  14.490  0.00  0.00    +0.000 C 
ATOM     13  O   UNL     1       7.537   5.299  14.353  0.00  0.00    +0.000 OA
ATOM     14  N   UNL     1       5.872   3.916  13.578  0.00  0.00    +0.000 N 
ATOM     15  C   UNL     1       6.532   3.511  12.364  0.00  0.00    +0.000 C 
ATOM     16  H   UNL     1       4.934   3.583  13.796  0.00  0.00    +0.000 HD
ENDBRANCH   3  12
BRANCH   1  17
ATOM     17  O   UNL     1       3.751   6.933  18.076  0.00  0.00    +0.000 OA
BRANCH  17  18
ATOM     18  C   UNL     1       2.570   7.599  17.641  0.00  0.00    +0.000 C 
BRANCH  18  19
ATOM     19  C   UNL     1       2.015   8.383  18.829  0.00  0.00    +0.000 C 
BRANCH  19  21
ATOM     20  C   UNL     1       1.203   8.209  21.210  0.00  0.00    +0.000 C 
ATOM     21  C   UNL     1       1.948   7.516  20.082  0.00  0.00    +0.000 C 
ENDBRANCH  19  21
ENDBRANCH  18  19
ENDBRANCH  17  18
ENDBRANCH   1  17
TORSDOF 6
ENDMDL
MODEL 4
REMARK VINA RESULT:      -6.4      1.913      2.976
REMARK  Name = 
REMARK  8 active torsions:
REMARK  status: ('A' for Active; 'I' for Inactive)
REMARK    1  A    between atoms: C_1  and  C_2
REMARK    2  A    between atoms: C_2  and  C_3
REMARK    3  A    between atoms: C_3  and  C_4
REMARK    4  A    between atoms: C_4  and  O_5
REMARK    5  A    between atoms: O_5  and  C_6
REMARK    6  A    between atoms: C_8  and  C_9
REMARK    7  A    between atoms: N_11  and  C_12
REMARK    8  A    between atoms: N_14  and  C_15
REMARK                            x       y       z     vdW  Elec       q    Type
REMARK                         _______ _______ _______ _____ _____    ______ ____
ROOT
ATOM      1  C   UNL     1       6.200   4.300  17.364  0.00  0.00    +0.000 A 
ATOM      2  C   UNL     1       7.067   4.482  16.307  0.00  0.00    +0.000 A 
ATOM      3  C   UNL     1       6.317   4.203  15.136  0.00  0.00    +0.000 A 
ATOM      4  N   UNL     1       5.067   3.802  15.443  0.00  0.00    +0.000 NA
ATOM      5  N   UNL     1       4.976   3.971  16.791  0.00  0.00    +0.000 N 
ENDROOT
BRANCH   5   6
ATOM      6  C   UNL     1       3.720   3.863  17.443  0.00  0.00    +0.000 A 
ATOM      7  C   UNL     1       3.036   5.026  17.820  0.00  0.00    +0.000 A 
ATOM      8  C   UNL     1       1.795   4.923  18.450  0.00  0.00    +0.000 A 
ATOM      9  C   UNL     1       1.261   3.669  18.745  0.00  0.00    +0.000 A 
ATOM     10  C   UNL     1       1.951   2.512  18.400  0.00  0.00    +0.000 A 
ATOM     11  C   UNL     1       3.174   2.606  17.736  0.00  0.00    +0.000 A 
ENDBRANCH   5   6
BRANCH   3  12
ATOM     12  C   UNL     1       6.795   4.310  13.745  0.00  0.00    +0.000 C 
ATOM     13  O   UNL     1       7.466   5.259  13.359  0.00  0.00    +0.000 OA
ATOM     14  N   UNL     1       6.405   3.265  12.934  0.00  0.00    +0.000 N 
ATOM     15  C   UNL     1       6.753   3.176  11.539  0.00  0.00    +0.000 C 
ATOM     16  H   UNL     1       5.823   2.552  13.371  0.00  0.00    +0.000 HD
ENDBRANCH   3  12
BRANCH   1  17
ATOM     17  O   UNL     1       6.351   4.326  18.692  0.00  0.00    +0.000 OA
BRANCH  17  18
ATOM     18  C   UNL     1       6.561   5.602  19.287  0.00  0.00    +0.000 C 
BRANCH  18  19
ATOM     19  C   UNL     1       8.052   5.921  19.189  0.00  0.00    +0.000 C 
BRANCH  19  21
ATOM     20  C   UNL     1       7.565   7.717  17.487  0.00  0.00    +0.000 C 
ATOM     21  C   UNL     1       8.282   7.372  18.782  0.00  0.00    +0.000 C 
ENDBRANCH  19  21
ENDBRANCH  18  19
ENDBRANCH  17  18
ENDBRANCH   1  17
TORSDOF 6
ENDMDL
MODEL 5
REMARK VINA RESULT:      -6.4      2.100      4.325
REMARK  Name = 
REMARK  8 active torsions:
REMARK  status: ('A' for Active; 'I' for Inactive)
REMARK    1  A    between atoms: C_1  and  C_2
REMARK    2  A    between atoms: C_2  and  C_3
REMARK    3  A    between atoms: C_3  and  C_4
REMARK    4  A    between atoms: C_4  and  O_5
REMARK    5  A    between atoms: O_5  and  C_6
REMARK    6  A    between atoms: C_8  and  C_9
REMARK    7  A    between atoms: N_11  and  C_12
REMARK    8  A    between atoms: N_14  and  C_15
REMARK                            x       y       z     vdW  Elec       q    Type
REMARK                         _______ _______ _______ _____ _____    ______ ____
ROOT
ATOM      1  C   UNL     1       2.870   5.240  17.897  0.00  0.00    +0.000 A 
ATOM      2  C   UNL     1       3.951   4.722  17.215  0.00  0.00    +0.000 A 
ATOM      3  C   UNL     1       4.735   5.838  16.825  0.00  0.00    +0.000 A 
ATOM      4  N   UNL     1       4.146   6.996  17.183  0.00  0.00    +0.000 NA
ATOM      5  N   UNL     1       3.072   6.615  17.929  0.00  0.00    +0.000 N 
ENDROOT
BRANCH   5   6
ATOM      6  C   UNL     1       2.337   7.578  18.669  0.00  0.00    +0.000 A 
ATOM      7  C   UNL     1       2.100   7.367  20.033  0.00  0.00    +0.000 A 
ATOM      8  C   UNL     1       1.389   8.318  20.765  0.00  0.00    +0.000 A 
ATOM      9  C   UNL     1       0.874   9.449  20.132  0.00  0.00    +0.000 A 
ATOM     10  C   UNL     1       1.080   9.648  18.771  0.00  0.00    +0.000 A 
ATOM     11  C   UNL     1       1.823   8.721  18.040  0.00  0.00    +0.000 A 
ENDBRANCH   5   6
BRANCH   3  12
ATOM     12  C   UNL     1       6.026   5.794  16.111  0.00  0.00    +0.000 C 
ATOM     13  O   UNL     1       7.002   6.426  16.493  0.00  0.00    +0.000 OA
ATOM     14  N   UNL     1       6.017   5.001  14.983  0.00  0.00    +0.000 N 
ATOM     15  C   UNL     1       7.167   4.825  14.133  0.00  0.00    +0.000 C 
ATOM     16  H   UNL     1       5.131   4.551  14.758  0.00  0.00    +0.000 HD
ENDBRANCH   3  12
BRANCH   1  17
ATOM     17  O   UNL     1       1.765   4.696  18.415  0.00  0.00    +0.000 OA
BRANCH  17  18
ATOM     18  C   UNL     1       1.582   3.299  18.211  0.00  0.00    +0.000 C 
BRANCH  18  19
ATOM     19  C   UNL     1       0.866   2.740  19.440  0.00  0.00    +0.000 C 
BRANCH  19  21
ATOM     20  C   UNL     1       2.116   2.966  21.619  0.00  0.00    +0.000 C 
ATOM     21  C   UNL     1       1.118   3.608  20.668  0.00  0.00    +0.000 C 
ENDBRANCH  19  21
ENDBRANCH  18  19
ENDBRANCH  17  18
ENDBRANCH   1  17
TORSDOF 6
ENDMDL
MODEL 6
REMARK VINA RESULT:      -6.4      1.495      2.076
REMARK  Name = 
REMARK  8 active torsions:
REMARK  status: ('A' for Active; 'I' for Inactive)
REMARK    1  A    between atoms: C_1  and  C_2
REMARK    2  A    between atoms: C_2  and  C_3
REMARK    3  A    between atoms: C_3  and  C_4
REMARK    4  A    between atoms: C_4  and  O_5
REMARK    5  A    between atoms: O_5  and  C_6
REMARK    6  A    between atoms: C_8  and  C_9
REMARK    7  A    between atoms: N_11  and  C_12
REMARK    8  A    between atoms: N_14  and  C_15
REMARK                            x       y       z     vdW  Elec       q    Type
REMARK                         _______ _______ _______ _____ _____    ______ ____
ROOT
ATOM      1  C   UNL     1       4.149   6.230  17.420  0.00  0.00    +0.000 A 
ATOM      2  C   UNL     1       5.017   6.437  16.369  0.00  0.00    +0.000 A 
ATOM      3  C   UNL     1       5.427   5.148  15.943  0.00  0.00    +0.000 A 
ATOM      4  N   UNL     1       4.899   4.186  16.726  0.00  0.00    +0.000 NA
ATOM      5  N   UNL     1       4.040   4.850  17.548  0.00  0.00    +0.000 N 
ENDROOT
BRANCH   5   6
ATOM      6  C   UNL     1       3.130   4.128  18.364  0.00  0.00    +0.000 A 
ATOM      7  C   UNL     1       3.487   3.809  19.680  0.00  0.00    +0.000 A 
ATOM      8  C   UNL     1       2.589   3.111  20.488  0.00  0.00    +0.000 A 
ATOM      9  C   UNL     1       1.363   2.692  19.975  0.00  0.00    +0.000 A 
ATOM     10  C   UNL     1       1.016   2.979  18.659  0.00  0.00    +0.000 A 
ATOM     11  C   UNL     1       1.892   3.710  17.855  0.00  0.00    +0.000 A 
ENDBRANCH   5   6
BRANCH   3  12
ATOM     12  C   UNL     1       6.320   4.844  14.808  0.00  0.00    +0.000 C 
ATOM     13  O   UNL     1       7.459   5.289  14.740  0.00  0.00    +0.000 OA
ATOM     14  N   UNL     1       5.749   4.042  13.843  0.00  0.00    +0.000 N 
ATOM     15  C   UNL     1       6.441   3.632  12.647  0.00  0.00    +0.000 C 
ATOM     16  H   UNL     1       4.783   3.764  14.006  0.00  0.00    +0.000 HD
ENDBRANCH   3  12
BRANCH   1  17
ATOM     17  O   UNL     1       3.523   7.050  18.270  0.00  0.00    +0.000 OA
BRANCH  17  18
ATOM     18  C   UNL     1       2.232   7.509  17.882  0.00  0.00    +0.000 C 
BRANCH  18  19
ATOM     19  C   UNL     1       2.265   9.037  17.878  0.00  0.00    +0.000 C 
BRANCH  19  21
ATOM     20  C   UNL     1       0.677   9.977  19.597  0.00  0.00    +0.000 C 
ATOM     21  C   UNL     1       0.880   9.620  18.133  0.00  0.00    +0.000 C 
ENDBRANCH  19  21
ENDBRANCH  18  19
ENDBRANCH  17  18
ENDBRANCH   1  17
TORSDOF 6
ENDMDL
MODEL 7
REMARK VINA RESULT:      -6.4      1.940      4.039
REMARK  Name = 
REMARK  8 active torsions:
REMARK  status: ('A' for Active; 'I' for Inactive)
REMARK    1  A    between atoms: C_1  and  C_2
REMARK    2  A    between atoms: C_2  and  C_3
REMARK    3  A    between atoms: C_3  and  C_4
REMARK    4  A    between atoms: C_4  and  O_5
REMARK    5  A    between atoms: O_5  and  C_6
REMARK    6  A    between atoms: C_8  and  C_9
REMARK    7  A    between atoms: N_11  and  C_12
REMARK    8  A    between atoms: N_14  and  C_15
REMARK                            x       y       z     vdW  Elec       q    Type
REMARK                         _______ _______ _______ _____ _____    ______ ____
ROOT
ATOM      1  C   UNL     1       3.140   4.975  17.760  0.00  0.00    +0.000 A 
ATOM      2  C   UNL     1       4.229   4.480  17.073  0.00  0.00    +0.000 A 
ATOM      3  C   UNL     1       4.975   5.612  16.658  0.00  0.00    +0.000 A 
ATOM      4  N   UNL     1       4.355   6.757  17.006  0.00  0.00    +0.000 NA
ATOM      5  N   UNL     1       3.301   6.356  17.768  0.00  0.00    +0.000 N 
ENDROOT
BRANCH   5   6
ATOM      6  C   UNL     1       2.544   7.308  18.502  0.00  0.00    +0.000 A 
ATOM      7  C   UNL     1       2.086   8.466  17.862  0.00  0.00    +0.000 A 
ATOM      8  C   UNL     1       1.331   9.396  18.577  0.00  0.00    +0.000 A 
ATOM      9  C   UNL     1       1.076   9.198  19.934  0.00  0.00    +0.000 A 
ATOM     10  C   UNL     1       1.557   8.065  20.581  0.00  0.00    +0.000 A 
ATOM     11  C   UNL     1       2.279   7.111  19.864  0.00  0.00    +0.000 A 
ENDBRANCH   5   6
BRANCH   3  12
ATOM     12  C   UNL     1       6.258   5.596  15.931  0.00  0.00    +0.000 C 
ATOM     13  O   UNL     1       7.273   6.106  16.390  0.00  0.00    +0.000 OA
ATOM     14  N   UNL     1       6.199   4.978  14.699  0.00  0.00    +0.000 N 
ATOM     15  C   UNL     1       7.334   4.860  13.820  0.00  0.00    +0.000 C 
ATOM     16  H   UNL     1       5.287   4.621  14.421  0.00  0.00    +0.000 HD
ENDBRANCH   3  12
BRANCH   1  17
ATOM     17  O   UNL     1       2.057   4.406  18.298  0.00  0.00    +0.000 OA
BRANCH  17  18
ATOM     18  C   UNL     1       1.845   3.029  18.006  0.00  0.00    +0.000 C 
BRANCH  18  19
ATOM     19  C   UNL     1       1.433   2.338  19.305  0.00  0.00    +0.000 C 
BRANCH  19  21
ATOM     20  C   UNL     1       1.939   3.210  21.616  0.00  0.00    +0.000 C 
ATOM     21  C   UNL     1       1.066   3.355  20.380  0.00  0.00    +0.000 C 
ENDBRANCH  19  21
ENDBRANCH  18  19
ENDBRANCH  17  18
ENDBRANCH   1  17
TORSDOF 6
ENDMDL
MODEL 8
REMARK VINA RESULT:      -6.3      0.987      1.020
REMARK  Name = 
REMARK  8 active torsions:
REMARK  status: ('A' for Active; 'I' for Inactive)
REMARK    1  A    between atoms: C_1  and  C_2
REMARK    2  A    between atoms: C_2  and  C_3
REMARK    3  A    between atoms: C_3  and  C_4
REMARK    4  A    between atoms: C_4  and  O_5
REMARK    5  A    between atoms: O_5  and  C_6
REMARK    6  A    between atoms: C_8  and  C_9
REMARK    7  A    between atoms: N_11  and  C_12
REMARK    8  A    between atoms: N_14  and  C_15
REMARK                            x       y       z     vdW  Elec       q    Type
REMARK                         _______ _______ _______ _____ _____    ______ ____
ROOT
ATOM      1  C   UNL     1       4.749   5.804  17.104  0.00  0.00    +0.000 A 
ATOM      2  C   UNL     1       5.539   6.065  16.004  0.00  0.00    +0.000 A 
ATOM      3  C   UNL     1       5.792   4.807  15.400  0.00  0.00    +0.000 A 
ATOM      4  N   UNL     1       5.248   3.804  16.118  0.00  0.00    +0.000 NA
ATOM      5  N   UNL     1       4.526   4.432  17.087  0.00  0.00    +0.000 N 
ENDROOT
BRANCH   5   6
ATOM      6  C   UNL     1       3.628   3.694  17.902  0.00  0.00    +0.000 A 
ATOM      7  C   UNL     1       2.274   3.626  17.550  0.00  0.00    +0.000 A 
ATOM      8  C   UNL     1       1.392   2.891  18.342  0.00  0.00    +0.000 A 
ATOM      9  C   UNL     1       1.845   2.267  19.505  0.00  0.00    +0.000 A 
ATOM     10  C   UNL     1       3.183   2.359  19.875  0.00  0.00    +0.000 A 
ATOM     11  C   UNL     1       4.079   3.060  19.068  0.00  0.00    +0.000 A 
ENDBRANCH   5   6
BRANCH   3  12
ATOM     12  C   UNL     1       6.551   4.569  14.158  0.00  0.00    +0.000 C 
ATOM     13  O   UNL     1       6.314   3.619  13.422  0.00  0.00    +0.000 OA
ATOM     14  N   UNL     1       7.547   5.494  13.922  0.00  0.00    +0.000 N 
ATOM     15  C   UNL     1       8.414   5.444  12.773  0.00  0.00    +0.000 C 
ATOM     16  H   UNL     1       7.660   6.219  14.628  0.00  0.00    +0.000 HD
ENDBRANCH   3  12
BRANCH   1  17
ATOM     17  O   UNL     1       4.276   6.565  18.096  0.00  0.00    +0.000 OA
BRANCH  17  18
ATOM     18  C   UNL     1       3.197   7.436  17.776  0.00  0.00    +0.000 C 
BRANCH  18  19
ATOM     19  C   UNL     1       2.194   7.375  18.926  0.00  0.00    +0.000 C 
BRANCH  19  21
ATOM     20  C   UNL     1       1.507   5.728  20.709  0.00  0.00    +0.000 C 
ATOM     21  C   UNL     1       2.669   6.429  20.024  0.00  0.00    +0.000 C 
ENDBRANCH  19  21
ENDBRANCH  18  19
ENDBRANCH  17  18
ENDBRANCH   1  17
TORSDOF 6
ENDMDL
MODEL 9
REMARK VINA RESULT:      -6.3      1.748      2.081
REMARK  Name = 
REMARK  8 active torsions:
REMARK  status: ('A' for Active; 'I' for Inactive)
REMARK    1  A    between atoms: C_1  and  C_2
REMARK    2  A    between atoms: C_2  and  C_3
REMARK    3  A    between atoms: C_3  and  C_4
REMARK    4  A    between atoms: C_4  and  O_5
REMARK    5  A    between atoms: O_5  and  C_6
REMARK    6  A    between atoms: C_8  and  C_9
REMARK    7  A    between atoms: N_11  and  C_12
REMARK    8  A    between atoms: N_14  and  C_15
REMARK                            x       y       z     vdW  Elec       q    Type
REMARK                         _______ _______ _______ _____ _____    ______ ____
ROOT
ATOM      1  C   UNL     1       4.082   6.524  17.429  0.00  0.00    +0.000 A 
ATOM      2  C   UNL     1       4.975   6.641  16.385  0.00  0.00    +0.000 A 
ATOM      3  C   UNL     1       5.328   5.315  16.024  0.00  0.00    +0.000 A 
ATOM      4  N   UNL     1       4.741   4.416  16.840  0.00  0.00    +0.000 NA
ATOM      5  N   UNL     1       3.903   5.157  17.616  0.00  0.00    +0.000 N 
ENDROOT
BRANCH   5   6
ATOM      6  C   UNL     1       2.946   4.518  18.448  0.00  0.00    +0.000 A 
ATOM      7  C   UNL     1       1.922   3.762  17.866  0.00  0.00    +0.000 A 
ATOM      8  C   UNL     1       0.988   3.123  18.682  0.00  0.00    +0.000 A 
ATOM      9  C   UNL     1       1.045   3.276  20.067  0.00  0.00    +0.000 A 
ATOM     10  C   UNL     1       2.042   4.052  20.648  0.00  0.00    +0.000 A 
ATOM     11  C   UNL     1       3.002   4.663  19.841  0.00  0.00    +0.000 A 
ENDBRANCH   5   6
BRANCH   3  12
ATOM     12  C   UNL     1       6.222   4.917  14.920  0.00  0.00    +0.000 C 
ATOM     13  O   UNL     1       7.384   5.298  14.855  0.00  0.00    +0.000 OA
ATOM     14  N   UNL     1       5.625   4.105  13.978  0.00  0.00    +0.000 N 
ATOM     15  C   UNL     1       6.314   3.610  12.814  0.00  0.00    +0.000 C 
ATOM     16  H   UNL     1       4.644   3.885  14.134  0.00  0.00    +0.000 HD
ENDBRANCH   3  12
BRANCH   1  17
ATOM     17  O   UNL     1       3.483   7.410  18.230  0.00  0.00    +0.000 OA
BRANCH  17  18
ATOM     18  C   UNL     1       2.562   8.307  17.618  0.00  0.00    +0.000 C 
BRANCH  18  19
ATOM     19  C   UNL     1       1.613   8.810  18.704  0.00  0.00    +0.000 C 
BRANCH  19  21
ATOM     20  C   UNL     1      -0.211  10.473  19.222  0.00  0.00    +0.000 C 
ATOM     21  C   UNL     1       0.570   9.762  18.129  0.00  0.00    +0.000 C 
ENDBRANCH  19  21
ENDBRANCH  18  19
ENDBRANCH  17  18
ENDBRANCH   1  17
TORSDOF 6
ENDMDL
