MODEL 1
REMARK VINA RESULT:      -9.0      0.000      0.000
REMARK  Name = 
REMARK  5 active torsions:
REMARK  status: ('A' for Active; 'I' for Inactive)
REMARK    1  A    between atoms: C_6  and  C_7
REMARK    2  A    between atoms: C_7  and  C_8
REMARK    3  A    between atoms: C_11  and  C_12
REMARK    4  A    between atoms: C_12  and  N_13
REMARK    5  A    between atoms: N_16  and  C_17
REMARK                            x       y       z     vdW  Elec       q    Type
REMARK                         _______ _______ _______ _____ _____    ______ ____
ROOT
ATOM      1  N   UNL     1       4.749   4.587  18.716  0.00  0.00    +0.000 NA
ATOM      2  C   UNL     1       5.026   5.990  18.351  0.00  0.00    +0.000 C 
ATOM      3  C   UNL     1       3.851   6.751  17.683  0.00  0.00    +0.000 C 
ATOM      4  N   UNL     1       2.537   6.657  18.351  0.00  0.00    +0.000 NA
ATOM      5  C   UNL     1       2.299   5.308  18.897  0.00  0.00    +0.000 C 
ATOM      6  C   UNL     1       3.506   4.546  19.499  0.00  0.00    +0.000 C 
ENDROOT
BRANCH   4   7
ATOM      7  C   UNL     1       2.238   7.801  19.251  0.00  0.00    +0.000 C 
ATOM      8  C   UNL     1       1.546   7.388  20.552  0.00  0.00    +0.000 C 
ATOM      9  C   UNL     1       1.266   8.567  21.466  0.00  0.00    +0.000 C 
ATOM     10  C   UNL     1       0.492   9.641  20.765  0.00  0.00    +0.000 A 
ATOM     11  C   UNL     1      -0.378  10.449  21.510  0.00  0.00    +0.000 A 
ATOM     12  C   UNL     1      -1.083  11.481  20.898  0.00  0.00    +0.000 A 
ATOM     13  C   UNL     1      -0.906  11.731  19.541  0.00  0.00    +0.000 A 
ATOM     14  C   UNL     1      -0.037  10.934  18.794  0.00  0.00    +0.000 A 
ATOM     15  C   UNL     1       0.661   9.874  19.392  0.00  0.00    +0.000 A 
ATOM     16  C   UNL     1       1.523   8.980  18.526  0.00  0.00    +0.000 C 
ENDBRANCH   4   7
BRANCH   1  17
ATOM     17  C   UNL     1       4.682   3.695  17.546  0.00  0.00    +0.000 C 
BRANCH  17  21
ATOM     18  C   UNL     1       6.712   4.556  14.732  0.00  0.00    +0.000 A 
ATOM     19  N   UNL     1       7.660   4.576  15.680  0.00  0.00    +0.000 NA
ATOM     20  O   UNL     1       6.959   4.260  16.846  0.00  0.00    +0.000 OA
ATOM     21  C   UNL     1       5.663   4.048  16.471  0.00  0.00    +0.000 A 
ATOM     22  N   UNL     1       5.462   4.198  15.179  0.00  0.00    +0.000 NA
BRANCH  18  23
ATOM     23  C   UNL     1       7.002   4.728  13.289  0.00  0.00    +0.000 C 
BRANCH  23  29
ATOM     24  F   UNL     1       6.582   0.527  10.816  0.00  0.00    +0.000 F 
ATOM     25  C   UNL     1       6.014   1.654  11.263  0.00  0.00    +0.000 A 
ATOM     26  C   UNL     1       4.707   1.952  10.897  0.00  0.00    +0.000 A 
ATOM     27  C   UNL     1       4.118   3.127  11.358  0.00  0.00    +0.000 A 
ATOM     28  C   UNL     1       4.849   4.004  12.166  0.00  0.00    +0.000 A 
ATOM     29  C   UNL     1       6.181   3.722  12.516  0.00  0.00    +0.000 A 
ATOM     30  C   UNL     1       6.752   2.521  12.067  0.00  0.00    +0.000 A 
ENDBRANCH  23  29
ENDBRANCH  18  23
ENDBRANCH  17  21
ENDBRANCH   1  17
TORSDOF 5
ENDMDL
MODEL 2
REMARK VINA RESULT:      -9.0      4.956      7.230
REMARK  Name = 
REMARK  5 active torsions:
REMARK  status: ('A' for Active; 'I' for Inactive)
REMARK    1  A    between atoms: C_6  and  C_7
REMARK    2  A    between atoms: C_7  and  C_8
REMARK    3  A    between atoms: C_11  and  C_12
REMARK    4  A    between atoms: C_12  and  N_13
REMARK    5  A    between atoms: N_16  and  C_17
REMARK                            x       y       z     vdW  Elec       q    Type
REMARK                         _______ _______ _______ _____ _____    ______ ____
ROOT
ATOM      1  N   UNL     1       0.208   9.792  19.452  0.00  0.00    +0.000 NA
ATOM      2  C   UNL     1       0.751  10.553  20.594  0.00  0.00    +0.000 C 
ATOM      3  C   UNL     1       0.770  12.095  20.422  0.00  0.00    +0.000 C 
ATOM      4  N   UNL     1      -0.480  12.723  19.951  0.00  0.00    +0.000 NA
ATOM      5  C   UNL     1      -1.155  11.897  18.932  0.00  0.00    +0.000 C 
ATOM      6  C   UNL     1      -1.101  10.357  19.097  0.00  0.00    +0.000 C 
ENDROOT
BRANCH   4   7
ATOM      7  C   UNL     1      -1.332  13.259  21.044  0.00  0.00    +0.000 C 
ATOM      8  C   UNL     1      -0.949  12.731  22.429  0.00  0.00    +0.000 C 
ATOM      9  C   UNL     1      -1.817  13.303  23.534  0.00  0.00    +0.000 C 
ATOM     10  C   UNL     1      -3.274  13.089  23.263  0.00  0.00    +0.000 A 
ATOM     11  C   UNL     1      -4.154  12.944  24.345  0.00  0.00    +0.000 A 
ATOM     12  C   UNL     1      -5.519  12.782  24.131  0.00  0.00    +0.000 A 
ATOM     13  C   UNL     1      -6.022  12.787  22.834  0.00  0.00    +0.000 A 
ATOM     14  C   UNL     1      -5.153  12.936  21.751  0.00  0.00    +0.000 A 
ATOM     15  C   UNL     1      -3.770  13.075  21.951  0.00  0.00    +0.000 A 
ATOM     16  C   UNL     1      -2.857  13.143  20.746  0.00  0.00    +0.000 C 
ENDBRANCH   4   7
BRANCH   1  17
ATOM     17  C   UNL     1       1.120   9.770  18.296  0.00  0.00    +0.000 C 
BRANCH  17  21
ATOM     18  C   UNL     1       3.163   6.855  18.630  0.00  0.00    +0.000 A 
ATOM     19  N   UNL     1       3.655   7.316  17.471  0.00  0.00    +0.000 NA
ATOM     20  O   UNL     1       2.903   8.470  17.235  0.00  0.00    +0.000 OA
ATOM     21  C   UNL     1       2.056   8.601  18.299  0.00  0.00    +0.000 A 
ATOM     22  N   UNL     1       2.190   7.646  19.193  0.00  0.00    +0.000 NA
BRANCH  18  23
ATOM     23  C   UNL     1       3.731   5.689  19.347  0.00  0.00    +0.000 C 
BRANCH  23  29
ATOM     24  F   UNL     1       1.038   2.623  22.047  0.00  0.00    +0.000 F 
ATOM     25  C   UNL     1       1.359   3.105  20.839  0.00  0.00    +0.000 A 
ATOM     26  C   UNL     1       0.789   2.540  19.705  0.00  0.00    +0.000 A 
ATOM     27  C   UNL     1       1.127   3.038  18.449  0.00  0.00    +0.000 A 
ATOM     28  C   UNL     1       2.048   4.086  18.337  0.00  0.00    +0.000 A 
ATOM     29  C   UNL     1       2.650   4.642  19.479  0.00  0.00    +0.000 A 
ATOM     30  C   UNL     1       2.279   4.147  20.741  0.00  0.00    +0.000 A 
ENDBRANCH  23  29
ENDBRANCH  18  23
ENDBRANCH  17  21
ENDBRANCH   1  17
TORSDOF 5
ENDMDL
MODEL 3
REMARK VINA RESULT:      -8.7      4.402      6.771
REMARK  Name = 
REMARK  5 active torsions:
REMARK  status: ('A' for Active; 'I' for Inactive)
REMARK    1  A    between atoms: C_6  and  C_7
REMARK    2  A    between atoms: C_7  and  C_8
REMARK    3  A    between atoms: C_11  and  C_12
REMARK    4  A    between atoms: C_12  and  N_13
REMARK    5  A    between atoms: N_16  and  C_17
REMARK                            x       y       z     vdW  Elec       q    Type
REMARK                         _______ _______ _______ _____ _____    ______ ____
ROOT
ATOM      1  N   UNL     1       0.094   8.727  21.022  0.00  0.00    +0.000 NA
ATOM      2  C   UNL     1      -0.677   8.951  22.261  0.00  0.00    +0.000 C 
ATOM      3  C   UNL     1      -0.320  10.240  23.046  0.00  0.00    +0.000 C 
ATOM      4  N   UNL     1      -0.248  11.492  22.265  0.00  0.00    +0.000 NA
ATOM      5  C   UNL     1       0.353  11.273  20.937  0.00  0.00    +0.000 C 
ATOM      6  C   UNL     1       0.029   9.946  20.205  0.00  0.00    +0.000 C 
ENDROOT
BRANCH   4   7
ATOM      7  C   UNL     1      -1.497  12.296  22.306  0.00  0.00    +0.000 C 
ATOM      8  C   UNL     1      -2.447  11.889  23.435  0.00  0.00    +0.000 C 
ATOM      9  C   UNL     1      -3.708  12.733  23.471  0.00  0.00    +0.000 C 
ATOM     10  C   UNL     1      -4.415  12.733  22.151  0.00  0.00    +0.000 A 
ATOM     11  C   UNL     1      -5.809  12.876  22.125  0.00  0.00    +0.000 A 
ATOM     12  C   UNL     1      -6.494  12.919  20.915  0.00  0.00    +0.000 A 
ATOM     13  C   UNL     1      -5.789  12.845  19.717  0.00  0.00    +0.000 A 
ATOM     14  C   UNL     1      -4.399  12.709  19.735  0.00  0.00    +0.000 A 
ATOM     15  C   UNL     1      -3.698  12.639  20.949  0.00  0.00    +0.000 A 
ATOM     16  C   UNL     1      -2.204  12.401  20.921  0.00  0.00    +0.000 C 
ENDBRANCH   4   7
BRANCH   1  17
ATOM     17  C   UNL     1       1.487   8.323  21.283  0.00  0.00    +0.000 C 
BRANCH  17  21
ATOM     18  C   UNL     1       2.812   5.882  19.031  0.00  0.00    +0.000 A 
ATOM     19  N   UNL     1       2.111   5.063  19.828  0.00  0.00    +0.000 NA
ATOM     20  O   UNL     1       1.551   5.929  20.771  0.00  0.00    +0.000 OA
ATOM     21  C   UNL     1       1.949   7.188  20.421  0.00  0.00    +0.000 A 
ATOM     22  N   UNL     1       2.709   7.216  19.348  0.00  0.00    +0.000 NA
BRANCH  18  23
ATOM     23  C   UNL     1       3.503   5.424  17.802  0.00  0.00    +0.000 C 
BRANCH  23  29
ATOM     24  F   UNL     1       7.774   5.324  20.188  0.00  0.00    +0.000 F 
ATOM     25  C   UNL     1       7.056   5.753  19.142  0.00  0.00    +0.000 A 
ATOM     26  C   UNL     1       7.629   6.641  18.240  0.00  0.00    +0.000 A 
ATOM     27  C   UNL     1       6.881   7.092  17.155  0.00  0.00    +0.000 A 
ATOM     28  C   UNL     1       5.559   6.664  16.991  0.00  0.00    +0.000 A 
ATOM     29  C   UNL     1       4.965   5.788  17.917  0.00  0.00    +0.000 A 
ATOM     30  C   UNL     1       5.740   5.321  18.991  0.00  0.00    +0.000 A 
ENDBRANCH  23  29
ENDBRANCH  18  23
ENDBRANCH  17  21
ENDBRANCH   1  17
TORSDOF 5
ENDMDL
MODEL 4
REMARK VINA RESULT:      -8.7      5.082      7.840
REMARK  Name = 
REMARK  5 active torsions:
REMARK  status: ('A' for Active; 'I' for Inactive)
REMARK    1  A    between atoms: C_6  and  C_7
REMARK    2  A    between atoms: C_7  and  C_8
REMARK    3  A    between atoms: C_11  and  C_12
REMARK    4  A    between atoms: C_12  and  N_13
REMARK    5  A    between atoms: N_16  and  C_17
REMARK                            x       y       z     vdW  Elec       q    Type
REMARK                         _______ _______ _______ _____ _____    ______ ____
ROOT
ATOM      1  N   UNL     1      -0.487  10.225  19.642  0.00  0.00    +0.000 NA
ATOM      2  C   UNL     1      -0.749  10.885  20.936  0.00  0.00    +0.000 C 
ATOM      3  C   UNL     1      -0.902  12.427  20.882  0.00  0.00    +0.000 C 
ATOM      4  N   UNL     1      -1.812  12.966  19.851  0.00  0.00    +0.000 NA
ATOM      5  C   UNL     1      -1.713  12.211  18.588  0.00  0.00    +0.000 C 
ATOM      6  C   UNL     1      -1.495  10.680  18.675  0.00  0.00    +0.000 C 
ENDROOT
BRANCH   4   7
ATOM      7  C   UNL     1      -3.182  13.251  20.350  0.00  0.00    +0.000 C 
ATOM      8  C   UNL     1      -3.297  13.199  21.876  0.00  0.00    +0.000 C 
ATOM      9  C   UNL     1      -4.699  13.511  22.367  0.00  0.00    +0.000 C 
ATOM     10  C   UNL     1      -5.723  12.629  21.722  0.00  0.00    +0.000 A 
ATOM     11  C   UNL     1      -6.885  12.301  22.434  0.00  0.00    +0.000 A 
ATOM     12  C   UNL     1      -7.875  11.516  21.851  0.00  0.00    +0.000 A 
ATOM     13  C   UNL     1      -7.724  11.071  20.541  0.00  0.00    +0.000 A 
ATOM     14  C   UNL     1      -6.571  11.397  19.824  0.00  0.00    +0.000 A 
ATOM     15  C   UNL     1      -5.554  12.167  20.408  0.00  0.00    +0.000 A 
ATOM     16  C   UNL     1      -4.283  12.421  19.625  0.00  0.00    +0.000 C 
ENDBRANCH   4   7
BRANCH   1  17
ATOM     17  C   UNL     1       0.882  10.461  19.149  0.00  0.00    +0.000 C 
BRANCH  17  21
ATOM     18  C   UNL     1       2.622   7.361  18.768  0.00  0.00    +0.000 A 
ATOM     19  N   UNL     1       2.568   7.723  17.478  0.00  0.00    +0.000 NA
ATOM     20  O   UNL     1       1.882   8.941  17.512  0.00  0.00    +0.000 OA
ATOM     21  C   UNL     1       1.624   9.201  18.827  0.00  0.00    +0.000 A 
ATOM     22  N   UNL     1       2.075   8.271  19.642  0.00  0.00    +0.000 NA
BRANCH  18  23
ATOM     23  C   UNL     1       3.362   6.170  19.247  0.00  0.00    +0.000 C 
BRANCH  23  29
ATOM     24  F   UNL     1       0.822   2.855  21.797  0.00  0.00    +0.000 F 
ATOM     25  C   UNL     1       1.181   3.355  20.607  0.00  0.00    +0.000 A 
ATOM     26  C   UNL     1       0.768   2.716  19.445  0.00  0.00    +0.000 A 
ATOM     27  C   UNL     1       1.147   3.232  18.209  0.00  0.00    +0.000 A 
ATOM     28  C   UNL     1       1.952   4.375  18.145  0.00  0.00    +0.000 A 
ATOM     29  C   UNL     1       2.397   5.010  19.319  0.00  0.00    +0.000 A 
ATOM     30  C   UNL     1       1.984   4.493  20.558  0.00  0.00    +0.000 A 
ENDBRANCH  23  29
ENDBRANCH  18  23
ENDBRANCH  17  21
ENDBRANCH   1  17
TORSDOF 5
ENDMDL
MODEL 5
REMARK VINA RESULT:      -8.7      1.068      1.425
REMARK  Name = 
REMARK  5 active torsions:
REMARK  status: ('A' for Active; 'I' for Inactive)
REMARK    1  A    between atoms: C_6  and  C_7
REMARK    2  A    between atoms: C_7  and  C_8
REMARK    3  A    between atoms: C_11  and  C_12
REMARK    4  A    between atoms: C_12  and  N_13
REMARK    5  A    between atoms: N_16  and  C_17
REMARK                            x       y       z     vdW  Elec       q    Type
REMARK                         _______ _______ _______ _____ _____    ______ ____
ROOT
ATOM      1  N   UNL     1       4.759   5.788  18.270  0.00  0.00    +0.000 NA
ATOM      2  C   UNL     1       4.496   7.182  17.862  0.00  0.00    +0.000 C 
ATOM      3  C   UNL     1       3.001   7.564  17.710  0.00  0.00    +0.000 C 
ATOM      4  N   UNL     1       2.107   7.192  18.825  0.00  0.00    +0.000 NA
ATOM      5  C   UNL     1       2.456   5.874  19.387  0.00  0.00    +0.000 C 
ATOM      6  C   UNL     1       3.956   5.494  19.465  0.00  0.00    +0.000 C 
ENDROOT
BRANCH   4   7
ATOM      7  C   UNL     1       1.873   8.289  19.799  0.00  0.00    +0.000 C 
ATOM      8  C   UNL     1       1.340   7.802  21.149  0.00  0.00    +0.000 C 
ATOM      9  C   UNL     1       1.125   8.935  22.136  0.00  0.00    +0.000 C 
ATOM     10  C   UNL     1       0.247  10.008  21.569  0.00  0.00    +0.000 A 
ATOM     11  C   UNL     1      -0.560  10.756  22.436  0.00  0.00    +0.000 A 
ATOM     12  C   UNL     1      -1.359  11.785  21.948  0.00  0.00    +0.000 A 
ATOM     13  C   UNL     1      -1.338  12.094  20.591  0.00  0.00    +0.000 A 
ATOM     14  C   UNL     1      -0.532  11.357  19.722  0.00  0.00    +0.000 A 
ATOM     15  C   UNL     1       0.259  10.299  20.197  0.00  0.00    +0.000 A 
ATOM     16  C   UNL     1       1.048   9.470  19.206  0.00  0.00    +0.000 C 
ENDBRANCH   4   7
BRANCH   1  17
ATOM     17  C   UNL     1       4.499   4.819  17.191  0.00  0.00    +0.000 C 
BRANCH  17  21
ATOM     18  C   UNL     1       6.846   4.869  14.495  0.00  0.00    +0.000 A 
ATOM     19  N   UNL     1       7.642   4.362  15.447  0.00  0.00    +0.000 NA
ATOM     20  O   UNL     1       6.812   4.312  16.571  0.00  0.00    +0.000 OA
ATOM     21  C   UNL     1       5.589   4.764  16.165  0.00  0.00    +0.000 A 
ATOM     22  N   UNL     1       5.551   5.099  14.894  0.00  0.00    +0.000 NA
BRANCH  18  23
ATOM     23  C   UNL     1       7.261   5.008  13.079  0.00  0.00    +0.000 C 
BRANCH  23  29
ATOM     24  F   UNL     1       3.414   2.611  11.237  0.00  0.00    +0.000 F 
ATOM     25  C   UNL     1       4.737   2.676  11.429  0.00  0.00    +0.000 A 
ATOM     26  C   UNL     1       5.540   1.617  11.021  0.00  0.00    +0.000 A 
ATOM     27  C   UNL     1       6.915   1.683  11.226  0.00  0.00    +0.000 A 
ATOM     28  C   UNL     1       7.476   2.800  11.854  0.00  0.00    +0.000 A 
ATOM     29  C   UNL     1       6.666   3.862  12.295  0.00  0.00    +0.000 A 
ATOM     30  C   UNL     1       5.284   3.793  12.058  0.00  0.00    +0.000 A 
ENDBRANCH  23  29
ENDBRANCH  18  23
ENDBRANCH  17  21
ENDBRANCH   1  17
TORSDOF 5
ENDMDL
MODEL 6
REMARK VINA RESULT:      -8.6      0.836      1.837
REMARK  Name = 
REMARK  5 active torsions:
REMARK  status: ('A' for Active; 'I' for Inactive)
REMARK    1  A    between atoms: C_6  and  C_7
REMARK    2  A    between atoms: C_7  and  C_8
REMARK    3  A    between atoms: C_11  and  C_12
REMARK    4  A    between atoms: C_12  and  N_13
REMARK    5  A    between atoms: N_16  and  C_17
REMARK                            x       y       z     vdW  Elec       q    Type
REMARK                         _______ _______ _______ _____ _____    ______ ____
ROOT
ATOM      1  N   UNL     1       3.264   4.483  17.374  0.00  0.00    +0.000 NA
ATOM      2  C   UNL     1       2.282   4.340  18.468  0.00  0.00    +0.000 C 
ATOM      3  C   UNL     1       2.555   5.202  19.728  0.00  0.00    +0.000 C 
ATOM      4  N   UNL     1       2.847   6.631  19.501  0.00  0.00    +0.000 NA
ATOM      5  C   UNL     1       3.680   6.834  18.301  0.00  0.00    +0.000 C 
ATOM      6  C   UNL     1       3.428   5.913  17.080  0.00  0.00    +0.000 C 
ENDROOT
BRANCH   4   7
ATOM      7  C   UNL     1       1.662   7.516  19.645  0.00  0.00    +0.000 C 
ATOM      8  C   UNL     1       1.814   8.859  18.926  0.00  0.00    +0.000 C 
ATOM      9  C   UNL     1       0.587   9.741  19.069  0.00  0.00    +0.000 C 
ATOM     10  C   UNL     1       0.211   9.942  20.505  0.00  0.00    +0.000 A 
ATOM     11  C   UNL     1      -0.415  11.136  20.884  0.00  0.00    +0.000 A 
ATOM     12  C   UNL     1      -0.813  11.340  22.202  0.00  0.00    +0.000 A 
ATOM     13  C   UNL     1      -0.611  10.341  23.148  0.00  0.00    +0.000 A 
ATOM     14  C   UNL     1       0.007   9.145  22.777  0.00  0.00    +0.000 A 
ATOM     15  C   UNL     1       0.437   8.937  21.457  0.00  0.00    +0.000 A 
ATOM     16  C   UNL     1       1.183   7.663  21.120  0.00  0.00    +0.000 C 
ENDBRANCH   4   7
BRANCH   1  17
ATOM     17  C   UNL     1       4.555   3.841  17.678  0.00  0.00    +0.000 C 
BRANCH  17  21
ATOM     18  C   UNL     1       6.812   4.565  15.003  0.00  0.00    +0.000 A 
ATOM     19  N   UNL     1       7.677   4.641  16.024  0.00  0.00    +0.000 NA
ATOM     20  O   UNL     1       6.881   4.383  17.143  0.00  0.00    +0.000 OA
ATOM     21  C   UNL     1       5.622   4.144  16.672  0.00  0.00    +0.000 A 
ATOM     22  N   UNL     1       5.530   4.223  15.362  0.00  0.00    +0.000 NA
BRANCH  18  23
ATOM     23  C   UNL     1       7.222   4.663  13.581  0.00  0.00    +0.000 C 
BRANCH  23  29
ATOM     24  F   UNL     1       6.507   0.718  10.776  0.00  0.00    +0.000 F 
ATOM     25  C   UNL     1       6.010   1.823  11.347  0.00  0.00    +0.000 A 
ATOM     26  C   UNL     1       4.702   2.204  11.072  0.00  0.00    +0.000 A 
ATOM     27  C   UNL     1       4.187   3.356  11.661  0.00  0.00    +0.000 A 
ATOM     28  C   UNL     1       4.991   4.128  12.506  0.00  0.00    +0.000 A 
ATOM     29  C   UNL     1       6.324   3.763  12.766  0.00  0.00    +0.000 A 
ATOM     30  C   UNL     1       6.821   2.585  12.186  0.00  0.00    +0.000 A 
ENDBRANCH  23  29
ENDBRANCH  18  23
ENDBRANCH  17  21
ENDBRANCH   1  17
TORSDOF 5
ENDMDL
MODEL 7
REMARK VINA RESULT:      -8.6      3.329      6.060
REMARK  Name = 
REMARK  5 active torsions:
REMARK  status: ('A' for Active; 'I' for Inactive)
REMARK    1  A    between atoms: C_6  and  C_7
REMARK    2  A    between atoms: C_7  and  C_8
REMARK    3  A    between atoms: C_11  and  C_12
REMARK    4  A    between atoms: C_12  and  N_13
REMARK    5  A    between atoms: N_16  and  C_17
REMARK                            x       y       z     vdW  Elec       q    Type
REMARK                         _______ _______ _______ _____ _____    ______ ____
ROOT
ATOM      1  N   UNL     1       0.383   8.701  20.496  0.00  0.00    +0.000 NA
ATOM      2  C   UNL     1      -0.422   8.781  21.731  0.00  0.00    +0.000 C 
ATOM      3  C   UNL     1      -0.040   9.926  22.705  0.00  0.00    +0.000 C 
ATOM      4  N   UNL     1       0.111  11.272  22.116  0.00  0.00    +0.000 NA
ATOM      5  C   UNL     1       0.750  11.218  20.788  0.00  0.00    +0.000 C 
ATOM      6  C   UNL     1       0.397  10.027  19.863  0.00  0.00    +0.000 C 
ENDROOT
BRANCH   4   7
ATOM      7  C   UNL     1      -1.104  12.119  22.236  0.00  0.00    +0.000 C 
ATOM      8  C   UNL     1      -2.024  11.704  23.387  0.00  0.00    +0.000 C 
ATOM      9  C   UNL     1      -3.250  12.591  23.505  0.00  0.00    +0.000 C 
ATOM     10  C   UNL     1      -4.007  12.668  22.215  0.00  0.00    +0.000 A 
ATOM     11  C   UNL     1      -5.394  12.862  22.250  0.00  0.00    +0.000 A 
ATOM     12  C   UNL     1      -6.123  12.976  21.070  0.00  0.00    +0.000 A 
ATOM     13  C   UNL     1      -5.468  12.924  19.844  0.00  0.00    +0.000 A 
ATOM     14  C   UNL     1      -4.085  12.737  19.800  0.00  0.00    +0.000 A 
ATOM     15  C   UNL     1      -3.341  12.594  20.982  0.00  0.00    +0.000 A 
ATOM     16  C   UNL     1      -1.859  12.303  20.886  0.00  0.00    +0.000 C 
ENDBRANCH   4   7
BRANCH   1  17
ATOM     17  C   UNL     1       1.747   8.200  20.736  0.00  0.00    +0.000 C 
BRANCH  17  21
ATOM     18  C   UNL     1       2.580   5.290  18.834  0.00  0.00    +0.000 A 
ATOM     19  N   UNL     1       2.108   4.685  19.933  0.00  0.00    +0.000 NA
ATOM     20  O   UNL     1       1.759   5.752  20.766  0.00  0.00    +0.000 OA
ATOM     21  C   UNL     1       2.028   6.892  20.063  0.00  0.00    +0.000 A 
ATOM     22  N   UNL     1       2.515   6.663  18.862  0.00  0.00    +0.000 NA
BRANCH  18  23
ATOM     23  C   UNL     1       2.978   4.555  17.610  0.00  0.00    +0.000 C 
BRANCH  23  29
ATOM     24  F   UNL     1       7.049   4.216  14.917  0.00  0.00    +0.000 F 
ATOM     25  C   UNL     1       6.479   4.453  16.105  0.00  0.00    +0.000 A 
ATOM     26  C   UNL     1       7.283   4.668  17.217  0.00  0.00    +0.000 A 
ATOM     27  C   UNL     1       6.689   4.909  18.454  0.00  0.00    +0.000 A 
ATOM     28  C   UNL     1       5.295   4.913  18.571  0.00  0.00    +0.000 A 
ATOM     29  C   UNL     1       4.477   4.667  17.455  0.00  0.00    +0.000 A 
ATOM     30  C   UNL     1       5.089   4.453  16.209  0.00  0.00    +0.000 A 
ENDBRANCH  23  29
ENDBRANCH  18  23
ENDBRANCH  17  21
ENDBRANCH   1  17
TORSDOF 5
ENDMDL
MODEL 8
REMARK VINA RESULT:      -8.6      3.821      6.543
REMARK  Name = 
REMARK  5 active torsions:
REMARK  status: ('A' for Active; 'I' for Inactive)
REMARK    1  A    between atoms: C_6  and  C_7
REMARK    2  A    between atoms: C_7  and  C_8
REMARK    3  A    between atoms: C_11  and  C_12
REMARK    4  A    between atoms: C_12  and  N_13
REMARK    5  A    between atoms: N_16  and  C_17
REMARK                            x       y       z     vdW  Elec       q    Type
REMARK                         _______ _______ _______ _____ _____    ______ ____
ROOT
ATOM      1  N   UNL     1       0.147   8.773  20.795  0.00  0.00    +0.000 NA
ATOM      2  C   UNL     1      -0.619   8.921  22.048  0.00  0.00    +0.000 C 
ATOM      3  C   UNL     1      -0.252  10.155  22.914  0.00  0.00    +0.000 C 
ATOM      4  N   UNL     1      -0.176  11.454  22.216  0.00  0.00    +0.000 NA
ATOM      5  C   UNL     1       0.420  11.318  20.874  0.00  0.00    +0.000 C 
ATOM      6  C   UNL     1       0.087  10.043  20.059  0.00  0.00    +0.000 C 
ENDROOT
BRANCH   4   7
ATOM      7  C   UNL     1      -1.420  12.260  22.312  0.00  0.00    +0.000 C 
ATOM      8  C   UNL     1      -2.353  11.808  23.438  0.00  0.00    +0.000 C 
ATOM      9  C   UNL     1      -3.609  12.654  23.533  0.00  0.00    +0.000 C 
ATOM     10  C   UNL     1      -4.338  12.716  22.226  0.00  0.00    +0.000 A 
ATOM     11  C   UNL     1      -5.731  12.865  22.229  0.00  0.00    +0.000 A 
ATOM     12  C   UNL     1      -6.436  12.964  21.033  0.00  0.00    +0.000 A 
ATOM     13  C   UNL     1      -5.751  12.941  19.822  0.00  0.00    +0.000 A 
ATOM     14  C   UNL     1      -4.362  12.799  19.811  0.00  0.00    +0.000 A 
ATOM     15  C   UNL     1      -3.642  12.671  21.009  0.00  0.00    +0.000 A 
ATOM     16  C   UNL     1      -2.149  12.429  20.945  0.00  0.00    +0.000 C 
ENDBRANCH   4   7
BRANCH   1  17
ATOM     17  C   UNL     1       1.539   8.345  21.024  0.00  0.00    +0.000 C 
BRANCH  17  21
ATOM     18  C   UNL     1       2.751   5.983  18.631  0.00  0.00    +0.000 A 
ATOM     19  N   UNL     1       2.922   7.103  17.914  0.00  0.00    +0.000 NA
ATOM     20  O   UNL     1       2.458   8.108  18.768  0.00  0.00    +0.000 OA
ATOM     21  C   UNL     1       2.086   7.487  19.926  0.00  0.00    +0.000 A 
ATOM     22  N   UNL     1       2.265   6.184  19.901  0.00  0.00    +0.000 NA
BRANCH  18  23
ATOM     23  C   UNL     1       3.207   4.649  18.174  0.00  0.00    +0.000 C 
BRANCH  23  29
ATOM     24  F   UNL     1       7.629   5.704  19.984  0.00  0.00    +0.000 F 
ATOM     25  C   UNL     1       6.887   5.247  18.967  0.00  0.00    +0.000 A 
ATOM     26  C   UNL     1       7.502   4.929  17.763  0.00  0.00    +0.000 A 
ATOM     27  C   UNL     1       6.730   4.459  16.703  0.00  0.00    +0.000 A 
ATOM     28  C   UNL     1       5.345   4.329  16.851  0.00  0.00    +0.000 A 
ATOM     29  C   UNL     1       4.713   4.677  18.058  0.00  0.00    +0.000 A 
ATOM     30  C   UNL     1       5.508   5.124  19.126  0.00  0.00    +0.000 A 
ENDBRANCH  23  29
ENDBRANCH  18  23
ENDBRANCH  17  21
ENDBRANCH   1  17
TORSDOF 5
ENDMDL
MODEL 9
REMARK VINA RESULT:      -8.6      4.474      7.035
REMARK  Name = 
REMARK  5 active torsions:
REMARK  status: ('A' for Active; 'I' for Inactive)
REMARK    1  A    between atoms: C_6  and  C_7
REMARK    2  A    between atoms: C_7  and  C_8
REMARK    3  A    between atoms: C_11  and  C_12
REMARK    4  A    between atoms: C_12  and  N_13
REMARK    5  A    between atoms: N_16  and  C_17
REMARK                            x       y       z     vdW  Elec       q    Type
REMARK                         _______ _______ _______ _____ _____    ______ ____
ROOT
ATOM      1  N   UNL     1      -0.116   9.976  19.247  0.00  0.00    +0.000 NA
ATOM      2  C   UNL     1       0.337  10.428  20.577  0.00  0.00    +0.000 C 
ATOM      3  C   UNL     1       0.656  11.942  20.696  0.00  0.00    +0.000 C 
ATOM      4  N   UNL     1      -0.360  12.875  20.168  0.00  0.00    +0.000 NA
ATOM      5  C   UNL     1      -0.974  12.368  18.927  0.00  0.00    +0.000 C 
ATOM      6  C   UNL     1      -1.220  10.842  18.812  0.00  0.00    +0.000 C 
ENDROOT
BRANCH   4   7
ATOM      7  C   UNL     1      -1.288  13.400  21.204  0.00  0.00    +0.000 C 
ATOM      8  C   UNL     1      -0.962  12.910  22.617  0.00  0.00    +0.000 C 
ATOM      9  C   UNL     1      -1.909  13.470  23.663  0.00  0.00    +0.000 C 
ATOM     10  C   UNL     1      -3.341  13.200  23.319  0.00  0.00    +0.000 A 
ATOM     11  C   UNL     1      -4.272  13.044  24.354  0.00  0.00    +0.000 A 
ATOM     12  C   UNL     1      -5.617  12.830  24.070  0.00  0.00    +0.000 A 
ATOM     13  C   UNL     1      -6.049  12.795  22.748  0.00  0.00    +0.000 A 
ATOM     14  C   UNL     1      -5.128  12.955  21.710  0.00  0.00    +0.000 A 
ATOM     15  C   UNL     1      -3.764  13.146  21.982  0.00  0.00    +0.000 A 
ATOM     16  C   UNL     1      -2.789  13.225  20.827  0.00  0.00    +0.000 C 
ENDBRANCH   4   7
BRANCH   1  17
ATOM     17  C   UNL     1       0.971   9.945  18.253  0.00  0.00    +0.000 C 
BRANCH  17  21
ATOM     18  C   UNL     1       2.880   6.985  18.864  0.00  0.00    +0.000 A 
ATOM     19  N   UNL     1       3.285   7.232  17.610  0.00  0.00    +0.000 NA
ATOM     20  O   UNL     1       2.576   8.385  17.262  0.00  0.00    +0.000 OA
ATOM     21  C   UNL     1       1.841   8.731  18.360  0.00  0.00    +0.000 A 
ATOM     22  N   UNL     1       2.007   7.915  19.378  0.00  0.00    +0.000 NA
BRANCH  18  23
ATOM     23  C   UNL     1       3.450   5.905  19.704  0.00  0.00    +0.000 C 
BRANCH  23  29
ATOM     24  F   UNL     1       2.344   1.846  17.206  0.00  0.00    +0.000 F 
ATOM     25  C   UNL     1       2.071   2.676  18.222  0.00  0.00    +0.000 A 
ATOM     26  C   UNL     1       0.943   2.454  19.001  0.00  0.00    +0.000 A 
ATOM     27  C   UNL     1       0.657   3.320  20.053  0.00  0.00    +0.000 A 
ATOM     28  C   UNL     1       1.493   4.413  20.306  0.00  0.00    +0.000 A 
ATOM     29  C   UNL     1       2.620   4.659  19.503  0.00  0.00    +0.000 A 
ATOM     30  C   UNL     1       2.911   3.762  18.462  0.00  0.00    +0.000 A 
ENDBRANCH  23  29
ENDBRANCH  18  23
ENDBRANCH  17  21
ENDBRANCH   1  17
TORSDOF 5
ENDMDL
