MODEL 1
REMARK VINA RESULT:      -7.2      0.000      0.000
REMARK  Name = 
REMARK  6 active torsions:
REMARK  status: ('A' for Active; 'I' for Inactive)
REMARK    1  A    between atoms: C_1  and  O_2
REMARK    2  A    between atoms: O_2  and  C_3
REMARK    3  A    between atoms: C_6  and  C_7
REMARK    4  A    between atoms: C_19  and  O_20
REMARK    5  A    between atoms: C_22  and  O_23
REMARK    6  A    between atoms: O_23  and  C_24
REMARK                            x       y       z     vdW  Elec       q    Type
REMARK                         _______ _______ _______ _____ _____    ______ ____
ROOT
ATOM      1  C   UNL     1       3.267   6.020  18.440  0.00  0.00    +0.000 A 
ATOM      2  O   UNL     1       2.993   7.391  18.509  0.00  0.00    +0.000 OA
ATOM      3  C   UNL     1       2.107   7.839  19.464  0.00  0.00    +0.000 A 
ATOM      4  C   UNL     1       1.556   9.120  19.368  0.00  0.00    +0.000 A 
ATOM      5 BR   UNL     1       1.875  10.219  17.858  0.00  0.00    +0.000 Br
ATOM      6  C   UNL     1       0.695   9.599  20.368  0.00  0.00    +0.000 A 
ATOM      7  C   UNL     1       0.416   8.807  21.483  0.00  0.00    +0.000 A 
ATOM      8 BR   UNL     1      -0.738   9.450  22.835  0.00  0.00    +0.000 Br
ATOM      9  C   UNL     1       0.941   7.528  21.586  0.00  0.00    +0.000 A 
ATOM     10  C   UNL     1       1.743   7.045  20.551  0.00  0.00    +0.000 A 
ATOM     11  C   UNL     1       2.110   5.635  20.531  0.00  0.00    +0.000 A 
ATOM     12  O   UNL     1       1.891   4.870  21.468  0.00  0.00    +0.000 OA
ATOM     13  C   UNL     1       2.739   5.124  19.295  0.00  0.00    +0.000 A 
ENDROOT
BRANCH   1  17
ATOM     14  C   UNL     1       6.181   4.731  15.516  0.00  0.00    +0.000 A 
ATOM     15  C   UNL     1       4.993   4.033  15.717  0.00  0.00    +0.000 A 
ATOM     16  C   UNL     1       4.053   4.481  16.643  0.00  0.00    +0.000 A 
ATOM     17  C   UNL     1       4.261   5.637  17.408  0.00  0.00    +0.000 A 
ATOM     18  C   UNL     1       5.483   6.303  17.240  0.00  0.00    +0.000 A 
ATOM     19  C   UNL     1       6.452   5.859  16.311  0.00  0.00    +0.000 A 
BRANCH  14  21
ATOM     20  C   UNL     1       6.552   3.952  13.313  0.00  0.00    +0.000 C 
ATOM     21  O   UNL     1       7.091   4.303  14.587  0.00  0.00    +0.000 OA
ENDBRANCH  14  21
BRANCH  19  22
ATOM     22  O   UNL     1       7.578   6.641  16.312  0.00  0.00    +0.000 OA
ATOM     23  C   UNL     1       7.734   7.614  17.336  0.00  0.00    +0.000 C 
ENDBRANCH  19  22
ENDBRANCH   1  17
BRANCH  13  24
ATOM     24  O   UNL     1       2.804   3.753  19.155  0.00  0.00    +0.000 OA
ATOM     25  H   UNL     1       3.319   3.603  18.336  0.00  0.00    +0.000 HD
ENDBRANCH  13  24
TORSDOF 4
ENDMDL
MODEL 2
REMARK VINA RESULT:      -7.2      3.015      4.869
REMARK  Name = 
REMARK  6 active torsions:
REMARK  status: ('A' for Active; 'I' for Inactive)
REMARK    1  A    between atoms: C_1  and  O_2
REMARK    2  A    between atoms: O_2  and  C_3
REMARK    3  A    between atoms: C_6  and  C_7
REMARK    4  A    between atoms: C_19  and  O_20
REMARK    5  A    between atoms: C_22  and  O_23
REMARK    6  A    between atoms: O_23  and  C_24
REMARK                            x       y       z     vdW  Elec       q    Type
REMARK                         _______ _______ _______ _____ _____    ______ ____
ROOT
ATOM      1  C   UNL     1       0.898   9.076  19.851  0.00  0.00    +0.000 A 
ATOM      2  O   UNL     1       0.049   9.664  18.904  0.00  0.00    +0.000 OA
ATOM      3  C   UNL     1      -0.907  10.555  19.339  0.00  0.00    +0.000 A 
ATOM      4  C   UNL     1      -1.970  10.910  18.505  0.00  0.00    +0.000 A 
ATOM      5 BR   UNL     1      -2.227  10.072  16.825  0.00  0.00    +0.000 Br
ATOM      6  C   UNL     1      -2.916  11.859  18.925  0.00  0.00    +0.000 A 
ATOM      7  C   UNL     1      -2.774  12.479  20.168  0.00  0.00    +0.000 A 
ATOM      8 BR   UNL     1      -4.041  13.761  20.736  0.00  0.00    +0.000 Br
ATOM      9  C   UNL     1      -1.734  12.125  21.015  0.00  0.00    +0.000 A 
ATOM     10  C   UNL     1      -0.841  11.134  20.606  0.00  0.00    +0.000 A 
ATOM     11  C   UNL     1       0.110  10.590  21.567  0.00  0.00    +0.000 A 
ATOM     12  O   UNL     1       0.287  11.073  22.684  0.00  0.00    +0.000 OA
ATOM     13  C   UNL     1       0.852   9.379  21.162  0.00  0.00    +0.000 A 
ENDROOT
BRANCH   1  17
ATOM     14  C   UNL     1       3.772   6.403  18.037  0.00  0.00    +0.000 A 
ATOM     15  C   UNL     1       3.440   7.622  17.450  0.00  0.00    +0.000 A 
ATOM     16  C   UNL     1       2.534   8.483  18.066  0.00  0.00    +0.000 A 
ATOM     17  C   UNL     1       1.919   8.162  19.285  0.00  0.00    +0.000 A 
ATOM     18  C   UNL     1       2.216   6.910  19.840  0.00  0.00    +0.000 A 
ATOM     19  C   UNL     1       3.127   6.020  19.226  0.00  0.00    +0.000 A 
BRANCH  14  21
ATOM     20  C   UNL     1       5.329   6.093  16.283  0.00  0.00    +0.000 C 
ATOM     21  O   UNL     1       4.682   5.570  17.443  0.00  0.00    +0.000 OA
ENDBRANCH  14  21
BRANCH  19  22
ATOM     22  O   UNL     1       3.265   4.847  19.923  0.00  0.00    +0.000 OA
ATOM     23  C   UNL     1       2.322   4.540  20.940  0.00  0.00    +0.000 C 
ENDBRANCH  19  22
ENDBRANCH   1  17
BRANCH  13  24
ATOM     24  O   UNL     1       1.511   8.694  22.161  0.00  0.00    +0.000 OA
ATOM     25  H   UNL     1       1.291   9.171  22.988  0.00  0.00    +0.000 HD
ENDBRANCH  13  24
TORSDOF 4
ENDMDL
MODEL 3
REMARK VINA RESULT:      -6.7      3.423      8.129
REMARK  Name = 
REMARK  6 active torsions:
REMARK  status: ('A' for Active; 'I' for Inactive)
REMARK    1  A    between atoms: C_1  and  O_2
REMARK    2  A    between atoms: O_2  and  C_3
REMARK    3  A    between atoms: C_6  and  C_7
REMARK    4  A    between atoms: C_19  and  O_20
REMARK    5  A    between atoms: C_22  and  O_23
REMARK    6  A    between atoms: O_23  and  C_24
REMARK                            x       y       z     vdW  Elec       q    Type
REMARK                         _______ _______ _______ _____ _____    ______ ____
ROOT
ATOM      1  C   UNL     1       1.570   8.342  19.805  0.00  0.00    +0.000 A 
ATOM      2  O   UNL     1       2.034   7.110  20.280  0.00  0.00    +0.000 OA
ATOM      3  C   UNL     1       2.711   6.281  19.412  0.00  0.00    +0.000 A 
ATOM      4  C   UNL     1       2.902   4.934  19.729  0.00  0.00    +0.000 A 
ATOM      5 BR   UNL     1       2.111   4.162  21.269  0.00  0.00    +0.000 Br
ATOM      6  C   UNL     1       3.638   4.100  18.872  0.00  0.00    +0.000 A 
ATOM      7  C   UNL     1       4.214   4.627  17.715  0.00  0.00    +0.000 A 
ATOM      8 BR   UNL     1       5.210   3.511  16.560  0.00  0.00    +0.000 Br
ATOM      9  C   UNL     1       4.019   5.959  17.377  0.00  0.00    +0.000 A 
ATOM     10  C   UNL     1       3.231   6.755  18.209  0.00  0.00    +0.000 A 
ATOM     11  C   UNL     1       2.828   8.080  17.754  0.00  0.00    +0.000 A 
ATOM     12  O   UNL     1       3.281   8.610  16.742  0.00  0.00    +0.000 OA
ATOM     13  C   UNL     1       1.796   8.775  18.550  0.00  0.00    +0.000 A 
ENDROOT
BRANCH   1  17
ATOM     14  C   UNL     1      -0.586  10.723  22.701  0.00  0.00    +0.000 A 
ATOM     15  C   UNL     1      -0.738   9.339  22.637  0.00  0.00    +0.000 A 
ATOM     16  C   UNL     1      -0.012   8.587  21.717  0.00  0.00    +0.000 A 
ATOM     17  C   UNL     1       0.888   9.181  20.821  0.00  0.00    +0.000 A 
ATOM     18  C   UNL     1       0.994  10.578  20.854  0.00  0.00    +0.000 A 
ATOM     19  C   UNL     1       0.260  11.359  21.775  0.00  0.00    +0.000 A 
BRANCH  14  21
ATOM     20  C   UNL     1      -2.556  11.936  23.193  0.00  0.00    +0.000 C 
ATOM     21  O   UNL     1      -1.282  11.457  23.624  0.00  0.00    +0.000 OA
ENDBRANCH  14  21
BRANCH  19  22
ATOM     22  O   UNL     1       0.497  12.702  21.633  0.00  0.00    +0.000 OA
ATOM     23  C   UNL     1      -0.241  13.428  20.660  0.00  0.00    +0.000 C 
ENDBRANCH  19  22
ENDBRANCH   1  17
BRANCH  13  24
ATOM     24  O   UNL     1       1.198   9.872  17.966  0.00  0.00    +0.000 OA
ATOM     25  H   UNL     1       1.936  10.473  17.732  0.00  0.00    +0.000 HD
ENDBRANCH  13  24
TORSDOF 4
ENDMDL
MODEL 4
REMARK VINA RESULT:      -6.6      3.206      5.382
REMARK  Name = 
REMARK  6 active torsions:
REMARK  status: ('A' for Active; 'I' for Inactive)
REMARK    1  A    between atoms: C_1  and  O_2
REMARK    2  A    between atoms: O_2  and  C_3
REMARK    3  A    between atoms: C_6  and  C_7
REMARK    4  A    between atoms: C_19  and  O_20
REMARK    5  A    between atoms: C_22  and  O_23
REMARK    6  A    between atoms: O_23  and  C_24
REMARK                            x       y       z     vdW  Elec       q    Type
REMARK                         _______ _______ _______ _____ _____    ______ ____
ROOT
ATOM      1  C   UNL     1       0.727   9.666  20.518  0.00  0.00    +0.000 A 
ATOM      2  O   UNL     1       1.080  10.980  20.187  0.00  0.00    +0.000 OA
ATOM      3  C   UNL     1       0.431  12.016  20.822  0.00  0.00    +0.000 A 
ATOM      4  C   UNL     1       0.504  13.313  20.307  0.00  0.00    +0.000 A 
ATOM      5 BR   UNL     1       1.352  13.670  18.651  0.00  0.00    +0.000 Br
ATOM      6  C   UNL     1      -0.111  14.381  20.981  0.00  0.00    +0.000 A 
ATOM      7  C   UNL     1      -0.768  14.151  22.192  0.00  0.00    +0.000 A 
ATOM      8 BR   UNL     1      -1.593  15.585  23.106  0.00  0.00    +0.000 Br
ATOM      9  C   UNL     1      -0.864  12.868  22.708  0.00  0.00    +0.000 A 
ATOM     10  C   UNL     1      -0.301  11.811  21.990  0.00  0.00    +0.000 A 
ATOM     11  C   UNL     1      -0.590  10.441  22.395  0.00  0.00    +0.000 A 
ATOM     12  O   UNL     1      -1.171  10.157  23.440  0.00  0.00    +0.000 OA
ATOM     13  C   UNL     1      -0.185   9.369  21.462  0.00  0.00    +0.000 A 
ENDROOT
BRANCH   1  17
ATOM     14  C   UNL     1       2.860   6.607  18.328  0.00  0.00    +0.000 A 
ATOM     15  C   UNL     1       2.504   7.815  17.732  0.00  0.00    +0.000 A 
ATOM     16  C   UNL     1       1.844   8.800  18.464  0.00  0.00    +0.000 A 
ATOM     17  C   UNL     1       1.506   8.619  19.813  0.00  0.00    +0.000 A 
ATOM     18  C   UNL     1       1.818   7.381  20.389  0.00  0.00    +0.000 A 
ATOM     19  C   UNL     1       2.481   6.366  19.661  0.00  0.00    +0.000 A 
BRANCH  14  21
ATOM     20  C   UNL     1       4.951   5.796  17.574  0.00  0.00    +0.000 C 
ATOM     21  O   UNL     1       3.532   5.650  17.614  0.00  0.00    +0.000 OA
ENDBRANCH  14  21
BRANCH  19  22
ATOM     22  O   UNL     1       2.679   5.230  20.403  0.00  0.00    +0.000 OA
ATOM     23  C   UNL     1       1.561   4.408  20.706  0.00  0.00    +0.000 C 
ENDBRANCH  19  22
ENDBRANCH   1  17
BRANCH  13  24
ATOM     24  O   UNL     1      -0.720   8.118  21.688  0.00  0.00    +0.000 OA
ATOM     25  H   UNL     1      -0.078   7.489  21.298  0.00  0.00    +0.000 HD
ENDBRANCH  13  24
TORSDOF 4
ENDMDL
MODEL 5
REMARK VINA RESULT:      -6.5      2.806      5.184
REMARK  Name = 
REMARK  6 active torsions:
REMARK  status: ('A' for Active; 'I' for Inactive)
REMARK    1  A    between atoms: C_1  and  O_2
REMARK    2  A    between atoms: O_2  and  C_3
REMARK    3  A    between atoms: C_6  and  C_7
REMARK    4  A    between atoms: C_19  and  O_20
REMARK    5  A    between atoms: C_22  and  O_23
REMARK    6  A    between atoms: O_23  and  C_24
REMARK                            x       y       z     vdW  Elec       q    Type
REMARK                         _______ _______ _______ _____ _____    ______ ____
ROOT
ATOM      1  C   UNL     1       1.231   9.156  19.443  0.00  0.00    +0.000 A 
ATOM      2  O   UNL     1       0.607   9.164  20.696  0.00  0.00    +0.000 OA
ATOM      3  C   UNL     1      -0.216  10.221  21.017  0.00  0.00    +0.000 A 
ATOM      4  C   UNL     1      -0.594  10.443  22.343  0.00  0.00    +0.000 A 
ATOM      5 BR   UNL     1       0.128   9.410  23.759  0.00  0.00    +0.000 Br
ATOM      6  C   UNL     1      -1.475  11.487  22.666  0.00  0.00    +0.000 A 
ATOM      7  C   UNL     1      -2.007  12.286  21.652  0.00  0.00    +0.000 A 
ATOM      8 BR   UNL     1      -3.198  13.689  22.079  0.00  0.00    +0.000 Br
ATOM      9  C   UNL     1      -1.629  12.089  20.332  0.00  0.00    +0.000 A 
ATOM     10  C   UNL     1      -0.703  11.088  20.039  0.00  0.00    +0.000 A 
ATOM     11  C   UNL     1      -0.124  11.019  18.703  0.00  0.00    +0.000 A 
ATOM     12  O   UNL     1      -0.529  11.696  17.760  0.00  0.00    +0.000 OA
ATOM     13  C   UNL     1       1.027  10.113  18.518  0.00  0.00    +0.000 A 
ENDROOT
BRANCH   1  17
ATOM     14  C   UNL     1       3.567   5.644  18.490  0.00  0.00    +0.000 A 
ATOM     15  C   UNL     1       3.517   6.740  17.632  0.00  0.00    +0.000 A 
ATOM     16  C   UNL     1       2.783   7.875  17.972  0.00  0.00    +0.000 A 
ATOM     17  C   UNL     1       2.065   7.960  19.173  0.00  0.00    +0.000 A 
ATOM     18  C   UNL     1       2.075   6.832  20.004  0.00  0.00    +0.000 A 
ATOM     19  C   UNL     1       2.808   5.669  19.674  0.00  0.00    +0.000 A 
BRANCH  14  21
ATOM     20  C   UNL     1       5.641   4.521  18.683  0.00  0.00    +0.000 C 
ATOM     21  O   UNL     1       4.310   4.540  18.166  0.00  0.00    +0.000 OA
ENDBRANCH  14  21
BRANCH  19  22
ATOM     22  O   UNL     1       2.674   4.678  20.612  0.00  0.00    +0.000 OA
ATOM     23  C   UNL     1       1.489   3.894  20.614  0.00  0.00    +0.000 C 
ENDBRANCH  19  22
ENDBRANCH   1  17
BRANCH  13  24
ATOM     24  O   UNL     1       1.760  10.271  17.360  0.00  0.00    +0.000 OA
ATOM     25  H   UNL     1       2.178  11.154  17.439  0.00  0.00    +0.000 HD
ENDBRANCH  13  24
TORSDOF 4
ENDMDL
MODEL 6
REMARK VINA RESULT:      -6.5      2.900      4.561
REMARK  Name = 
REMARK  6 active torsions:
REMARK  status: ('A' for Active; 'I' for Inactive)
REMARK    1  A    between atoms: C_1  and  O_2
REMARK    2  A    between atoms: O_2  and  C_3
REMARK    3  A    between atoms: C_6  and  C_7
REMARK    4  A    between atoms: C_19  and  O_20
REMARK    5  A    between atoms: C_22  and  O_23
REMARK    6  A    between atoms: O_23  and  C_24
REMARK                            x       y       z     vdW  Elec       q    Type
REMARK                         _______ _______ _______ _____ _____    ______ ____
ROOT
ATOM      1  C   UNL     1       2.025   7.723  19.596  0.00  0.00    +0.000 A 
ATOM      2  O   UNL     1       1.185   8.202  20.608  0.00  0.00    +0.000 OA
ATOM      3  C   UNL     1       0.768   9.514  20.554  0.00  0.00    +0.000 A 
ATOM      4  C   UNL     1       0.213  10.124  21.682  0.00  0.00    +0.000 A 
ATOM      5 BR   UNL     1       0.160   9.237  23.356  0.00  0.00    +0.000 Br
ATOM      6  C   UNL     1      -0.263  11.443  21.615  0.00  0.00    +0.000 A 
ATOM      7  C   UNL     1      -0.215  12.138  20.404  0.00  0.00    +0.000 A 
ATOM      8 BR   UNL     1      -0.859  13.912  20.306  0.00  0.00    +0.000 Br
ATOM      9  C   UNL     1       0.347  11.552  19.279  0.00  0.00    +0.000 A 
ATOM     10  C   UNL     1       0.873  10.264  19.384  0.00  0.00    +0.000 A 
ATOM     11  C   UNL     1       1.667   9.727  18.286  0.00  0.00    +0.000 A 
ATOM     12  O   UNL     1       1.767  10.282  17.194  0.00  0.00    +0.000 OA
ATOM     13  C   UNL     1       2.407   8.475  18.546  0.00  0.00    +0.000 A 
ENDROOT
BRANCH   1  17
ATOM     14  C   UNL     1       3.043   3.556  20.139  0.00  0.00    +0.000 A 
ATOM     15  C   UNL     1       1.779   4.045  20.463  0.00  0.00    +0.000 A 
ATOM     16  C   UNL     1       1.461   5.385  20.252  0.00  0.00    +0.000 A 
ATOM     17  C   UNL     1       2.389   6.291  19.718  0.00  0.00    +0.000 A 
ATOM     18  C   UNL     1       3.675   5.803  19.447  0.00  0.00    +0.000 A 
ATOM     19  C   UNL     1       4.018   4.449  19.662  0.00  0.00    +0.000 A 
BRANCH  14  21
ATOM     20  C   UNL     1       3.499   1.465  19.130  0.00  0.00    +0.000 C 
ATOM     21  O   UNL     1       3.344   2.233  20.324  0.00  0.00    +0.000 OA
ENDBRANCH  14  21
BRANCH  19  22
ATOM     22  O   UNL     1       5.325   4.182  19.347  0.00  0.00    +0.000 OA
ATOM     23  C   UNL     1       6.194   5.268  19.053  0.00  0.00    +0.000 C 
ENDBRANCH  19  22
ENDBRANCH   1  17
BRANCH  13  24
ATOM     24  O   UNL     1       3.385   8.133  17.635  0.00  0.00    +0.000 OA
ATOM     25  H   UNL     1       3.983   7.525  18.116  0.00  0.00    +0.000 HD
ENDBRANCH  13  24
TORSDOF 4
ENDMDL
MODEL 7
REMARK VINA RESULT:      -6.4      2.587      4.751
REMARK  Name = 
REMARK  6 active torsions:
REMARK  status: ('A' for Active; 'I' for Inactive)
REMARK    1  A    between atoms: C_1  and  O_2
REMARK    2  A    between atoms: O_2  and  C_3
REMARK    3  A    between atoms: C_6  and  C_7
REMARK    4  A    between atoms: C_19  and  O_20
REMARK    5  A    between atoms: C_22  and  O_23
REMARK    6  A    between atoms: O_23  and  C_24
REMARK                            x       y       z     vdW  Elec       q    Type
REMARK                         _______ _______ _______ _____ _____    ______ ____
ROOT
ATOM      1  C   UNL     1       1.940   7.813  19.449  0.00  0.00    +0.000 A 
ATOM      2  O   UNL     1       1.074   8.322  20.424  0.00  0.00    +0.000 OA
ATOM      3  C   UNL     1       0.771   9.665  20.399  0.00  0.00    +0.000 A 
ATOM      4  C   UNL     1       0.192  10.277  21.514  0.00  0.00    +0.000 A 
ATOM      5 BR   UNL     1      -0.050   9.335  23.141  0.00  0.00    +0.000 Br
ATOM      6  C   UNL     1      -0.169  11.634  21.473  0.00  0.00    +0.000 A 
ATOM      7  C   UNL     1       0.019  12.367  20.300  0.00  0.00    +0.000 A 
ATOM      8 BR   UNL     1      -0.469  14.192  20.237  0.00  0.00    +0.000 Br
ATOM      9  C   UNL     1       0.607  11.779  19.190  0.00  0.00    +0.000 A 
ATOM     10  C   UNL     1       1.017  10.448  19.272  0.00  0.00    +0.000 A 
ATOM     11  C   UNL     1       1.839   9.888  18.207  0.00  0.00    +0.000 A 
ATOM     12  O   UNL     1       2.059  10.474  17.148  0.00  0.00    +0.000 OA
ATOM     13  C   UNL     1       2.453   8.568  18.459  0.00  0.00    +0.000 A 
ENDROOT
BRANCH   1  17
ATOM     14  C   UNL     1       2.767   3.585  19.821  0.00  0.00    +0.000 A 
ATOM     15  C   UNL     1       2.411   4.357  20.924  0.00  0.00    +0.000 A 
ATOM     16  C   UNL     1       2.119   5.712  20.778  0.00  0.00    +0.000 A 
ATOM     17  C   UNL     1       2.177   6.351  19.532  0.00  0.00    +0.000 A 
ATOM     18  C   UNL     1       2.590   5.580  18.437  0.00  0.00    +0.000 A 
ATOM     19  C   UNL     1       2.898   4.207  18.567  0.00  0.00    +0.000 A 
BRANCH  14  21
ATOM     20  C   UNL     1       4.398   1.909  20.184  0.00  0.00    +0.000 C 
ATOM     21  O   UNL     1       3.029   2.248  19.963  0.00  0.00    +0.000 OA
ENDBRANCH  14  21
BRANCH  19  22
ATOM     22  O   UNL     1       3.293   3.642  17.382  0.00  0.00    +0.000 OA
ATOM     23  C   UNL     1       4.476   4.121  16.756  0.00  0.00    +0.000 C 
ENDBRANCH  19  22
ENDBRANCH   1  17
BRANCH  13  24
ATOM     24  O   UNL     1       3.461   8.180  17.601  0.00  0.00    +0.000 OA
ATOM     25  H   UNL     1       3.797   7.335  17.964  0.00  0.00    +0.000 HD
ENDBRANCH  13  24
TORSDOF 4
ENDMDL
MODEL 8
REMARK VINA RESULT:      -6.4      2.511      4.698
REMARK  Name = 
REMARK  6 active torsions:
REMARK  status: ('A' for Active; 'I' for Inactive)
REMARK    1  A    between atoms: C_1  and  O_2
REMARK    2  A    between atoms: O_2  and  C_3
REMARK    3  A    between atoms: C_6  and  C_7
REMARK    4  A    between atoms: C_19  and  O_20
REMARK    5  A    between atoms: C_22  and  O_23
REMARK    6  A    between atoms: O_23  and  C_24
REMARK                            x       y       z     vdW  Elec       q    Type
REMARK                         _______ _______ _______ _____ _____    ______ ____
ROOT
ATOM      1  C   UNL     1       1.264   9.041  19.415  0.00  0.00    +0.000 A 
ATOM      2  O   UNL     1       0.662   9.070  20.679  0.00  0.00    +0.000 OA
ATOM      3  C   UNL     1      -0.119  10.153  21.013  0.00  0.00    +0.000 A 
ATOM      4  C   UNL     1      -0.465  10.387  22.347  0.00  0.00    +0.000 A 
ATOM      5 BR   UNL     1       0.248   9.333  23.750  0.00  0.00    +0.000 Br
ATOM      6  C   UNL     1      -1.307  11.460  22.684  0.00  0.00    +0.000 A 
ATOM      7  C   UNL     1      -1.830  12.275  21.679  0.00  0.00    +0.000 A 
ATOM      8 BR   UNL     1      -2.967  13.717  22.128  0.00  0.00    +0.000 Br
ATOM      9  C   UNL     1      -1.484  12.066  20.353  0.00  0.00    +0.000 A 
ATOM     10  C   UNL     1      -0.595  11.035  20.044  0.00  0.00    +0.000 A 
ATOM     11  C   UNL     1      -0.044  10.947  18.698  0.00  0.00    +0.000 A 
ATOM     12  O   UNL     1      -0.444  11.636  17.761  0.00  0.00    +0.000 OA
ATOM     13  C   UNL     1       1.074  10.004  18.493  0.00  0.00    +0.000 A 
ENDROOT
BRANCH   1  17
ATOM     14  C   UNL     1       3.651   5.496  18.759  0.00  0.00    +0.000 A 
ATOM     15  C   UNL     1       2.814   5.616  19.866  0.00  0.00    +0.000 A 
ATOM     16  C   UNL     1       2.030   6.754  20.043  0.00  0.00    +0.000 A 
ATOM     17  C   UNL     1       2.053   7.818  19.131  0.00  0.00    +0.000 A 
ATOM     18  C   UNL     1       2.939   7.714  18.050  0.00  0.00    +0.000 A 
ATOM     19  C   UNL     1       3.748   6.571  17.857  0.00  0.00    +0.000 A 
BRANCH  14  21
ATOM     20  C   UNL     1       3.742   3.293  17.899  0.00  0.00    +0.000 C 
ATOM     21  O   UNL     1       4.402   4.365  18.573  0.00  0.00    +0.000 OA
ENDBRANCH  14  21
BRANCH  19  22
ATOM     22  O   UNL     1       4.550   6.675  16.751  0.00  0.00    +0.000 OA
ATOM     23  C   UNL     1       5.937   6.930  16.933  0.00  0.00    +0.000 C 
ENDBRANCH  19  22
ENDBRANCH   1  17
BRANCH  13  24
ATOM     24  O   UNL     1       1.790  10.138  17.322  0.00  0.00    +0.000 OA
ATOM     25  H   UNL     1       2.247   9.280  17.200  0.00  0.00    +0.000 HD
ENDBRANCH  13  24
TORSDOF 4
ENDMDL
MODEL 9
REMARK VINA RESULT:      -6.4      6.524     11.633
REMARK  Name = 
REMARK  6 active torsions:
REMARK  status: ('A' for Active; 'I' for Inactive)
REMARK    1  A    between atoms: C_1  and  O_2
REMARK    2  A    between atoms: O_2  and  C_3
REMARK    3  A    between atoms: C_6  and  C_7
REMARK    4  A    between atoms: C_19  and  O_20
REMARK    5  A    between atoms: C_22  and  O_23
REMARK    6  A    between atoms: O_23  and  C_24
REMARK                            x       y       z     vdW  Elec       q    Type
REMARK                         _______ _______ _______ _____ _____    ______ ____
ROOT
ATOM      1  C   UNL     1      -2.519  12.304  20.855  0.00  0.00    +0.000 A 
ATOM      2  O   UNL     1      -1.461  11.624  21.472  0.00  0.00    +0.000 OA
ATOM      3  C   UNL     1      -0.661  10.810  20.700  0.00  0.00    +0.000 A 
ATOM      4  C   UNL     1       0.182   9.874  21.305  0.00  0.00    +0.000 A 
ATOM      5 BR   UNL     1       0.143   9.577  23.176  0.00  0.00    +0.000 Br
ATOM      6  C   UNL     1       1.037   9.080  20.524  0.00  0.00    +0.000 A 
ATOM      7  C   UNL     1       1.073   9.252  19.139  0.00  0.00    +0.000 A 
ATOM      8 BR   UNL     1       2.227   8.191  18.084  0.00  0.00    +0.000 Br
ATOM      9  C   UNL     1       0.231  10.166  18.522  0.00  0.00    +0.000 A 
ATOM     10  C   UNL     1      -0.658  10.899  19.309  0.00  0.00    +0.000 A 
ATOM     11  C   UNL     1      -1.700  11.686  18.663  0.00  0.00    +0.000 A 
ATOM     12  O   UNL     1      -1.744  11.877  17.449  0.00  0.00    +0.000 OA
ATOM     13  C   UNL     1      -2.761  12.233  19.532  0.00  0.00    +0.000 A 
ENDROOT
BRANCH   1  17
ATOM     14  C   UNL     1      -4.629  14.917  23.578  0.00  0.00    +0.000 A 
ATOM     15  C   UNL     1      -3.563  15.376  22.808  0.00  0.00    +0.000 A 
ATOM     16  C   UNL     1      -2.916  14.525  21.913  0.00  0.00    +0.000 A 
ATOM     17  C   UNL     1      -3.299  13.186  21.757  0.00  0.00    +0.000 A 
ATOM     18  C   UNL     1      -4.335  12.718  22.576  0.00  0.00    +0.000 A 
ATOM     19  C   UNL     1      -4.999  13.563  23.494  0.00  0.00    +0.000 A 
BRANCH  14  21
ATOM     20  C   UNL     1      -6.310  16.560  23.853  0.00  0.00    +0.000 C 
ATOM     21  O   UNL     1      -5.281  15.762  24.437  0.00  0.00    +0.000 OA
ENDBRANCH  14  21
BRANCH  19  22
ATOM     22  O   UNL     1      -5.970  12.907  24.205  0.00  0.00    +0.000 OA
ATOM     23  C   UNL     1      -7.260  12.758  23.626  0.00  0.00    +0.000 C 
ENDBRANCH  19  22
ENDBRANCH   1  17
BRANCH  13  24
ATOM     24  O   UNL     1      -3.894  12.706  18.904  0.00  0.00    +0.000 OA
ATOM     25  H   UNL     1      -4.120  12.027  18.235  0.00  0.00    +0.000 HD
ENDBRANCH  13  24
TORSDOF 4
ENDMDL
