MODEL 1
REMARK VINA RESULT:      -7.4      0.000      0.000
REMARK  Name = 
REMARK  7 active torsions:
REMARK  status: ('A' for Active; 'I' for Inactive)
REMARK    1  A    between atoms: C_1  and  C_2
REMARK    2  A    between atoms: C_2  and  C_3
REMARK    3  A    between atoms: C_2  and  C_4
REMARK    4  A    between atoms: C_2  and  C_5
REMARK    5  A    between atoms: N_17  and  C_18
REMARK    6  A    between atoms: C_18  and  C_19
REMARK    7  A    between atoms: C_19  and  C_20
REMARK                            x       y       z     vdW  Elec       q    Type
REMARK                         _______ _______ _______ _____ _____    ______ ____
ROOT
ATOM      1  C   UNL     1      -5.542  12.505  20.583  0.00  0.00    +0.000 A 
ATOM      2  C   UNL     1      -4.570  12.901  21.518  0.00  0.00    +0.000 A 
ATOM      3  C   UNL     1      -3.209  12.872  21.205  0.00  0.00    +0.000 A 
ATOM      4  I   UNL     1      -1.841  13.454  22.683  0.00  0.00    +0.000 I 
ATOM      5  C   UNL     1      -2.791  12.434  19.951  0.00  0.00    +0.000 A 
ATOM      6  C   UNL     1      -3.731  12.059  18.988  0.00  0.00    +0.000 A 
ATOM      7  C   UNL     1      -5.093  12.082  19.316  0.00  0.00    +0.000 A 
ATOM      8  C   UNL     1      -3.281  11.568  17.640  0.00  0.00    +0.000 C 
ATOM      9  N   UNL     1      -1.850  11.763  17.414  0.00  0.00    +0.000 NA
ATOM     10  C   UNL     1      -1.092  11.455  18.636  0.00  0.00    +0.000 C 
ATOM     11  C   UNL     1      -1.246   9.989  19.110  0.00  0.00    +0.000 C 
ATOM     12  C   UNL     1      -0.287   9.674  20.261  0.00  0.00    +0.000 C 
ATOM     13  N   UNL     1       1.124   9.938  19.930  0.00  0.00    +0.000 NA
ATOM     14  C   UNL     1       1.272  11.345  19.531  0.00  0.00    +0.000 C 
ATOM     15  C   UNL     1       0.392  11.739  18.341  0.00  0.00    +0.000 C 
ATOM     16  O   UNL     1      -1.451  12.365  19.689  0.00  0.00    +0.000 OA
ATOM     17  H   UNL     1      -1.699  12.754  17.227  0.00  0.00    +0.000 HD
ENDROOT
BRANCH   1  19
ATOM     18  C   UNL     1      -7.793  13.711  20.221  0.00  0.00    +0.000 C 
ATOM     19  C   UNL     1      -7.048  12.538  20.896  0.00  0.00    +0.000 C 
ATOM     20  C   UNL     1      -7.272  12.669  22.417  0.00  0.00    +0.000 C 
ATOM     21  C   UNL     1      -7.694  11.230  20.394  0.00  0.00    +0.000 C 
ENDBRANCH   1  19
BRANCH  13  22
ATOM     22  C   UNL     1       1.622   8.969  18.934  0.00  0.00    +0.000 C 
BRANCH  22  23
ATOM     23  C   UNL     1       2.045   7.620  19.532  0.00  0.00    +0.000 C 
BRANCH  23  24
ATOM     24  C   UNL     1       2.893   6.834  18.561  0.00  0.00    +0.000 A 
ATOM     25  C   UNL     1       3.782   7.497  17.702  0.00  0.00    +0.000 A 
ATOM     26  C   UNL     1       4.561   6.775  16.801  0.00  0.00    +0.000 A 
ATOM     27  C   UNL     1       4.455   5.387  16.745  0.00  0.00    +0.000 A 
ATOM     28  C   UNL     1       3.561   4.722  17.586  0.00  0.00    +0.000 A 
ATOM     29  C   UNL     1       2.780   5.442  18.487  0.00  0.00    +0.000 A 
ENDBRANCH  23  24
ENDBRANCH  22  23
ENDBRANCH  13  22
TORSDOF 4
ENDMDL
MODEL 2
REMARK VINA RESULT:      -7.4      1.193      1.584
REMARK  Name = 
REMARK  7 active torsions:
REMARK  status: ('A' for Active; 'I' for Inactive)
REMARK    1  A    between atoms: C_1  and  C_2
REMARK    2  A    between atoms: C_2  and  C_3
REMARK    3  A    between atoms: C_2  and  C_4
REMARK    4  A    between atoms: C_2  and  C_5
REMARK    5  A    between atoms: N_17  and  C_18
REMARK    6  A    between atoms: C_18  and  C_19
REMARK    7  A    between atoms: C_19  and  C_20
REMARK                            x       y       z     vdW  Elec       q    Type
REMARK                         _______ _______ _______ _____ _____    ______ ____
ROOT
ATOM      1  C   UNL     1      -5.450  12.512  19.701  0.00  0.00    +0.000 A 
ATOM      2  C   UNL     1      -4.625  13.034  20.714  0.00  0.00    +0.000 A 
ATOM      3  C   UNL     1      -3.235  12.909  20.652  0.00  0.00    +0.000 A 
ATOM      4  I   UNL     1      -2.100  13.696  22.228  0.00  0.00    +0.000 I 
ATOM      5  C   UNL     1      -2.641  12.247  19.579  0.00  0.00    +0.000 A 
ATOM      6  C   UNL     1      -3.429  11.740  18.543  0.00  0.00    +0.000 A 
ATOM      7  C   UNL     1      -4.823  11.861  18.620  0.00  0.00    +0.000 A 
ATOM      8  C   UNL     1      -2.791  11.009  17.394  0.00  0.00    +0.000 C 
ATOM      9  N   UNL     1      -1.333  11.118  17.392  0.00  0.00    +0.000 NA
ATOM     10  C   UNL     1      -0.809  11.004  18.761  0.00  0.00    +0.000 C 
ATOM     11  C   UNL     1      -1.127   9.647  19.437  0.00  0.00    +0.000 C 
ATOM     12  C   UNL     1      -0.393   9.508  20.774  0.00  0.00    +0.000 C 
ATOM     13  N   UNL     1       1.066   9.667  20.655  0.00  0.00    +0.000 NA
ATOM     14  C   UNL     1       1.362  10.978  20.060  0.00  0.00    +0.000 C 
ATOM     15  C   UNL     1       0.718  11.186  18.686  0.00  0.00    +0.000 C 
ATOM     16  O   UNL     1      -1.283  12.093  19.570  0.00  0.00    +0.000 OA
ATOM     17  H   UNL     1      -1.094  12.056  17.072  0.00  0.00    +0.000 HD
ENDROOT
BRANCH   1  19
ATOM     18  C   UNL     1      -7.604  12.986  18.365  0.00  0.00    +0.000 C 
ATOM     19  C   UNL     1      -6.982  12.644  19.738  0.00  0.00    +0.000 C 
ATOM     20  C   UNL     1      -7.396  13.762  20.718  0.00  0.00    +0.000 C 
ATOM     21  C   UNL     1      -7.591  11.305  20.202  0.00  0.00    +0.000 C 
ENDBRANCH   1  19
BRANCH  13  22
ATOM     22  C   UNL     1       1.664   8.525  19.935  0.00  0.00    +0.000 C 
BRANCH  22  23
ATOM     23  C   UNL     1       1.879   7.280  20.807  0.00  0.00    +0.000 C 
BRANCH  23  24
ATOM     24  C   UNL     1       1.824   6.018  19.982  0.00  0.00    +0.000 A 
ATOM     25  C   UNL     1       2.279   6.021  18.655  0.00  0.00    +0.000 A 
ATOM     26  C   UNL     1       2.223   4.859  17.888  0.00  0.00    +0.000 A 
ATOM     27  C   UNL     1       1.707   3.688  18.437  0.00  0.00    +0.000 A 
ATOM     28  C   UNL     1       1.238   3.681  19.751  0.00  0.00    +0.000 A 
ATOM     29  C   UNL     1       1.292   4.841  20.520  0.00  0.00    +0.000 A 
ENDBRANCH  23  24
ENDBRANCH  22  23
ENDBRANCH  13  22
TORSDOF 4
ENDMDL
MODEL 3
REMARK VINA RESULT:      -7.3      0.989      1.751
REMARK  Name = 
REMARK  7 active torsions:
REMARK  status: ('A' for Active; 'I' for Inactive)
REMARK    1  A    between atoms: C_1  and  C_2
REMARK    2  A    between atoms: C_2  and  C_3
REMARK    3  A    between atoms: C_2  and  C_4
REMARK    4  A    between atoms: C_2  and  C_5
REMARK    5  A    between atoms: N_17  and  C_18
REMARK    6  A    between atoms: C_18  and  C_19
REMARK    7  A    between atoms: C_19  and  C_20
REMARK                            x       y       z     vdW  Elec       q    Type
REMARK                         _______ _______ _______ _____ _____    ______ ____
ROOT
ATOM      1  C   UNL     1      -5.313  12.504  20.560  0.00  0.00    +0.000 A 
ATOM      2  C   UNL     1      -4.342  12.786  21.537  0.00  0.00    +0.000 A 
ATOM      3  C   UNL     1      -2.977  12.682  21.254  0.00  0.00    +0.000 A 
ATOM      4  I   UNL     1      -1.613  13.095  22.791  0.00  0.00    +0.000 I 
ATOM      5  C   UNL     1      -2.557  12.284  19.987  0.00  0.00    +0.000 A 
ATOM      6  C   UNL     1      -3.494  12.022  18.985  0.00  0.00    +0.000 A 
ATOM      7  C   UNL     1      -4.860  12.118  19.283  0.00  0.00    +0.000 A 
ATOM      8  C   UNL     1      -3.042  11.573  17.623  0.00  0.00    +0.000 C 
ATOM      9  N   UNL     1      -1.596  11.685  17.440  0.00  0.00    +0.000 NA
ATOM     10  C   UNL     1      -0.892  11.264  18.661  0.00  0.00    +0.000 C 
ATOM     11  C   UNL     1      -1.152   9.789  19.051  0.00  0.00    +0.000 C 
ATOM     12  C   UNL     1      -0.245   9.352  20.205  0.00  0.00    +0.000 C 
ATOM     13  N   UNL     1       1.187   9.539  19.921  0.00  0.00    +0.000 NA
ATOM     14  C   UNL     1       1.436  10.952  19.601  0.00  0.00    +0.000 C 
ATOM     15  C   UNL     1       0.616  11.464  18.414  0.00  0.00    +0.000 C 
ATOM     16  O   UNL     1      -1.218  12.140  19.753  0.00  0.00    +0.000 OA
ATOM     17  H   UNL     1      -1.376  12.672  17.309  0.00  0.00    +0.000 HD
ENDROOT
BRANCH   1  19
ATOM     18  C   UNL     1      -7.158  12.791  22.340  0.00  0.00    +0.000 C 
ATOM     19  C   UNL     1      -6.821  12.620  20.841  0.00  0.00    +0.000 C 
ATOM     20  C   UNL     1      -7.553  11.354  20.350  0.00  0.00    +0.000 C 
ATOM     21  C   UNL     1      -7.377  13.853  20.098  0.00  0.00    +0.000 C 
ENDBRANCH   1  19
BRANCH  13  22
ATOM     22  C   UNL     1       1.647   8.592  18.886  0.00  0.00    +0.000 C 
BRANCH  22  23
ATOM     23  C   UNL     1       2.702   7.591  19.378  0.00  0.00    +0.000 C 
BRANCH  23  24
ATOM     24  C   UNL     1       2.177   6.177  19.334  0.00  0.00    +0.000 A 
ATOM     25  C   UNL     1       2.168   5.465  18.126  0.00  0.00    +0.000 A 
ATOM     26  C   UNL     1       1.679   4.161  18.080  0.00  0.00    +0.000 A 
ATOM     27  C   UNL     1       1.189   3.561  19.237  0.00  0.00    +0.000 A 
ATOM     28  C   UNL     1       1.180   4.270  20.440  0.00  0.00    +0.000 A 
ATOM     29  C   UNL     1       1.668   5.573  20.488  0.00  0.00    +0.000 A 
ENDBRANCH  23  24
ENDBRANCH  22  23
ENDBRANCH  13  22
TORSDOF 4
ENDMDL
MODEL 4
REMARK VINA RESULT:      -7.3      0.797      1.231
REMARK  Name = 
REMARK  7 active torsions:
REMARK  status: ('A' for Active; 'I' for Inactive)
REMARK    1  A    between atoms: C_1  and  C_2
REMARK    2  A    between atoms: C_2  and  C_3
REMARK    3  A    between atoms: C_2  and  C_4
REMARK    4  A    between atoms: C_2  and  C_5
REMARK    5  A    between atoms: N_17  and  C_18
REMARK    6  A    between atoms: C_18  and  C_19
REMARK    7  A    between atoms: C_19  and  C_20
REMARK                            x       y       z     vdW  Elec       q    Type
REMARK                         _______ _______ _______ _____ _____    ______ ____
ROOT
ATOM      1  C   UNL     1      -5.341  12.803  21.503  0.00  0.00    +0.000 A 
ATOM      2  C   UNL     1      -4.190  13.110  22.249  0.00  0.00    +0.000 A 
ATOM      3  C   UNL     1      -2.917  13.054  21.673  0.00  0.00    +0.000 A 
ATOM      4  I   UNL     1      -1.264  13.501  22.881  0.00  0.00    +0.000 I 
ATOM      5  C   UNL     1      -2.772  12.678  20.340  0.00  0.00    +0.000 A 
ATOM      6  C   UNL     1      -3.896  12.393  19.562  0.00  0.00    +0.000 A 
ATOM      7  C   UNL     1      -5.166  12.441  20.153  0.00  0.00    +0.000 A 
ATOM      8  C   UNL     1      -3.739  11.968  18.128  0.00  0.00    +0.000 C 
ATOM      9  N   UNL     1      -2.373  12.129  17.635  0.00  0.00    +0.000 NA
ATOM     10  C   UNL     1      -1.406  11.724  18.667  0.00  0.00    +0.000 C 
ATOM     11  C   UNL     1      -1.529  10.238  19.085  0.00  0.00    +0.000 C 
ATOM     12  C   UNL     1      -0.379   9.824  20.007  0.00  0.00    +0.000 C 
ATOM     13  N   UNL     1       0.951  10.060  19.419  0.00  0.00    +0.000 NA
ATOM     14  C   UNL     1       1.080  11.483  19.072  0.00  0.00    +0.000 C 
ATOM     15  C   UNL     1       0.004  11.976  18.101  0.00  0.00    +0.000 C 
ATOM     16  O   UNL     1      -1.512  12.581  19.816  0.00  0.00    +0.000 OA
ATOM     17  H   UNL     1      -2.217  13.124  17.474  0.00  0.00    +0.000 HD
ENDROOT
BRANCH   1  19
ATOM     18  C   UNL     1      -7.714  11.793  21.547  0.00  0.00    +0.000 C 
ATOM     19  C   UNL     1      -6.754  12.866  22.108  0.00  0.00    +0.000 C 
ATOM     20  C   UNL     1      -7.393  14.242  21.825  0.00  0.00    +0.000 C 
ATOM     21  C   UNL     1      -6.658  12.650  23.633  0.00  0.00    +0.000 C 
ENDBRANCH   1  19
BRANCH  13  22
ATOM     22  C   UNL     1       1.203   9.136  18.296  0.00  0.00    +0.000 C 
BRANCH  22  23
ATOM     23  C   UNL     1       2.687   8.975  17.939  0.00  0.00    +0.000 C 
BRANCH  23  24
ATOM     24  C   UNL     1       3.062   7.519  17.807  0.00  0.00    +0.000 A 
ATOM     25  C   UNL     1       4.281   7.155  17.215  0.00  0.00    +0.000 A 
ATOM     26  C   UNL     1       4.628   5.812  17.085  0.00  0.00    +0.000 A 
ATOM     27  C   UNL     1       3.759   4.822  17.539  0.00  0.00    +0.000 A 
ATOM     28  C   UNL     1       2.539   5.177  18.115  0.00  0.00    +0.000 A 
ATOM     29  C   UNL     1       2.189   6.519  18.245  0.00  0.00    +0.000 A 
ENDBRANCH  23  24
ENDBRANCH  22  23
ENDBRANCH  13  22
TORSDOF 4
ENDMDL
MODEL 5
REMARK VINA RESULT:      -7.3      1.029      1.535
REMARK  Name = 
REMARK  7 active torsions:
REMARK  status: ('A' for Active; 'I' for Inactive)
REMARK    1  A    between atoms: C_1  and  C_2
REMARK    2  A    between atoms: C_2  and  C_3
REMARK    3  A    between atoms: C_2  and  C_4
REMARK    4  A    between atoms: C_2  and  C_5
REMARK    5  A    between atoms: N_17  and  C_18
REMARK    6  A    between atoms: C_18  and  C_19
REMARK    7  A    between atoms: C_19  and  C_20
REMARK                            x       y       z     vdW  Elec       q    Type
REMARK                         _______ _______ _______ _____ _____    ______ ____
ROOT
ATOM      1  C   UNL     1      -5.443  12.891  21.878  0.00  0.00    +0.000 A 
ATOM      2  C   UNL     1      -4.240  13.283  22.491  0.00  0.00    +0.000 A 
ATOM      3  C   UNL     1      -3.028  13.253  21.796  0.00  0.00    +0.000 A 
ATOM      4  I   UNL     1      -1.288  13.828  22.814  0.00  0.00    +0.000 I 
ATOM      5  C   UNL     1      -2.994  12.819  20.473  0.00  0.00    +0.000 A 
ATOM      6  C   UNL     1      -4.174  12.449  19.824  0.00  0.00    +0.000 A 
ATOM      7  C   UNL     1      -5.382  12.472  20.534  0.00  0.00    +0.000 A 
ATOM      8  C   UNL     1      -4.136  11.961  18.402  0.00  0.00    +0.000 C 
ATOM      9  N   UNL     1      -2.833  12.156  17.770  0.00  0.00    +0.000 NA
ATOM     10  C   UNL     1      -1.753  11.843  18.719  0.00  0.00    +0.000 C 
ATOM     11  C   UNL     1      -1.765  10.375  19.212  0.00  0.00    +0.000 C 
ATOM     12  C   UNL     1      -0.513  10.056  20.034  0.00  0.00    +0.000 C 
ATOM     13  N   UNL     1       0.741  10.319  19.308  0.00  0.00    +0.000 NA
ATOM     14  C   UNL     1       0.769  11.727  18.887  0.00  0.00    +0.000 C 
ATOM     15  C   UNL     1      -0.417  12.126  18.005  0.00  0.00    +0.000 C 
ATOM     16  O   UNL     1      -1.788  12.750  19.833  0.00  0.00    +0.000 OA
ATOM     17  H   UNL     1      -2.740  13.147  17.550  0.00  0.00    +0.000 HD
ENDROOT
BRANCH   1  19
ATOM     18  C   UNL     1      -7.499  14.297  22.546  0.00  0.00    +0.000 C 
ATOM     19  C   UNL     1      -6.792  12.925  22.615  0.00  0.00    +0.000 C 
ATOM     20  C   UNL     1      -6.591  12.589  24.108  0.00  0.00    +0.000 C 
ATOM     21  C   UNL     1      -7.738  11.885  21.979  0.00  0.00    +0.000 C 
ENDBRANCH   1  19
BRANCH  13  22
ATOM     22  C   UNL     1       0.926   9.353  18.207  0.00  0.00    +0.000 C 
BRANCH  22  23
ATOM     23  C   UNL     1       2.391   9.143  17.799  0.00  0.00    +0.000 C 
BRANCH  23  24
ATOM     24  C   UNL     1       2.872   7.764  18.180  0.00  0.00    +0.000 A 
ATOM     25  C   UNL     1       2.347   7.120  19.310  0.00  0.00    +0.000 A 
ATOM     26  C   UNL     1       2.793   5.849  19.668  0.00  0.00    +0.000 A 
ATOM     27  C   UNL     1       3.772   5.216  18.905  0.00  0.00    +0.000 A 
ATOM     28  C   UNL     1       4.310   5.858  17.789  0.00  0.00    +0.000 A 
ATOM     29  C   UNL     1       3.866   7.128  17.430  0.00  0.00    +0.000 A 
ENDBRANCH  23  24
ENDBRANCH  22  23
ENDBRANCH  13  22
TORSDOF 4
ENDMDL
MODEL 6
REMARK VINA RESULT:      -7.1      1.198      1.762
REMARK  Name = 
REMARK  7 active torsions:
REMARK  status: ('A' for Active; 'I' for Inactive)
REMARK    1  A    between atoms: C_1  and  C_2
REMARK    2  A    between atoms: C_2  and  C_3
REMARK    3  A    between atoms: C_2  and  C_4
REMARK    4  A    between atoms: C_2  and  C_5
REMARK    5  A    between atoms: N_17  and  C_18
REMARK    6  A    between atoms: C_18  and  C_19
REMARK    7  A    between atoms: C_19  and  C_20
REMARK                            x       y       z     vdW  Elec       q    Type
REMARK                         _______ _______ _______ _____ _____    ______ ____
ROOT
ATOM      1  C   UNL     1      -5.131  12.889  20.549  0.00  0.00    +0.000 A 
ATOM      2  C   UNL     1      -4.185  13.196  21.543  0.00  0.00    +0.000 A 
ATOM      3  C   UNL     1      -2.821  12.970  21.340  0.00  0.00    +0.000 A 
ATOM      4  I   UNL     1      -1.497  13.434  22.898  0.00  0.00    +0.000 I 
ATOM      5  C   UNL     1      -2.377  12.421  20.139  0.00  0.00    +0.000 A 
ATOM      6  C   UNL     1      -3.286  12.129  19.120  0.00  0.00    +0.000 A 
ATOM      7  C   UNL     1      -4.653  12.349  19.339  0.00  0.00    +0.000 A 
ATOM      8  C   UNL     1      -2.811  11.518  17.831  0.00  0.00    +0.000 C 
ATOM      9  N   UNL     1      -1.354  11.509  17.711  0.00  0.00    +0.000 NA
ATOM     10  C   UNL     1      -0.736  11.162  19.000  0.00  0.00    +0.000 C 
ATOM     11  C   UNL     1      -1.123   9.754  19.515  0.00  0.00    +0.000 C 
ATOM     12  C   UNL     1      -0.302   9.369  20.749  0.00  0.00    +0.000 C 
ATOM     13  N   UNL     1       1.151   9.426  20.520  0.00  0.00    +0.000 NA
ATOM     14  C   UNL     1       1.519  10.780  20.081  0.00  0.00    +0.000 C 
ATOM     15  C   UNL     1       0.791  11.231  18.812  0.00  0.00    +0.000 C 
ATOM     16  O   UNL     1      -1.043  12.161  19.987  0.00  0.00    +0.000 OA
ATOM     17  H   UNL     1      -1.055  12.461  17.499  0.00  0.00    +0.000 HD
ENDROOT
BRANCH   1  19
ATOM     18  C   UNL     1      -7.024  14.633  20.709  0.00  0.00    +0.000 C 
ATOM     19  C   UNL     1      -6.636  13.137  20.742  0.00  0.00    +0.000 C 
ATOM     20  C   UNL     1      -7.099  12.576  22.103  0.00  0.00    +0.000 C 
ATOM     21  C   UNL     1      -7.411  12.433  19.608  0.00  0.00    +0.000 C 
ENDBRANCH   1  19
BRANCH  13  22
ATOM     22  C   UNL     1       1.584   8.353  19.604  0.00  0.00    +0.000 C 
BRANCH  22  23
ATOM     23  C   UNL     1       2.301   7.188  20.300  0.00  0.00    +0.000 C 
BRANCH  23  24
ATOM     24  C   UNL     1       1.942   5.867  19.664  0.00  0.00    +0.000 A 
ATOM     25  C   UNL     1       1.398   4.834  20.440  0.00  0.00    +0.000 A 
ATOM     26  C   UNL     1       1.071   3.611  19.857  0.00  0.00    +0.000 A 
ATOM     27  C   UNL     1       1.292   3.408  18.497  0.00  0.00    +0.000 A 
ATOM     28  C   UNL     1       1.848   4.426  17.722  0.00  0.00    +0.000 A 
ATOM     29  C   UNL     1       2.176   5.649  18.302  0.00  0.00    +0.000 A 
ENDBRANCH  23  24
ENDBRANCH  22  23
ENDBRANCH  13  22
TORSDOF 4
ENDMDL
MODEL 7
REMARK VINA RESULT:      -6.5      3.907      8.667
REMARK  Name = 
REMARK  7 active torsions:
REMARK  status: ('A' for Active; 'I' for Inactive)
REMARK    1  A    between atoms: C_1  and  C_2
REMARK    2  A    between atoms: C_2  and  C_3
REMARK    3  A    between atoms: C_2  and  C_4
REMARK    4  A    between atoms: C_2  and  C_5
REMARK    5  A    between atoms: N_17  and  C_18
REMARK    6  A    between atoms: C_18  and  C_19
REMARK    7  A    between atoms: C_19  and  C_20
REMARK                            x       y       z     vdW  Elec       q    Type
REMARK                         _______ _______ _______ _____ _____    ______ ____
ROOT
ATOM      1  C   UNL     1       1.910   7.289  19.778  0.00  0.00    +0.000 A 
ATOM      2  C   UNL     1       1.311   7.702  20.981  0.00  0.00    +0.000 A 
ATOM      3  C   UNL     1       0.725   8.965  21.103  0.00  0.00    +0.000 A 
ATOM      4  I   UNL     1      -0.114   9.493  22.950  0.00  0.00    +0.000 I 
ATOM      5  C   UNL     1       0.738   9.846  20.024  0.00  0.00    +0.000 A 
ATOM      6  C   UNL     1       1.300   9.459  18.806  0.00  0.00    +0.000 A 
ATOM      7  C   UNL     1       1.895   8.194  18.698  0.00  0.00    +0.000 A 
ATOM      8  C   UNL     1       1.332  10.416  17.647  0.00  0.00    +0.000 C 
ATOM      9  N   UNL     1       0.531  11.617  17.880  0.00  0.00    +0.000 NA
ATOM     10  C   UNL     1       0.698  12.081  19.266  0.00  0.00    +0.000 C 
ATOM     11  C   UNL     1       2.154  12.473  19.619  0.00  0.00    +0.000 C 
ATOM     12  C   UNL     1       2.233  13.133  20.998  0.00  0.00    +0.000 C 
ATOM     13  N   UNL     1       1.361  14.313  21.128  0.00  0.00    +0.000 NA
ATOM     14  C   UNL     1      -0.027  13.923  20.843  0.00  0.00    +0.000 C 
ATOM     15  C   UNL     1      -0.216  13.307  19.453  0.00  0.00    +0.000 C 
ATOM     16  O   UNL     1       0.205  11.095  20.187  0.00  0.00    +0.000 OA
ATOM     17  H   UNL     1      -0.450  11.357  17.783  0.00  0.00    +0.000 HD
ENDROOT
BRANCH   1  19
ATOM     18  C   UNL     1       2.042   5.130  18.373  0.00  0.00    +0.000 C 
ATOM     19  C   UNL     1       2.551   5.902  19.612  0.00  0.00    +0.000 C 
ATOM     20  C   UNL     1       2.256   5.027  20.848  0.00  0.00    +0.000 C 
ATOM     21  C   UNL     1       4.078   6.069  19.457  0.00  0.00    +0.000 C 
ENDBRANCH   1  19
BRANCH  13  22
ATOM     22  C   UNL     1       1.860  15.430  20.303  0.00  0.00    +0.000 C 
BRANCH  22  23
ATOM     23  C   UNL     1       1.090  16.744  20.498  0.00  0.00    +0.000 C 
BRANCH  23  24
ATOM     24  C   UNL     1       0.666  17.331  19.174  0.00  0.00    +0.000 A 
ATOM     25  C   UNL     1      -0.692  17.549  18.900  0.00  0.00    +0.000 A 
ATOM     26  C   UNL     1      -1.087  18.086  17.676  0.00  0.00    +0.000 A 
ATOM     27  C   UNL     1      -0.131  18.402  16.714  0.00  0.00    +0.000 A 
ATOM     28  C   UNL     1       1.221  18.173  16.974  0.00  0.00    +0.000 A 
ATOM     29  C   UNL     1       1.619  17.636  18.196  0.00  0.00    +0.000 A 
ENDBRANCH  23  24
ENDBRANCH  22  23
ENDBRANCH  13  22
TORSDOF 4
ENDMDL
MODEL 8
REMARK VINA RESULT:      -6.5      0.877      1.062
REMARK  Name = 
REMARK  7 active torsions:
REMARK  status: ('A' for Active; 'I' for Inactive)
REMARK    1  A    between atoms: C_1  and  C_2
REMARK    2  A    between atoms: C_2  and  C_3
REMARK    3  A    between atoms: C_2  and  C_4
REMARK    4  A    between atoms: C_2  and  C_5
REMARK    5  A    between atoms: N_17  and  C_18
REMARK    6  A    between atoms: C_18  and  C_19
REMARK    7  A    between atoms: C_19  and  C_20
REMARK                            x       y       z     vdW  Elec       q    Type
REMARK                         _______ _______ _______ _____ _____    ______ ____
ROOT
ATOM      1  C   UNL     1      -5.185  12.727  19.829  0.00  0.00    +0.000 A 
ATOM      2  C   UNL     1      -4.198  13.317  20.638  0.00  0.00    +0.000 A 
ATOM      3  C   UNL     1      -2.840  13.068  20.422  0.00  0.00    +0.000 A 
ATOM      4  I   UNL     1      -1.451  13.974  21.705  0.00  0.00    +0.000 I 
ATOM      5  C   UNL     1      -2.443  12.212  19.398  0.00  0.00    +0.000 A 
ATOM      6  C   UNL     1      -3.395  11.630  18.558  0.00  0.00    +0.000 A 
ATOM      7  C   UNL     1      -4.755  11.879  18.790  0.00  0.00    +0.000 A 
ATOM      8  C   UNL     1      -2.969  10.691  17.464  0.00  0.00    +0.000 C 
ATOM      9  N   UNL     1      -1.521  10.675  17.262  0.00  0.00    +0.000 NA
ATOM     10  C   UNL     1      -0.824  10.714  18.556  0.00  0.00    +0.000 C 
ATOM     11  C   UNL     1      -1.134   9.500  19.466  0.00  0.00    +0.000 C 
ATOM     12  C   UNL     1      -0.235   9.491  20.706  0.00  0.00    +0.000 C 
ATOM     13  N   UNL     1       1.201   9.508  20.382  0.00  0.00    +0.000 NA
ATOM     14  C   UNL     1       1.498  10.691  19.561  0.00  0.00    +0.000 C 
ATOM     15  C   UNL     1       0.688  10.754  18.263  0.00  0.00    +0.000 C 
ATOM     16  O   UNL     1      -1.111  11.944  19.242  0.00  0.00    +0.000 OA
ATOM     17  H   UNL     1      -1.267  11.534  16.775  0.00  0.00    +0.000 HD
ENDROOT
BRANCH   1  19
ATOM     18  C   UNL     1      -7.548  12.658  18.799  0.00  0.00    +0.000 C 
ATOM     19  C   UNL     1      -6.685  12.993  20.037  0.00  0.00    +0.000 C 
ATOM     20  C   UNL     1      -6.922  14.481  20.369  0.00  0.00    +0.000 C 
ATOM     21  C   UNL     1      -7.193  12.121  21.204  0.00  0.00    +0.000 C 
ENDBRANCH   1  19
BRANCH  13  22
ATOM     22  C   UNL     1       1.620   8.229  19.776  0.00  0.00    +0.000 C 
BRANCH  22  23
ATOM     23  C   UNL     1       2.337   8.380  18.427  0.00  0.00    +0.000 C 
BRANCH  23  24
ATOM     24  C   UNL     1       2.962   7.077  17.991  0.00  0.00    +0.000 A 
ATOM     25  C   UNL     1       4.216   7.071  17.363  0.00  0.00    +0.000 A 
ATOM     26  C   UNL     1       4.793   5.870  16.954  0.00  0.00    +0.000 A 
ATOM     27  C   UNL     1       4.119   4.669  17.161  0.00  0.00    +0.000 A 
ATOM     28  C   UNL     1       2.864   4.670  17.770  0.00  0.00    +0.000 A 
ATOM     29  C   UNL     1       2.285   5.868  18.180  0.00  0.00    +0.000 A 
ENDBRANCH  23  24
ENDBRANCH  22  23
ENDBRANCH  13  22
TORSDOF 4
ENDMDL
MODEL 9
REMARK VINA RESULT:      -6.4      2.374      3.507
REMARK  Name = 
REMARK  7 active torsions:
REMARK  status: ('A' for Active; 'I' for Inactive)
REMARK    1  A    between atoms: C_1  and  C_2
REMARK    2  A    between atoms: C_2  and  C_3
REMARK    3  A    between atoms: C_2  and  C_4
REMARK    4  A    between atoms: C_2  and  C_5
REMARK    5  A    between atoms: N_17  and  C_18
REMARK    6  A    between atoms: C_18  and  C_19
REMARK    7  A    between atoms: C_19  and  C_20
REMARK                            x       y       z     vdW  Elec       q    Type
REMARK                         _______ _______ _______ _____ _____    ______ ____
ROOT
ATOM      1  C   UNL     1      -2.077  14.276  20.737  0.00  0.00    +0.000 A 
ATOM      2  C   UNL     1      -0.681  14.438  20.717  0.00  0.00    +0.000 A 
ATOM      3  C   UNL     1       0.147  13.514  20.075  0.00  0.00    +0.000 A 
ATOM      4  I   UNL     1       2.218  13.834  20.131  0.00  0.00    +0.000 I 
ATOM      5  C   UNL     1      -0.406  12.400  19.448  0.00  0.00    +0.000 A 
ATOM      6  C   UNL     1      -1.791  12.221  19.426  0.00  0.00    +0.000 A 
ATOM      7  C   UNL     1      -2.612  13.149  20.082  0.00  0.00    +0.000 A 
ATOM      8  C   UNL     1      -2.389  11.009  18.766  0.00  0.00    +0.000 C 
ATOM      9  N   UNL     1      -1.411  10.241  17.998  0.00  0.00    +0.000 NA
ATOM     10  C   UNL     1      -0.133  10.170  18.723  0.00  0.00    +0.000 C 
ATOM     11  C   UNL     1      -0.236   9.463  20.097  0.00  0.00    +0.000 C 
ATOM     12  C   UNL     1       1.148   9.242  20.713  0.00  0.00    +0.000 C 
ATOM     13  N   UNL     1       2.059   8.484  19.838  0.00  0.00    +0.000 NA
ATOM     14  C   UNL     1       2.193   9.188  18.554  0.00  0.00    +0.000 C 
ATOM     15  C   UNL     1       0.860   9.400  17.831  0.00  0.00    +0.000 C 
ATOM     16  O   UNL     1       0.430  11.484  18.873  0.00  0.00    +0.000 OA
ATOM     17  H   UNL     1      -1.222  10.753  17.137  0.00  0.00    +0.000 HD
ENDROOT
BRANCH   1  19
ATOM     18  C   UNL     1      -4.476  14.797  21.527  0.00  0.00    +0.000 C 
ATOM     19  C   UNL     1      -3.013  15.283  21.426  0.00  0.00    +0.000 C 
ATOM     20  C   UNL     1      -3.027  16.615  20.648  0.00  0.00    +0.000 C 
ATOM     21  C   UNL     1      -2.509  15.535  22.863  0.00  0.00    +0.000 C 
ENDBRANCH   1  19
BRANCH  13  22
ATOM     22  C   UNL     1       1.625   7.078  19.718  0.00  0.00    +0.000 C 
BRANCH  22  23
ATOM     23  C   UNL     1       2.554   6.209  18.858  0.00  0.00    +0.000 C 
BRANCH  23  24
ATOM     24  C   UNL     1       2.132   4.761  18.891  0.00  0.00    +0.000 A 
ATOM     25  C   UNL     1       2.500   3.894  17.851  0.00  0.00    +0.000 A 
ATOM     26  C   UNL     1       2.107   2.558  17.874  0.00  0.00    +0.000 A 
ATOM     27  C   UNL     1       1.338   2.078  18.932  0.00  0.00    +0.000 A 
ATOM     28  C   UNL     1       0.955   2.938  19.962  0.00  0.00    +0.000 A 
ATOM     29  C   UNL     1       1.346   4.274  19.940  0.00  0.00    +0.000 A 
ENDBRANCH  23  24
ENDBRANCH  22  23
ENDBRANCH  13  22
TORSDOF 4
ENDMDL
