MODEL 1
REMARK VINA RESULT:      -9.4      0.000      0.000
REMARK  Name = 
REMARK  8 active torsions:
REMARK  status: ('A' for Active; 'I' for Inactive)
REMARK    1  A    between atoms: C_1  and  C_2
REMARK    2  A    between atoms: C_5  and  S_6
REMARK    3  A    between atoms: S_6  and  C_7
REMARK    4  A    between atoms: C_10  and  N_11
REMARK    5  A    between atoms: C_12  and  C_14
REMARK    6  A    between atoms: C_14  and  C_15
REMARK    7  A    between atoms: C_15  and  N_16
REMARK    8  A    between atoms: C_29  and  C_30
REMARK                            x       y       z     vdW  Elec       q    Type
REMARK                         _______ _______ _______ _____ _____    ______ ____
ROOT
ATOM      1  N   UNL     1       2.603   5.980  20.553  0.00  0.00    +0.000 N 
ATOM      2  C   UNL     1       1.848   4.810  20.579  0.00  0.00    +0.000 C 
ATOM      3  O   UNL     1       0.668   4.718  20.262  0.00  0.00    +0.000 OA
ATOM      4  H   UNL     1       3.592   5.925  20.752  0.00  0.00    +0.000 HD
ENDROOT
BRANCH   1   8
ATOM      5  C   UNL     1       1.102   9.739  19.285  0.00  0.00    +0.000 A 
ATOM      6  C   UNL     1       1.816   8.927  18.406  0.00  0.00    +0.000 A 
ATOM      7  C   UNL     1       2.283   7.684  18.822  0.00  0.00    +0.000 A 
ATOM      8  C   UNL     1       2.090   7.233  20.123  0.00  0.00    +0.000 A 
ATOM      9  C   UNL     1       1.367   8.044  21.010  0.00  0.00    +0.000 A 
ATOM     10  C   UNL     1       0.884   9.293  20.591  0.00  0.00    +0.000 A 
BRANCH   5  11
ATOM     11  S   UNL     1       0.554  11.327  18.720  0.00  0.00    +0.000 S 
BRANCH  11  16
ATOM     12  C   UNL     1      -5.502  10.660  17.979  0.00  0.00    +0.000 C 
ATOM     13  C   UNL     1      -4.020  10.848  18.121  0.00  0.00    +0.000 A 
ATOM     14  C   UNL     1      -3.128  10.000  17.468  0.00  0.00    +0.000 A 
ATOM     15  C   UNL     1      -1.747  10.145  17.648  0.00  0.00    +0.000 A 
ATOM     16  C   UNL     1      -1.219  11.148  18.478  0.00  0.00    +0.000 A 
ATOM     17  C   UNL     1      -2.113  12.046  19.100  0.00  0.00    +0.000 A 
ATOM     18  C   UNL     1      -1.674  13.188  19.982  0.00  0.00    +0.000 C 
ATOM     19  C   UNL     1      -3.504  11.870  18.927  0.00  0.00    +0.000 A 
ENDBRANCH  11  16
ENDBRANCH   5  11
ENDBRANCH   1   8
BRANCH   2  20
ATOM     20  C   UNL     1       2.588   3.580  21.031  0.00  0.00    +0.000 C 
BRANCH  20  21
ATOM     21  C   UNL     1       2.881   2.726  19.792  0.00  0.00    +0.000 C 
BRANCH  21  22
ATOM     22  N   UNL     1       3.473   3.496  18.724  0.00  0.00    +0.000 N 
ATOM     23  C   UNL     1       2.832   3.839  17.571  0.00  0.00    +0.000 C 
ATOM     24  O   UNL     1       1.688   3.586  17.249  0.00  0.00    +0.000 OA
ATOM     25  N   UNL     1       3.726   4.516  16.768  0.00  0.00    +0.000 N 
ATOM     26  C   UNL     1       5.017   4.666  17.386  0.00  0.00    +0.000 C 
ATOM     27  C   UNL     1       6.163   4.087  16.553  0.00  0.00    +0.000 C 
ATOM     28  C   UNL     1       7.038   5.286  16.203  0.00  0.00    +0.000 C 
ATOM     29  C   UNL     1       6.844   6.241  17.368  0.00  0.00    +0.000 C 
ATOM     30  C   UNL     1       5.356   6.129  17.679  0.00  0.00    +0.000 C 
ATOM     31  C   UNL     1       4.785   3.883  18.689  0.00  0.00    +0.000 C 
ATOM     32  O   UNL     1       5.631   3.656  19.543  0.00  0.00    +0.000 OA
ATOM     33  H   UNL     1       3.447   4.860  15.858  0.00  0.00    +0.000 HD
ENDBRANCH  21  22
ENDBRANCH  20  21
ENDBRANCH   2  20
TORSDOF 6
ENDMDL
MODEL 2
REMARK VINA RESULT:      -9.3      1.002      1.351
REMARK  Name = 
REMARK  8 active torsions:
REMARK  status: ('A' for Active; 'I' for Inactive)
REMARK    1  A    between atoms: C_1  and  C_2
REMARK    2  A    between atoms: C_5  and  S_6
REMARK    3  A    between atoms: S_6  and  C_7
REMARK    4  A    between atoms: C_10  and  N_11
REMARK    5  A    between atoms: C_12  and  C_14
REMARK    6  A    between atoms: C_14  and  C_15
REMARK    7  A    between atoms: C_15  and  N_16
REMARK    8  A    between atoms: C_29  and  C_30
REMARK                            x       y       z     vdW  Elec       q    Type
REMARK                         _______ _______ _______ _____ _____    ______ ____
ROOT
ATOM      1  N   UNL     1       2.172   5.551  20.774  0.00  0.00    +0.000 N 
ATOM      2  C   UNL     1       1.762   4.391  20.122  0.00  0.00    +0.000 C 
ATOM      3  O   UNL     1       1.118   4.351  19.079  0.00  0.00    +0.000 OA
ATOM      4  H   UNL     1       2.774   5.468  21.582  0.00  0.00    +0.000 HD
ENDROOT
BRANCH   1   8
ATOM      5  C   UNL     1       1.350   9.441  19.296  0.00  0.00    +0.000 A 
ATOM      6  C   UNL     1       0.910   9.055  20.560  0.00  0.00    +0.000 A 
ATOM      7  C   UNL     1       1.206   7.785  21.049  0.00  0.00    +0.000 A 
ATOM      8  C   UNL     1       1.907   6.859  20.286  0.00  0.00    +0.000 A 
ATOM      9  C   UNL     1       2.358   7.244  19.015  0.00  0.00    +0.000 A 
ATOM     10  C   UNL     1       2.071   8.527  18.524  0.00  0.00    +0.000 A 
BRANCH   5  11
ATOM     11  S   UNL     1       0.922  11.057  18.705  0.00  0.00    +0.000 S 
BRANCH  11  16
ATOM     12  C   UNL     1      -5.151  10.801  17.862  0.00  0.00    +0.000 C 
ATOM     13  C   UNL     1      -3.663  10.888  18.029  0.00  0.00    +0.000 A 
ATOM     14  C   UNL     1      -2.820   9.978  17.395  0.00  0.00    +0.000 A 
ATOM     15  C   UNL     1      -1.435  10.029  17.598  0.00  0.00    +0.000 A 
ATOM     16  C   UNL     1      -0.854  10.998  18.433  0.00  0.00    +0.000 A 
ATOM     17  C   UNL     1      -1.695  11.958  19.035  0.00  0.00    +0.000 A 
ATOM     18  C   UNL     1      -1.194  13.072  19.921  0.00  0.00    +0.000 C 
ATOM     19  C   UNL     1      -3.091  11.877  18.840  0.00  0.00    +0.000 A 
ENDBRANCH  11  16
ENDBRANCH   5  11
ENDBRANCH   1   8
BRANCH   2  20
ATOM     20  C   UNL     1       2.176   3.103  20.783  0.00  0.00    +0.000 C 
BRANCH  20  21
ATOM     21  C   UNL     1       3.700   2.987  20.670  0.00  0.00    +0.000 C 
BRANCH  21  22
ATOM     22  N   UNL     1       4.174   3.270  19.336  0.00  0.00    +0.000 N 
ATOM     23  C   UNL     1       4.054   2.420  18.277  0.00  0.00    +0.000 C 
ATOM     24  O   UNL     1       3.534   1.323  18.256  0.00  0.00    +0.000 OA
ATOM     25  N   UNL     1       4.671   3.001  17.189  0.00  0.00    +0.000 N 
ATOM     26  C   UNL     1       5.219   4.297  17.493  0.00  0.00    +0.000 C 
ATOM     27  C   UNL     1       6.718   4.408  17.208  0.00  0.00    +0.000 C 
ATOM     28  C   UNL     1       6.831   5.461  16.111  0.00  0.00    +0.000 C 
ATOM     29  C   UNL     1       5.645   6.378  16.351  0.00  0.00    +0.000 C 
ATOM     30  C   UNL     1       4.520   5.419  16.723  0.00  0.00    +0.000 C 
ATOM     31  C   UNL     1       4.899   4.379  18.995  0.00  0.00    +0.000 C 
ATOM     32  O   UNL     1       5.235   5.285  19.746  0.00  0.00    +0.000 OA
ATOM     33  H   UNL     1       4.696   2.528  16.295  0.00  0.00    +0.000 HD
ENDBRANCH  21  22
ENDBRANCH  20  21
ENDBRANCH   2  20
TORSDOF 6
ENDMDL
MODEL 3
REMARK VINA RESULT:      -9.3      0.896      1.672
REMARK  Name = 
REMARK  8 active torsions:
REMARK  status: ('A' for Active; 'I' for Inactive)
REMARK    1  A    between atoms: C_1  and  C_2
REMARK    2  A    between atoms: C_5  and  S_6
REMARK    3  A    between atoms: S_6  and  C_7
REMARK    4  A    between atoms: C_10  and  N_11
REMARK    5  A    between atoms: C_12  and  C_14
REMARK    6  A    between atoms: C_14  and  C_15
REMARK    7  A    between atoms: C_15  and  N_16
REMARK    8  A    between atoms: C_29  and  C_30
REMARK                            x       y       z     vdW  Elec       q    Type
REMARK                         _______ _______ _______ _____ _____    ______ ____
ROOT
ATOM      1  N   UNL     1       2.192   5.660  20.825  0.00  0.00    +0.000 N 
ATOM      2  C   UNL     1       1.371   4.545  20.675  0.00  0.00    +0.000 C 
ATOM      3  O   UNL     1       0.228   4.558  20.232  0.00  0.00    +0.000 OA
ATOM      4  H   UNL     1       3.149   5.522  21.119  0.00  0.00    +0.000 HD
ENDROOT
BRANCH   1   8
ATOM      5  C   UNL     1       1.060   9.599  19.734  0.00  0.00    +0.000 A 
ATOM      6  C   UNL     1       1.805   8.808  18.863  0.00  0.00    +0.000 A 
ATOM      7  C   UNL     1       2.151   7.507  19.217  0.00  0.00    +0.000 A 
ATOM      8  C   UNL     1       1.803   6.974  20.453  0.00  0.00    +0.000 A 
ATOM      9  C   UNL     1       1.046   7.763  21.332  0.00  0.00    +0.000 A 
ATOM     10  C   UNL     1       0.686   9.072  20.973  0.00  0.00    +0.000 A 
BRANCH   5  11
ATOM     11  S   UNL     1       0.669  11.260  19.251  0.00  0.00    +0.000 S 
BRANCH  11  16
ATOM     12  C   UNL     1      -5.264  11.029  17.699  0.00  0.00    +0.000 C 
ATOM     13  C   UNL     1      -3.806  11.112  18.042  0.00  0.00    +0.000 A 
ATOM     14  C   UNL     1      -2.886  10.246  17.456  0.00  0.00    +0.000 A 
ATOM     15  C   UNL     1      -1.534  10.290  17.821  0.00  0.00    +0.000 A 
ATOM     16  C   UNL     1      -1.064  11.210  18.774  0.00  0.00    +0.000 A 
ATOM     17  C   UNL     1      -1.979  12.127  19.331  0.00  0.00    +0.000 A 
ATOM     18  C   UNL     1      -1.596  13.189  20.333  0.00  0.00    +0.000 C 
ATOM     19  C   UNL     1      -3.343  12.052  18.970  0.00  0.00    +0.000 A 
ENDBRANCH  11  16
ENDBRANCH   5  11
ENDBRANCH   1   8
BRANCH   2  20
ATOM     20  C   UNL     1       1.985   3.236  21.094  0.00  0.00    +0.000 C 
BRANCH  20  21
ATOM     21  C   UNL     1       2.356   2.463  19.823  0.00  0.00    +0.000 C 
BRANCH  21  22
ATOM     22  N   UNL     1       3.519   3.014  19.167  0.00  0.00    +0.000 N 
ATOM     23  C   UNL     1       4.803   2.820  19.581  0.00  0.00    +0.000 C 
ATOM     24  O   UNL     1       5.192   2.162  20.525  0.00  0.00    +0.000 OA
ATOM     25  N   UNL     1       5.635   3.544  18.752  0.00  0.00    +0.000 N 
ATOM     26  C   UNL     1       4.912   4.245  17.723  0.00  0.00    +0.000 C 
ATOM     27  C   UNL     1       5.162   5.755  17.724  0.00  0.00    +0.000 C 
ATOM     28  C   UNL     1       5.833   6.041  16.384  0.00  0.00    +0.000 C 
ATOM     29  C   UNL     1       5.277   4.977  15.454  0.00  0.00    +0.000 C 
ATOM     30  C   UNL     1       5.242   3.725  16.323  0.00  0.00    +0.000 C 
ATOM     31  C   UNL     1       3.469   3.888  18.117  0.00  0.00    +0.000 C 
ATOM     32  O   UNL     1       2.458   4.314  17.575  0.00  0.00    +0.000 OA
ATOM     33  H   UNL     1       6.637   3.536  18.890  0.00  0.00    +0.000 HD
ENDBRANCH  21  22
ENDBRANCH  20  21
ENDBRANCH   2  20
TORSDOF 6
ENDMDL
MODEL 4
REMARK VINA RESULT:      -8.9      1.065      2.129
REMARK  Name = 
REMARK  8 active torsions:
REMARK  status: ('A' for Active; 'I' for Inactive)
REMARK    1  A    between atoms: C_1  and  C_2
REMARK    2  A    between atoms: C_5  and  S_6
REMARK    3  A    between atoms: S_6  and  C_7
REMARK    4  A    between atoms: C_10  and  N_11
REMARK    5  A    between atoms: C_12  and  C_14
REMARK    6  A    between atoms: C_14  and  C_15
REMARK    7  A    between atoms: C_15  and  N_16
REMARK    8  A    between atoms: C_29  and  C_30
REMARK                            x       y       z     vdW  Elec       q    Type
REMARK                         _______ _______ _______ _____ _____    ______ ____
ROOT
ATOM      1  N   UNL     1       2.212   5.934  20.772  0.00  0.00    +0.000 N 
ATOM      2  C   UNL     1       1.387   4.819  20.651  0.00  0.00    +0.000 C 
ATOM      3  O   UNL     1       0.264   4.816  20.159  0.00  0.00    +0.000 OA
ATOM      4  H   UNL     1       3.154   5.806  21.114  0.00  0.00    +0.000 HD
ENDROOT
BRANCH   1   8
ATOM      5  C   UNL     1       1.172   9.812  19.405  0.00  0.00    +0.000 A 
ATOM      6  C   UNL     1       1.851   8.925  18.572  0.00  0.00    +0.000 A 
ATOM      7  C   UNL     1       2.166   7.645  19.020  0.00  0.00    +0.000 A 
ATOM      8  C   UNL     1       1.853   7.228  20.308  0.00  0.00    +0.000 A 
ATOM      9  C   UNL     1       1.163   8.114  21.148  0.00  0.00    +0.000 A 
ATOM     10  C   UNL     1       0.834   9.402  20.697  0.00  0.00    +0.000 A 
BRANCH   5  11
ATOM     11  S   UNL     1       0.819  11.441  18.802  0.00  0.00    +0.000 S 
BRANCH  11  16
ATOM     12  C   UNL     1      -5.189  12.302  19.710  0.00  0.00    +0.000 C 
ATOM     13  C   UNL     1      -3.722  12.058  19.521  0.00  0.00    +0.000 A 
ATOM     14  C   UNL     1      -2.784  12.689  20.336  0.00  0.00    +0.000 A 
ATOM     15  C   UNL     1      -1.413  12.502  20.119  0.00  0.00    +0.000 A 
ATOM     16  C   UNL     1      -0.942  11.672  19.088  0.00  0.00    +0.000 A 
ATOM     17  C   UNL     1      -1.885  10.987  18.293  0.00  0.00    +0.000 A 
ATOM     18  C   UNL     1      -1.510  10.037  17.182  0.00  0.00    +0.000 C 
ATOM     19  C   UNL     1      -3.263  11.206  18.509  0.00  0.00    +0.000 A 
ENDBRANCH  11  16
ENDBRANCH   5  11
ENDBRANCH   1   8
BRANCH   2  20
ATOM     20  C   UNL     1       1.968   3.531  21.171  0.00  0.00    +0.000 C 
BRANCH  20  21
ATOM     21  C   UNL     1       2.321   2.654  19.964  0.00  0.00    +0.000 C 
BRANCH  21  22
ATOM     22  N   UNL     1       3.498   3.123  19.273  0.00  0.00    +0.000 N 
ATOM     23  C   UNL     1       4.778   2.818  19.632  0.00  0.00    +0.000 C 
ATOM     24  O   UNL     1       5.148   2.113  20.549  0.00  0.00    +0.000 OA
ATOM     25  N   UNL     1       5.633   3.489  18.783  0.00  0.00    +0.000 N 
ATOM     26  C   UNL     1       4.931   4.266  17.795  0.00  0.00    +0.000 C 
ATOM     27  C   UNL     1       5.302   5.750  17.811  0.00  0.00    +0.000 C 
ATOM     28  C   UNL     1       5.942   6.008  16.451  0.00  0.00    +0.000 C 
ATOM     29  C   UNL     1       5.268   5.010  15.526  0.00  0.00    +0.000 C 
ATOM     30  C   UNL     1       5.164   3.749  16.374  0.00  0.00    +0.000 C 
ATOM     31  C   UNL     1       3.479   4.019  18.239  0.00  0.00    +0.000 C 
ATOM     32  O   UNL     1       2.486   4.535  17.745  0.00  0.00    +0.000 OA
ATOM     33  H   UNL     1       6.636   3.398  18.881  0.00  0.00    +0.000 HD
ENDBRANCH  21  22
ENDBRANCH  20  21
ENDBRANCH   2  20
TORSDOF 6
ENDMDL
MODEL 5
REMARK VINA RESULT:      -8.9      1.172      1.815
REMARK  Name = 
REMARK  8 active torsions:
REMARK  status: ('A' for Active; 'I' for Inactive)
REMARK    1  A    between atoms: C_1  and  C_2
REMARK    2  A    between atoms: C_5  and  S_6
REMARK    3  A    between atoms: S_6  and  C_7
REMARK    4  A    between atoms: C_10  and  N_11
REMARK    5  A    between atoms: C_12  and  C_14
REMARK    6  A    between atoms: C_14  and  C_15
REMARK    7  A    between atoms: C_15  and  N_16
REMARK    8  A    between atoms: C_29  and  C_30
REMARK                            x       y       z     vdW  Elec       q    Type
REMARK                         _______ _______ _______ _____ _____    ______ ____
ROOT
ATOM      1  N   UNL     1       2.176   5.609  20.789  0.00  0.00    +0.000 N 
ATOM      2  C   UNL     1       1.775   4.427  20.172  0.00  0.00    +0.000 C 
ATOM      3  O   UNL     1       1.138   4.350  19.128  0.00  0.00    +0.000 OA
ATOM      4  H   UNL     1       2.774   5.554  21.602  0.00  0.00    +0.000 HD
ENDROOT
BRANCH   1   8
ATOM      5  C   UNL     1       1.407   9.475  19.223  0.00  0.00    +0.000 A 
ATOM      6  C   UNL     1       2.127   8.540  18.483  0.00  0.00    +0.000 A 
ATOM      7  C   UNL     1       2.353   7.265  18.993  0.00  0.00    +0.000 A 
ATOM      8  C   UNL     1       1.908   6.899  20.258  0.00  0.00    +0.000 A 
ATOM      9  C   UNL     1       1.176   7.834  21.005  0.00  0.00    +0.000 A 
ATOM     10  C   UNL     1       0.936   9.117  20.489  0.00  0.00    +0.000 A 
BRANCH   5  11
ATOM     11  S   UNL     1       1.170  11.095  18.545  0.00  0.00    +0.000 S 
BRANCH  11  16
ATOM     12  C   UNL     1      -4.479  12.809  20.222  0.00  0.00    +0.000 C 
ATOM     13  C   UNL     1      -3.100  12.358  19.845  0.00  0.00    +0.000 A 
ATOM     14  C   UNL     1      -1.982  12.844  20.519  0.00  0.00    +0.000 A 
ATOM     15  C   UNL     1      -0.692  12.462  20.127  0.00  0.00    +0.000 A 
ATOM     16  C   UNL     1      -0.486  11.576  19.057  0.00  0.00    +0.000 A 
ATOM     17  C   UNL     1      -1.614  11.036  18.404  0.00  0.00    +0.000 A 
ATOM     18  C   UNL     1      -1.531  10.047  17.268  0.00  0.00    +0.000 C 
ATOM     19  C   UNL     1      -2.906  11.451  18.796  0.00  0.00    +0.000 A 
ENDBRANCH  11  16
ENDBRANCH   5  11
ENDBRANCH   1   8
BRANCH   2  20
ATOM     20  C   UNL     1       2.192   3.163  20.877  0.00  0.00    +0.000 C 
BRANCH  20  21
ATOM     21  C   UNL     1       3.713   3.030  20.742  0.00  0.00    +0.000 C 
BRANCH  21  22
ATOM     22  N   UNL     1       4.168   3.286  19.397  0.00  0.00    +0.000 N 
ATOM     23  C   UNL     1       4.037   2.413  18.358  0.00  0.00    +0.000 C 
ATOM     24  O   UNL     1       3.520   1.313  18.367  0.00  0.00    +0.000 OA
ATOM     25  N   UNL     1       4.638   2.972  17.249  0.00  0.00    +0.000 N 
ATOM     26  C   UNL     1       5.185   4.276  17.519  0.00  0.00    +0.000 C 
ATOM     27  C   UNL     1       6.680   4.385  17.212  0.00  0.00    +0.000 C 
ATOM     28  C   UNL     1       6.776   5.415  16.091  0.00  0.00    +0.000 C 
ATOM     29  C   UNL     1       5.590   6.333  16.327  0.00  0.00    +0.000 C 
ATOM     30  C   UNL     1       4.473   5.379  16.734  0.00  0.00    +0.000 C 
ATOM     31  C   UNL     1       4.885   4.388  19.023  0.00  0.00    +0.000 C 
ATOM     32  O   UNL     1       5.228   5.311  19.749  0.00  0.00    +0.000 OA
ATOM     33  H   UNL     1       4.653   2.480  16.366  0.00  0.00    +0.000 HD
ENDBRANCH  21  22
ENDBRANCH  20  21
ENDBRANCH   2  20
TORSDOF 6
ENDMDL
MODEL 6
REMARK VINA RESULT:      -8.8      2.189      3.423
REMARK  Name = 
REMARK  8 active torsions:
REMARK  status: ('A' for Active; 'I' for Inactive)
REMARK    1  A    between atoms: C_1  and  C_2
REMARK    2  A    between atoms: C_5  and  S_6
REMARK    3  A    between atoms: S_6  and  C_7
REMARK    4  A    between atoms: C_10  and  N_11
REMARK    5  A    between atoms: C_12  and  C_14
REMARK    6  A    between atoms: C_14  and  C_15
REMARK    7  A    between atoms: C_15  and  N_16
REMARK    8  A    between atoms: C_29  and  C_30
REMARK                            x       y       z     vdW  Elec       q    Type
REMARK                         _______ _______ _______ _____ _____    ______ ____
ROOT
ATOM      1  N   UNL     1       2.703   5.986  20.446  0.00  0.00    +0.000 N 
ATOM      2  C   UNL     1       1.977   4.805  20.570  0.00  0.00    +0.000 C 
ATOM      3  O   UNL     1       0.775   4.684  20.361  0.00  0.00    +0.000 OA
ATOM      4  H   UNL     1       3.707   5.954  20.557  0.00  0.00    +0.000 HD
ENDROOT
BRANCH   1   8
ATOM      5  C   UNL     1       0.959   9.643  19.189  0.00  0.00    +0.000 A 
ATOM      6  C   UNL     1       0.806   9.197  20.501  0.00  0.00    +0.000 A 
ATOM      7  C   UNL     1       1.403   8.009  20.912  0.00  0.00    +0.000 A 
ATOM      8  C   UNL     1       2.129   7.218  20.030  0.00  0.00    +0.000 A 
ATOM      9  C   UNL     1       2.293   7.665  18.710  0.00  0.00    +0.000 A 
ATOM     10  C   UNL     1       1.701   8.868  18.294  0.00  0.00    +0.000 A 
BRANCH   5  11
ATOM     11  S   UNL     1       0.155  11.146  18.703  0.00  0.00    +0.000 S 
BRANCH  11  16
ATOM     12  C   UNL     1       4.137  15.655  19.919  0.00  0.00    +0.000 C 
ATOM     13  C   UNL     1       3.195  14.522  19.637  0.00  0.00    +0.000 A 
ATOM     14  C   UNL     1       3.267  13.817  18.438  0.00  0.00    +0.000 A 
ATOM     15  C   UNL     1       2.349  12.797  18.156  0.00  0.00    +0.000 A 
ATOM     16  C   UNL     1       1.341  12.447  19.070  0.00  0.00    +0.000 A 
ATOM     17  C   UNL     1       1.295  13.119  20.310  0.00  0.00    +0.000 A 
ATOM     18  C   UNL     1       0.289  12.812  21.392  0.00  0.00    +0.000 C 
ATOM     19  C   UNL     1       2.213  14.162  20.568  0.00  0.00    +0.000 A 
ENDBRANCH  11  16
ENDBRANCH   5  11
ENDBRANCH   1   8
BRANCH   2  20
ATOM     20  C   UNL     1       2.778   3.600  20.986  0.00  0.00    +0.000 C 
BRANCH  20  21
ATOM     21  C   UNL     1       3.009   2.737  19.741  0.00  0.00    +0.000 C 
BRANCH  21  22
ATOM     22  N   UNL     1       3.558   3.496  18.642  0.00  0.00    +0.000 N 
ATOM     23  C   UNL     1       2.886   3.787  17.492  0.00  0.00    +0.000 C 
ATOM     24  O   UNL     1       1.745   3.490  17.199  0.00  0.00    +0.000 OA
ATOM     25  N   UNL     1       3.744   4.469  16.656  0.00  0.00    +0.000 N 
ATOM     26  C   UNL     1       5.041   4.676  17.246  0.00  0.00    +0.000 C 
ATOM     27  C   UNL     1       6.189   4.110  16.407  0.00  0.00    +0.000 C 
ATOM     28  C   UNL     1       7.020   5.325  16.010  0.00  0.00    +0.000 C 
ATOM     29  C   UNL     1       6.816   6.305  17.152  0.00  0.00    +0.000 C 
ATOM     30  C   UNL     1       5.339   6.156  17.494  0.00  0.00    +0.000 C 
ATOM     31  C   UNL     1       4.855   3.922  18.573  0.00  0.00    +0.000 C 
ATOM     32  O   UNL     1       5.724   3.743  19.417  0.00  0.00    +0.000 OA
ATOM     33  H   UNL     1       3.438   4.779  15.742  0.00  0.00    +0.000 HD
ENDBRANCH  21  22
ENDBRANCH  20  21
ENDBRANCH   2  20
TORSDOF 6
ENDMDL
MODEL 7
REMARK VINA RESULT:      -8.7      1.129      2.163
REMARK  Name = 
REMARK  8 active torsions:
REMARK  status: ('A' for Active; 'I' for Inactive)
REMARK    1  A    between atoms: C_1  and  C_2
REMARK    2  A    between atoms: C_5  and  S_6
REMARK    3  A    between atoms: S_6  and  C_7
REMARK    4  A    between atoms: C_10  and  N_11
REMARK    5  A    between atoms: C_12  and  C_14
REMARK    6  A    between atoms: C_14  and  C_15
REMARK    7  A    between atoms: C_15  and  N_16
REMARK    8  A    between atoms: C_29  and  C_30
REMARK                            x       y       z     vdW  Elec       q    Type
REMARK                         _______ _______ _______ _____ _____    ______ ____
ROOT
ATOM      1  N   UNL     1       2.589   6.001  20.574  0.00  0.00    +0.000 N 
ATOM      2  C   UNL     1       1.864   4.812  20.612  0.00  0.00    +0.000 C 
ATOM      3  O   UNL     1       0.680   4.692  20.318  0.00  0.00    +0.000 OA
ATOM      4  H   UNL     1       3.583   5.970  20.754  0.00  0.00    +0.000 HD
ENDROOT
BRANCH   1   8
ATOM      5  C   UNL     1       0.969   9.724  19.349  0.00  0.00    +0.000 A 
ATOM      6  C   UNL     1       1.721   8.952  18.465  0.00  0.00    +0.000 A 
ATOM      7  C   UNL     1       2.227   7.720  18.867  0.00  0.00    +0.000 A 
ATOM      8  C   UNL     1       2.037   7.241  20.158  0.00  0.00    +0.000 A 
ATOM      9  C   UNL     1       1.275   8.011  21.050  0.00  0.00    +0.000 A 
ATOM     10  C   UNL     1       0.753   9.250  20.645  0.00  0.00    +0.000 A 
BRANCH   5  11
ATOM     11  S   UNL     1       0.371  11.301  18.802  0.00  0.00    +0.000 S 
BRANCH  11  16
ATOM     12  C   UNL     1      -2.977  13.526  23.440  0.00  0.00    +0.000 C 
ATOM     13  C   UNL     1      -2.162  12.940  22.325  0.00  0.00    +0.000 A 
ATOM     14  C   UNL     1      -0.789  12.754  22.467  0.00  0.00    +0.000 A 
ATOM     15  C   UNL     1      -0.024  12.259  21.404  0.00  0.00    +0.000 A 
ATOM     16  C   UNL     1      -0.613  11.926  20.172  0.00  0.00    +0.000 A 
ATOM     17  C   UNL     1      -2.011  12.058  20.038  0.00  0.00    +0.000 A 
ATOM     18  C   UNL     1      -2.770  11.699  18.785  0.00  0.00    +0.000 C 
ATOM     19  C   UNL     1      -2.764  12.583  21.112  0.00  0.00    +0.000 A 
ENDBRANCH  11  16
ENDBRANCH   5  11
ENDBRANCH   1   8
BRANCH   2  20
ATOM     20  C   UNL     1       2.644   3.599  21.045  0.00  0.00    +0.000 C 
BRANCH  20  21
ATOM     21  C   UNL     1       2.905   2.740  19.803  0.00  0.00    +0.000 C 
BRANCH  21  22
ATOM     22  N   UNL     1       3.479   3.504  18.720  0.00  0.00    +0.000 N 
ATOM     23  C   UNL     1       2.822   3.829  17.571  0.00  0.00    +0.000 C 
ATOM     24  O   UNL     1       1.676   3.564  17.265  0.00  0.00    +0.000 OA
ATOM     25  N   UNL     1       3.701   4.505  16.751  0.00  0.00    +0.000 N 
ATOM     26  C   UNL     1       4.998   4.671  17.352  0.00  0.00    +0.000 C 
ATOM     27  C   UNL     1       6.138   4.091  16.512  0.00  0.00    +0.000 C 
ATOM     28  C   UNL     1       7.000   5.293  16.139  0.00  0.00    +0.000 C 
ATOM     29  C   UNL     1       6.812   6.259  17.296  0.00  0.00    +0.000 C 
ATOM     30  C   UNL     1       5.330   6.139  17.626  0.00  0.00    +0.000 C 
ATOM     31  C   UNL     1       4.787   3.900  18.666  0.00  0.00    +0.000 C 
ATOM     32  O   UNL     1       5.645   3.688  19.512  0.00  0.00    +0.000 OA
ATOM     33  H   UNL     1       3.408   4.836  15.841  0.00  0.00    +0.000 HD
ENDBRANCH  21  22
ENDBRANCH  20  21
ENDBRANCH   2  20
TORSDOF 6
ENDMDL
MODEL 8
REMARK VINA RESULT:      -8.7      2.098      3.356
REMARK  Name = 
REMARK  8 active torsions:
REMARK  status: ('A' for Active; 'I' for Inactive)
REMARK    1  A    between atoms: C_1  and  C_2
REMARK    2  A    between atoms: C_5  and  S_6
REMARK    3  A    between atoms: S_6  and  C_7
REMARK    4  A    between atoms: C_10  and  N_11
REMARK    5  A    between atoms: C_12  and  C_14
REMARK    6  A    between atoms: C_14  and  C_15
REMARK    7  A    between atoms: C_15  and  N_16
REMARK    8  A    between atoms: C_29  and  C_30
REMARK                            x       y       z     vdW  Elec       q    Type
REMARK                         _______ _______ _______ _____ _____    ______ ____
ROOT
ATOM      1  N   UNL     1       2.699   6.063  20.498  0.00  0.00    +0.000 N 
ATOM      2  C   UNL     1       2.019   4.851  20.590  0.00  0.00    +0.000 C 
ATOM      3  O   UNL     1       0.828   4.683  20.348  0.00  0.00    +0.000 OA
ATOM      4  H   UNL     1       3.700   6.070  20.636  0.00  0.00    +0.000 HD
ENDROOT
BRANCH   1   8
ATOM      5  C   UNL     1       0.836   9.660  19.241  0.00  0.00    +0.000 A 
ATOM      6  C   UNL     1       0.709   9.217  20.556  0.00  0.00    +0.000 A 
ATOM      7  C   UNL     1       1.344   8.049  20.967  0.00  0.00    +0.000 A 
ATOM      8  C   UNL     1       2.085   7.275  20.083  0.00  0.00    +0.000 A 
ATOM      9  C   UNL     1       2.223   7.720  18.759  0.00  0.00    +0.000 A 
ATOM     10  C   UNL     1       1.593   8.903  18.343  0.00  0.00    +0.000 A 
BRANCH   5  11
ATOM     11  S   UNL     1      -0.016  11.137  18.756  0.00  0.00    +0.000 S 
BRANCH  11  16
ATOM     12  C   UNL     1       2.571  15.539  22.161  0.00  0.00    +0.000 C 
ATOM     13  C   UNL     1       1.914  14.495  21.307  0.00  0.00    +0.000 A 
ATOM     14  C   UNL     1       0.686  13.947  21.672  0.00  0.00    +0.000 A 
ATOM     15  C   UNL     1       0.103  12.933  20.901  0.00  0.00    +0.000 A 
ATOM     16  C   UNL     1       0.726  12.447  19.739  0.00  0.00    +0.000 A 
ATOM     17  C   UNL     1       1.942  13.036  19.333  0.00  0.00    +0.000 A 
ATOM     18  C   UNL     1       2.692  12.634  18.086  0.00  0.00    +0.000 C 
ATOM     19  C   UNL     1       2.529  14.040  20.135  0.00  0.00    +0.000 A 
ENDBRANCH  11  16
ENDBRANCH   5  11
ENDBRANCH   1   8
BRANCH   2  20
ATOM     20  C   UNL     1       2.859   3.675  21.013  0.00  0.00    +0.000 C 
BRANCH  20  21
ATOM     21  C   UNL     1       3.078   2.788  19.782  0.00  0.00    +0.000 C 
BRANCH  21  22
ATOM     22  N   UNL     1       3.614   3.527  18.663  0.00  0.00    +0.000 N 
ATOM     23  C   UNL     1       2.940   3.769  17.503  0.00  0.00    +0.000 C 
ATOM     24  O   UNL     1       1.807   3.439  17.215  0.00  0.00    +0.000 OA
ATOM     25  N   UNL     1       3.786   4.446  16.650  0.00  0.00    +0.000 N 
ATOM     26  C   UNL     1       5.076   4.697  17.237  0.00  0.00    +0.000 C 
ATOM     27  C   UNL     1       6.239   4.132  16.419  0.00  0.00    +0.000 C 
ATOM     28  C   UNL     1       7.044   5.354  15.988  0.00  0.00    +0.000 C 
ATOM     29  C   UNL     1       6.815   6.362  17.101  0.00  0.00    +0.000 C 
ATOM     30  C   UNL     1       5.341   6.190  17.442  0.00  0.00    +0.000 C 
ATOM     31  C   UNL     1       4.902   3.979  18.585  0.00  0.00    +0.000 C 
ATOM     32  O   UNL     1       5.771   3.844  19.436  0.00  0.00    +0.000 OA
ATOM     33  H   UNL     1       3.476   4.722  15.727  0.00  0.00    +0.000 HD
ENDBRANCH  21  22
ENDBRANCH  20  21
ENDBRANCH   2  20
TORSDOF 6
ENDMDL
MODEL 9
REMARK VINA RESULT:      -8.7      0.998      1.858
REMARK  Name = 
REMARK  8 active torsions:
REMARK  status: ('A' for Active; 'I' for Inactive)
REMARK    1  A    between atoms: C_1  and  C_2
REMARK    2  A    between atoms: C_5  and  S_6
REMARK    3  A    between atoms: S_6  and  C_7
REMARK    4  A    between atoms: C_10  and  N_11
REMARK    5  A    between atoms: C_12  and  C_14
REMARK    6  A    between atoms: C_14  and  C_15
REMARK    7  A    between atoms: C_15  and  N_16
REMARK    8  A    between atoms: C_29  and  C_30
REMARK                            x       y       z     vdW  Elec       q    Type
REMARK                         _______ _______ _______ _____ _____    ______ ____
ROOT
ATOM      1  N   UNL     1       2.374   6.689  20.528  0.00  0.00    +0.000 N 
ATOM      2  C   UNL     1       1.558   5.574  20.697  0.00  0.00    +0.000 C 
ATOM      3  O   UNL     1       0.344   5.548  20.525  0.00  0.00    +0.000 OA
ATOM      4  H   UNL     1       3.375   6.577  20.613  0.00  0.00    +0.000 HD
ENDROOT
BRANCH   1   8
ATOM      5  C   UNL     1       0.897  10.452  19.241  0.00  0.00    +0.000 A 
ATOM      6  C   UNL     1       0.744  10.044  20.565  0.00  0.00    +0.000 A 
ATOM      7  C   UNL     1       1.254   8.819  20.985  0.00  0.00    +0.000 A 
ATOM      8  C   UNL     1       1.890   7.955  20.102  0.00  0.00    +0.000 A 
ATOM      9  C   UNL     1       2.053   8.363  18.770  0.00  0.00    +0.000 A 
ATOM     10  C   UNL     1       1.550   9.603  18.344  0.00  0.00    +0.000 A 
BRANCH   5  11
ATOM     11  S   UNL     1       0.204  12.006  18.745  0.00  0.00    +0.000 S 
BRANCH  11  16
ATOM     12  C   UNL     1      -5.783  10.834  18.077  0.00  0.00    +0.000 C 
ATOM     13  C   UNL     1      -4.324  11.155  18.210  0.00  0.00    +0.000 A 
ATOM     14  C   UNL     1      -3.393  10.622  17.320  0.00  0.00    +0.000 A 
ATOM     15  C   UNL     1      -2.026  10.880  17.481  0.00  0.00    +0.000 A 
ATOM     16  C   UNL     1      -1.552  11.685  18.530  0.00  0.00    +0.000 A 
ATOM     17  C   UNL     1      -2.492  12.273  19.403  0.00  0.00    +0.000 A 
ATOM     18  C   UNL     1      -2.118  13.187  20.544  0.00  0.00    +0.000 C 
ATOM     19  C   UNL     1      -3.865  11.983  19.242  0.00  0.00    +0.000 A 
ENDBRANCH  11  16
ENDBRANCH   5  11
ENDBRANCH   1   8
BRANCH   2  20
ATOM     20  C   UNL     1       2.270   4.316  21.117  0.00  0.00    +0.000 C 
BRANCH  20  21
ATOM     21  C   UNL     1       2.393   3.412  19.885  0.00  0.00    +0.000 C 
BRANCH  21  22
ATOM     22  N   UNL     1       3.615   3.648  19.153  0.00  0.00    +0.000 N 
ATOM     23  C   UNL     1       4.817   3.078  19.452  0.00  0.00    +0.000 C 
ATOM     24  O   UNL     1       5.068   2.288  20.339  0.00  0.00    +0.000 OA
ATOM     25  N   UNL     1       5.758   3.582  18.579  0.00  0.00    +0.000 N 
ATOM     26  C   UNL     1       5.194   4.512  17.637  0.00  0.00    +0.000 C 
ATOM     27  C   UNL     1       5.863   5.888  17.663  0.00  0.00    +0.000 C 
ATOM     28  C   UNL     1       6.491   6.045  16.282  0.00  0.00    +0.000 C 
ATOM     29  C   UNL     1       5.591   5.232  15.369  0.00  0.00    +0.000 C 
ATOM     30  C   UNL     1       5.262   3.996  16.198  0.00  0.00    +0.000 C 
ATOM     31  C   UNL     1       3.741   4.556  18.138  0.00  0.00    +0.000 C 
ATOM     32  O   UNL     1       2.858   5.277  17.696  0.00  0.00    +0.000 OA
ATOM     33  H   UNL     1       6.724   3.285  18.633  0.00  0.00    +0.000 HD
ENDBRANCH  21  22
ENDBRANCH  20  21
ENDBRANCH   2  20
TORSDOF 6
ENDMDL
