MODEL 1
REMARK VINA RESULT:      -7.3      0.000      0.000
REMARK  Name = 
REMARK  9 active torsions:
REMARK  status: ('A' for Active; 'I' for Inactive)
REMARK    1  A    between atoms: C_1  and  N_2
REMARK    2  A    between atoms: N_2  and  C_3
REMARK    3  A    between atoms: N_2  and  C_4
REMARK    4  A    between atoms: C_4  and  C_5
REMARK    5  A    between atoms: C_5  and  N_6
REMARK    6  A    between atoms: N_6  and  C_7
REMARK    7  A    between atoms: N_6  and  S_14
REMARK    8  A    between atoms: C_7  and  C_8
REMARK    9  A    between atoms: S_14  and  C_17
REMARK                            x       y       z     vdW  Elec       q    Type
REMARK                         _______ _______ _______ _____ _____    ______ ____
ROOT
ATOM      1  S   UNL     1       6.062   5.321  17.417  0.00  0.00    +0.000 S 
ATOM      2  O   UNL     1       6.682   4.467  18.412  0.00  0.00    +0.000 OA
ATOM      3  O   UNL     1       6.803   6.376  16.763  0.00  0.00    +0.000 OA
ENDROOT
BRANCH   1   4
ATOM      4  C   UNL     1       4.699   6.094  18.264  0.00  0.00    +0.000 A 
ATOM      5  C   UNL     1       4.186   5.536  19.440  0.00  0.00    +0.000 A 
ATOM      6  C   UNL     1       3.088   6.132  20.064  0.00  0.00    +0.000 A 
ATOM      7  C   UNL     1       2.488   7.249  19.480  0.00  0.00    +0.000 A 
ATOM      8  N   UNL     1       1.474   7.940  20.159  0.00  0.00    +0.000 N 
ATOM      9  C   UNL     1       0.900   9.088  19.677  0.00  0.00    +0.000 A 
ATOM     10  O   UNL     1       0.156   9.787  20.355  0.00  0.00    +0.000 OA
ATOM     11  C   UNL     1       1.206   9.444  18.270  0.00  0.00    +0.000 A 
ATOM     12  C   UNL     1       2.161   8.799  17.587  0.00  0.00    +0.000 A 
ATOM     13  C   UNL     1       2.918   7.729  18.237  0.00  0.00    +0.000 A 
ATOM     14  C   UNL     1       4.040   7.163  17.637  0.00  0.00    +0.000 A 
ATOM     15  H   UNL     1       1.223   7.684  21.104  0.00  0.00    +0.000 HD
ENDBRANCH   1   4
BRANCH   1  16
ATOM     16  N   UNL     1       5.325   4.315  16.214  0.00  0.00    +0.000 NA
BRANCH  16  17
ATOM     17  C   UNL     1       6.081   4.287  14.907  0.00  0.00    +0.000 C 
BRANCH  17  18
ATOM     18  C   UNL     1       5.207   3.966  13.666  0.00  0.00    +0.000 C 
BRANCH  18  20
ATOM     19  C   UNL     1       4.966   2.905  11.505  0.00  0.00    +0.000 C 
ATOM     20  N   UNL     1       5.905   3.234  12.586  0.00  0.00    +0.000 NA
ATOM     21  C   UNL     1       7.039   3.977  12.038  0.00  0.00    +0.000 C 
ENDBRANCH  18  20
ENDBRANCH  17  18
ENDBRANCH  16  17
BRANCH  16  22
ATOM     22  C   UNL     1       4.948   2.957  16.748  0.00  0.00    +0.000 C 
BRANCH  22  23
ATOM     23  C   UNL     1       3.584   2.868  17.381  0.00  0.00    +0.000 A 
ATOM     24  C   UNL     1       2.561   3.737  16.976  0.00  0.00    +0.000 A 
ATOM     25  C   UNL     1       1.373   3.830  17.694  0.00  0.00    +0.000 A 
ATOM     26  C   UNL     1       1.171   3.015  18.805  0.00  0.00    +0.000 A 
ATOM     27  C   UNL     1       2.141   2.082  19.166  0.00  0.00    +0.000 A 
ATOM     28  C   UNL     1       3.336   1.998  18.453  0.00  0.00    +0.000 A 
ENDBRANCH  22  23
ENDBRANCH  16  22
ENDBRANCH   1  16
TORSDOF 7
ENDMDL
MODEL 2
REMARK VINA RESULT:      -7.1      2.189      6.871
REMARK  Name = 
REMARK  9 active torsions:
REMARK  status: ('A' for Active; 'I' for Inactive)
REMARK    1  A    between atoms: C_1  and  N_2
REMARK    2  A    between atoms: N_2  and  C_3
REMARK    3  A    between atoms: N_2  and  C_4
REMARK    4  A    between atoms: C_4  and  C_5
REMARK    5  A    between atoms: C_5  and  N_6
REMARK    6  A    between atoms: N_6  and  C_7
REMARK    7  A    between atoms: N_6  and  S_14
REMARK    8  A    between atoms: C_7  and  C_8
REMARK    9  A    between atoms: S_14  and  C_17
REMARK                            x       y       z     vdW  Elec       q    Type
REMARK                         _______ _______ _______ _____ _____    ______ ____
ROOT
ATOM      1  S   UNL     1       4.973   4.576  18.982  0.00  0.00    +0.000 S 
ATOM      2  O   UNL     1       5.727   5.471  19.839  0.00  0.00    +0.000 OA
ATOM      3  O   UNL     1       4.882   3.161  19.265  0.00  0.00    +0.000 OA
ENDROOT
BRANCH   1   4
ATOM      4  C   UNL     1       5.729   4.736  17.377  0.00  0.00    +0.000 A 
ATOM      5  C   UNL     1       6.765   5.651  17.168  0.00  0.00    +0.000 A 
ATOM      6  C   UNL     1       7.313   5.794  15.892  0.00  0.00    +0.000 A 
ATOM      7  C   UNL     1       6.787   5.053  14.831  0.00  0.00    +0.000 A 
ATOM      8  N   UNL     1       7.410   5.080  13.575  0.00  0.00    +0.000 N 
ATOM      9  C   UNL     1       6.991   4.316  12.517  0.00  0.00    +0.000 A 
ATOM     10  O   UNL     1       7.647   4.201  11.488  0.00  0.00    +0.000 OA
ATOM     11  C   UNL     1       5.680   3.640  12.663  0.00  0.00    +0.000 A 
ATOM     12  C   UNL     1       5.051   3.602  13.845  0.00  0.00    +0.000 A 
ATOM     13  C   UNL     1       5.666   4.234  15.013  0.00  0.00    +0.000 A 
ATOM     14  C   UNL     1       5.148   4.058  16.293  0.00  0.00    +0.000 A 
ATOM     15  H   UNL     1       8.284   5.572  13.447  0.00  0.00    +0.000 HD
ENDBRANCH   1   4
BRANCH   1  16
ATOM     16  N   UNL     1       3.376   5.219  18.787  0.00  0.00    +0.000 NA
BRANCH  16  17
ATOM     17  C   UNL     1       2.336   4.167  18.483  0.00  0.00    +0.000 C 
BRANCH  17  18
ATOM     18  C   UNL     1       1.222   4.037  19.555  0.00  0.00    +0.000 C 
BRANCH  18  20
ATOM     19  C   UNL     1       1.788   1.689  19.424  0.00  0.00    +0.000 C 
ATOM     20  N   UNL     1       1.182   2.736  20.258  0.00  0.00    +0.000 NA
ATOM     21  C   UNL     1       1.850   2.772  21.557  0.00  0.00    +0.000 C 
ENDBRANCH  18  20
ENDBRANCH  17  18
ENDBRANCH  16  17
BRANCH  16  22
ATOM     22  C   UNL     1       2.998   6.171  19.893  0.00  0.00    +0.000 C 
BRANCH  22  23
ATOM     23  C   UNL     1       2.252   7.405  19.457  0.00  0.00    +0.000 A 
ATOM     24  C   UNL     1       2.395   7.888  18.148  0.00  0.00    +0.000 A 
ATOM     25  C   UNL     1       1.903   9.139  17.789  0.00  0.00    +0.000 A 
ATOM     26  C   UNL     1       1.217   9.907  18.726  0.00  0.00    +0.000 A 
ATOM     27  C   UNL     1       0.987   9.402  20.003  0.00  0.00    +0.000 A 
ATOM     28  C   UNL     1       1.491   8.153  20.366  0.00  0.00    +0.000 A 
ENDBRANCH  22  23
ENDBRANCH  16  22
ENDBRANCH   1  16
TORSDOF 7
ENDMDL
MODEL 3
REMARK VINA RESULT:      -7.1      1.320      1.655
REMARK  Name = 
REMARK  9 active torsions:
REMARK  status: ('A' for Active; 'I' for Inactive)
REMARK    1  A    between atoms: C_1  and  N_2
REMARK    2  A    between atoms: N_2  and  C_3
REMARK    3  A    between atoms: N_2  and  C_4
REMARK    4  A    between atoms: C_4  and  C_5
REMARK    5  A    between atoms: C_5  and  N_6
REMARK    6  A    between atoms: N_6  and  C_7
REMARK    7  A    between atoms: N_6  and  S_14
REMARK    8  A    between atoms: C_7  and  C_8
REMARK    9  A    between atoms: S_14  and  C_17
REMARK                            x       y       z     vdW  Elec       q    Type
REMARK                         _______ _______ _______ _____ _____    ______ ____
ROOT
ATOM      1  S   UNL     1       4.985   5.672  18.003  0.00  0.00    +0.000 S 
ATOM      2  O   UNL     1       5.781   5.196  19.119  0.00  0.00    +0.000 OA
ATOM      3  O   UNL     1       5.562   6.495  16.965  0.00  0.00    +0.000 OA
ENDROOT
BRANCH   1   4
ATOM      4  C   UNL     1       3.675   6.620  18.749  0.00  0.00    +0.000 A 
ATOM      5  C   UNL     1       3.081   6.196  19.942  0.00  0.00    +0.000 A 
ATOM      6  C   UNL     1       2.025   6.929  20.485  0.00  0.00    +0.000 A 
ATOM      7  C   UNL     1       1.545   8.051  19.806  0.00  0.00    +0.000 A 
ATOM      8  N   UNL     1       0.579   8.876  20.401  0.00  0.00    +0.000 N 
ATOM      9  C   UNL     1       0.126  10.033  19.822  0.00  0.00    +0.000 A 
ATOM     10  O   UNL     1      -0.570  10.841  20.425  0.00  0.00    +0.000 OA
ATOM     11  C   UNL     1       0.502  10.259  18.406  0.00  0.00    +0.000 A 
ATOM     12  C   UNL     1       1.413   9.485  17.802  0.00  0.00    +0.000 A 
ATOM     13  C   UNL     1       2.051   8.401  18.549  0.00  0.00    +0.000 A 
ATOM     14  C   UNL     1       3.134   7.697  18.028  0.00  0.00    +0.000 A 
ATOM     15  H   UNL     1       0.280   8.711  21.353  0.00  0.00    +0.000 HD
ENDBRANCH   1   4
BRANCH   1  16
ATOM     16  N   UNL     1       4.193   4.313  17.276  0.00  0.00    +0.000 NA
BRANCH  16  17
ATOM     17  C   UNL     1       4.562   4.106  15.827  0.00  0.00    +0.000 C 
BRANCH  17  18
ATOM     18  C   UNL     1       6.037   3.680  15.595  0.00  0.00    +0.000 C 
BRANCH  18  20
ATOM     19  C   UNL     1       5.396   3.778  13.264  0.00  0.00    +0.000 C 
ATOM     20  N   UNL     1       6.521   3.843  14.207  0.00  0.00    +0.000 NA
ATOM     21  C   UNL     1       7.254   5.091  14.005  0.00  0.00    +0.000 C 
ENDBRANCH  18  20
ENDBRANCH  17  18
ENDBRANCH  16  17
BRANCH  16  22
ATOM     22  C   UNL     1       4.278   3.072  18.127  0.00  0.00    +0.000 C 
BRANCH  22  23
ATOM     23  C   UNL     1       3.164   2.898  19.127  0.00  0.00    +0.000 A 
ATOM     24  C   UNL     1       1.832   3.096  18.739  0.00  0.00    +0.000 A 
ATOM     25  C   UNL     1       0.813   3.166  19.685  0.00  0.00    +0.000 A 
ATOM     26  C   UNL     1       1.109   2.989  21.034  0.00  0.00    +0.000 A 
ATOM     27  C   UNL     1       2.414   2.700  21.426  0.00  0.00    +0.000 A 
ATOM     28  C   UNL     1       3.436   2.643  20.479  0.00  0.00    +0.000 A 
ENDBRANCH  22  23
ENDBRANCH  16  22
ENDBRANCH   1  16
TORSDOF 7
ENDMDL
MODEL 4
REMARK VINA RESULT:      -7.0      0.537      1.070
REMARK  Name = 
REMARK  9 active torsions:
REMARK  status: ('A' for Active; 'I' for Inactive)
REMARK    1  A    between atoms: C_1  and  N_2
REMARK    2  A    between atoms: N_2  and  C_3
REMARK    3  A    between atoms: N_2  and  C_4
REMARK    4  A    between atoms: C_4  and  C_5
REMARK    5  A    between atoms: C_5  and  N_6
REMARK    6  A    between atoms: N_6  and  C_7
REMARK    7  A    between atoms: N_6  and  S_14
REMARK    8  A    between atoms: C_7  and  C_8
REMARK    9  A    between atoms: S_14  and  C_17
REMARK                            x       y       z     vdW  Elec       q    Type
REMARK                         _______ _______ _______ _____ _____    ______ ____
ROOT
ATOM      1  S   UNL     1       5.768   5.057  18.014  0.00  0.00    +0.000 S 
ATOM      2  O   UNL     1       6.007   4.013  18.993  0.00  0.00    +0.000 OA
ATOM      3  O   UNL     1       6.800   6.003  17.656  0.00  0.00    +0.000 OA
ENDROOT
BRANCH   1   4
ATOM      4  C   UNL     1       4.407   5.998  18.673  0.00  0.00    +0.000 A 
ATOM      5  C   UNL     1       3.741   5.570  19.826  0.00  0.00    +0.000 A 
ATOM      6  C   UNL     1       2.648   6.298  20.301  0.00  0.00    +0.000 A 
ATOM      7  C   UNL     1       2.206   7.416  19.591  0.00  0.00    +0.000 A 
ATOM      8  N   UNL     1       1.200   8.236  20.122  0.00  0.00    +0.000 N 
ATOM      9  C   UNL     1       0.777   9.390  19.515  0.00  0.00    +0.000 A 
ATOM     10  O   UNL     1       0.039  10.195  20.071  0.00  0.00    +0.000 OA
ATOM     11  C   UNL     1       1.241   9.617  18.126  0.00  0.00    +0.000 A 
ATOM     12  C   UNL     1       2.193   8.849  17.581  0.00  0.00    +0.000 A 
ATOM     13  C   UNL     1       2.789   7.769  18.368  0.00  0.00    +0.000 A 
ATOM     14  C   UNL     1       3.907   7.070  17.918  0.00  0.00    +0.000 A 
ATOM     15  H   UNL     1       0.841   8.070  21.053  0.00  0.00    +0.000 HD
ENDBRANCH   1   4
BRANCH   1  16
ATOM     16  N   UNL     1       5.145   4.324  16.572  0.00  0.00    +0.000 NA
BRANCH  16  17
ATOM     17  C   UNL     1       6.105   4.376  15.408  0.00  0.00    +0.000 C 
BRANCH  17  18
ATOM     18  C   UNL     1       5.448   4.136  14.023  0.00  0.00    +0.000 C 
BRANCH  18  20
ATOM     19  C   UNL     1       5.568   2.916  11.937  0.00  0.00    +0.000 C 
ATOM     20  N   UNL     1       6.350   3.569  12.996  0.00  0.00    +0.000 NA
ATOM     21  C   UNL     1       7.234   4.570  12.403  0.00  0.00    +0.000 C 
ENDBRANCH  18  20
ENDBRANCH  17  18
ENDBRANCH  16  17
BRANCH  16  22
ATOM     22  C   UNL     1       4.544   2.966  16.828  0.00  0.00    +0.000 C 
BRANCH  22  23
ATOM     23  C   UNL     1       3.275   2.964  17.640  0.00  0.00    +0.000 A 
ATOM     24  C   UNL     1       3.100   2.030  18.671  0.00  0.00    +0.000 A 
ATOM     25  C   UNL     1       1.860   1.858  19.279  0.00  0.00    +0.000 A 
ATOM     26  C   UNL     1       0.785   2.655  18.895  0.00  0.00    +0.000 A 
ATOM     27  C   UNL     1       0.967   3.650  17.937  0.00  0.00    +0.000 A 
ATOM     28  C   UNL     1       2.206   3.813  17.320  0.00  0.00    +0.000 A 
ENDBRANCH  22  23
ENDBRANCH  16  22
ENDBRANCH   1  16
TORSDOF 7
ENDMDL
MODEL 5
REMARK VINA RESULT:      -6.9      1.505      2.268
REMARK  Name = 
REMARK  9 active torsions:
REMARK  status: ('A' for Active; 'I' for Inactive)
REMARK    1  A    between atoms: C_1  and  N_2
REMARK    2  A    between atoms: N_2  and  C_3
REMARK    3  A    between atoms: N_2  and  C_4
REMARK    4  A    between atoms: C_4  and  C_5
REMARK    5  A    between atoms: C_5  and  N_6
REMARK    6  A    between atoms: N_6  and  C_7
REMARK    7  A    between atoms: N_6  and  S_14
REMARK    8  A    between atoms: C_7  and  C_8
REMARK    9  A    between atoms: S_14  and  C_17
REMARK                            x       y       z     vdW  Elec       q    Type
REMARK                         _______ _______ _______ _____ _____    ______ ____
ROOT
ATOM      1  S   UNL     1       4.804   5.781  18.071  0.00  0.00    +0.000 S 
ATOM      2  O   UNL     1       5.182   5.328  19.397  0.00  0.00    +0.000 OA
ATOM      3  O   UNL     1       5.766   6.395  17.183  0.00  0.00    +0.000 OA
ENDROOT
BRANCH   1   4
ATOM      4  C   UNL     1       3.515   6.979  18.348  0.00  0.00    +0.000 A 
ATOM      5  C   UNL     1       3.301   8.016  17.435  0.00  0.00    +0.000 A 
ATOM      6  C   UNL     1       2.316   8.971  17.694  0.00  0.00    +0.000 A 
ATOM      7  C   UNL     1       1.590   8.904  18.885  0.00  0.00    +0.000 A 
ATOM      8  N   UNL     1       0.508   9.769  19.100  0.00  0.00    +0.000 N 
ATOM      9  C   UNL     1      -0.293   9.702  20.211  0.00  0.00    +0.000 A 
ATOM     10  O   UNL     1      -1.342  10.329  20.305  0.00  0.00    +0.000 OA
ATOM     11  C   UNL     1       0.181   8.842  21.321  0.00  0.00    +0.000 A 
ATOM     12  C   UNL     1       1.217   8.009  21.155  0.00  0.00    +0.000 A 
ATOM     13  C   UNL     1       1.893   7.944  19.859  0.00  0.00    +0.000 A 
ATOM     14  C   UNL     1       2.844   6.966  19.581  0.00  0.00    +0.000 A 
ATOM     15  H   UNL     1       0.197  10.394  18.368  0.00  0.00    +0.000 HD
ENDBRANCH   1   4
BRANCH   1  16
ATOM     16  N   UNL     1       4.025   4.472  17.246  0.00  0.00    +0.000 NA
BRANCH  16  17
ATOM     17  C   UNL     1       4.451   4.331  15.804  0.00  0.00    +0.000 C 
BRANCH  17  18
ATOM     18  C   UNL     1       5.776   3.548  15.601  0.00  0.00    +0.000 C 
BRANCH  18  20
ATOM     19  C   UNL     1       5.484   3.755  13.208  0.00  0.00    +0.000 C 
ATOM     20  N   UNL     1       6.455   3.798  14.310  0.00  0.00    +0.000 NA
ATOM     21  C   UNL     1       7.168   5.073  14.282  0.00  0.00    +0.000 C 
ENDBRANCH  18  20
ENDBRANCH  17  18
ENDBRANCH  16  17
BRANCH  16  22
ATOM     22  C   UNL     1       4.058   3.190  18.037  0.00  0.00    +0.000 C 
BRANCH  22  23
ATOM     23  C   UNL     1       3.027   3.079  19.130  0.00  0.00    +0.000 A 
ATOM     24  C   UNL     1       1.735   3.589  18.934  0.00  0.00    +0.000 A 
ATOM     25  C   UNL     1       0.842   3.705  19.995  0.00  0.00    +0.000 A 
ATOM     26  C   UNL     1       1.214   3.265  21.263  0.00  0.00    +0.000 A 
ATOM     27  C   UNL     1       2.460   2.672  21.453  0.00  0.00    +0.000 A 
ATOM     28  C   UNL     1       3.359   2.568  20.392  0.00  0.00    +0.000 A 
ENDBRANCH  22  23
ENDBRANCH  16  22
ENDBRANCH   1  16
TORSDOF 7
ENDMDL
MODEL 6
REMARK VINA RESULT:      -6.6      1.131      1.749
REMARK  Name = 
REMARK  9 active torsions:
REMARK  status: ('A' for Active; 'I' for Inactive)
REMARK    1  A    between atoms: C_1  and  N_2
REMARK    2  A    between atoms: N_2  and  C_3
REMARK    3  A    between atoms: N_2  and  C_4
REMARK    4  A    between atoms: C_4  and  C_5
REMARK    5  A    between atoms: C_5  and  N_6
REMARK    6  A    between atoms: N_6  and  C_7
REMARK    7  A    between atoms: N_6  and  S_14
REMARK    8  A    between atoms: C_7  and  C_8
REMARK    9  A    between atoms: S_14  and  C_17
REMARK                            x       y       z     vdW  Elec       q    Type
REMARK                         _______ _______ _______ _____ _____    ______ ____
ROOT
ATOM      1  S   UNL     1       5.433   4.777  18.228  0.00  0.00    +0.000 S 
ATOM      2  O   UNL     1       5.429   4.146  19.534  0.00  0.00    +0.000 OA
ATOM      3  O   UNL     1       6.631   5.377  17.685  0.00  0.00    +0.000 OA
ENDROOT
BRANCH   1   4
ATOM      4  C   UNL     1       4.211   6.069  18.342  0.00  0.00    +0.000 A 
ATOM      5  C   UNL     1       4.153   7.078  17.375  0.00  0.00    +0.000 A 
ATOM      6  C   UNL     1       3.218   8.106  17.508  0.00  0.00    +0.000 A 
ATOM      7  C   UNL     1       2.385   8.138  18.628  0.00  0.00    +0.000 A 
ATOM      8  N   UNL     1       1.351   9.082  18.712  0.00  0.00    +0.000 N 
ATOM      9  C   UNL     1       0.451   9.115  19.745  0.00  0.00    +0.000 A 
ATOM     10  O   UNL     1      -0.556   9.814  19.719  0.00  0.00    +0.000 OA
ATOM     11  C   UNL     1       0.762   8.272  20.924  0.00  0.00    +0.000 A 
ATOM     12  C   UNL     1       1.748   7.366  20.885  0.00  0.00    +0.000 A 
ATOM     13  C   UNL     1       2.531   7.202  19.659  0.00  0.00    +0.000 A 
ATOM     14  C   UNL     1       3.432   6.152  19.506  0.00  0.00    +0.000 A 
ATOM     15  H   UNL     1       1.152   9.694  17.932  0.00  0.00    +0.000 HD
ENDBRANCH   1   4
BRANCH   1  16
ATOM     16  N   UNL     1       4.788   3.655  17.076  0.00  0.00    +0.000 NA
BRANCH  16  17
ATOM     17  C   UNL     1       5.736   3.345  15.942  0.00  0.00    +0.000 C 
BRANCH  17  18
ATOM     18  C   UNL     1       5.502   4.189  14.661  0.00  0.00    +0.000 C 
BRANCH  18  20
ATOM     19  C   UNL     1       5.631   3.466  12.355  0.00  0.00    +0.000 C 
ATOM     20  N   UNL     1       6.408   3.874  13.534  0.00  0.00    +0.000 NA
ATOM     21  C   UNL     1       7.280   4.992  13.179  0.00  0.00    +0.000 C 
ENDBRANCH  18  20
ENDBRANCH  17  18
ENDBRANCH  16  17
BRANCH  16  22
ATOM     22  C   UNL     1       4.177   2.443  17.730  0.00  0.00    +0.000 C 
BRANCH  22  23
ATOM     23  C   UNL     1       2.917   2.698  18.516  0.00  0.00    +0.000 A 
ATOM     24  C   UNL     1       1.822   3.327  17.905  0.00  0.00    +0.000 A 
ATOM     25  C   UNL     1       0.743   3.777  18.660  0.00  0.00    +0.000 A 
ATOM     26  C   UNL     1       0.723   3.562  20.035  0.00  0.00    +0.000 A 
ATOM     27  C   UNL     1       1.760   2.858  20.642  0.00  0.00    +0.000 A 
ATOM     28  C   UNL     1       2.847   2.418  19.887  0.00  0.00    +0.000 A 
ENDBRANCH  22  23
ENDBRANCH  16  22
ENDBRANCH   1  16
TORSDOF 7
ENDMDL
MODEL 7
REMARK VINA RESULT:      -6.6      2.138      4.610
REMARK  Name = 
REMARK  9 active torsions:
REMARK  status: ('A' for Active; 'I' for Inactive)
REMARK    1  A    between atoms: C_1  and  N_2
REMARK    2  A    between atoms: N_2  and  C_3
REMARK    3  A    between atoms: N_2  and  C_4
REMARK    4  A    between atoms: C_4  and  C_5
REMARK    5  A    between atoms: C_5  and  N_6
REMARK    6  A    between atoms: N_6  and  C_7
REMARK    7  A    between atoms: N_6  and  S_14
REMARK    8  A    between atoms: C_7  and  C_8
REMARK    9  A    between atoms: S_14  and  C_17
REMARK                            x       y       z     vdW  Elec       q    Type
REMARK                         _______ _______ _______ _____ _____    ______ ____
ROOT
ATOM      1  S   UNL     1       3.382   3.772  17.504  0.00  0.00    +0.000 S 
ATOM      2  O   UNL     1       2.230   3.451  16.683  0.00  0.00    +0.000 OA
ATOM      3  O   UNL     1       4.060   2.757  18.279  0.00  0.00    +0.000 OA
ENDROOT
BRANCH   1   4
ATOM      4  C   UNL     1       2.796   4.998  18.655  0.00  0.00    +0.000 A 
ATOM      5  C   UNL     1       2.436   4.636  19.956  0.00  0.00    +0.000 A 
ATOM      6  C   UNL     1       1.935   5.604  20.828  0.00  0.00    +0.000 A 
ATOM      7  C   UNL     1       1.757   6.913  20.374  0.00  0.00    +0.000 A 
ATOM      8  N   UNL     1       1.386   7.926  21.269  0.00  0.00    +0.000 N 
ATOM      9  C   UNL     1       1.273   9.243  20.904  0.00  0.00    +0.000 A 
ATOM     10  O   UNL     1       1.135  10.144  21.723  0.00  0.00    +0.000 OA
ATOM     11  C   UNL     1       1.304   9.533  19.450  0.00  0.00    +0.000 A 
ATOM     12  C   UNL     1       1.645   8.588  18.564  0.00  0.00    +0.000 A 
ATOM     13  C   UNL     1       1.995   7.247  19.035  0.00  0.00    +0.000 A 
ATOM     14  C   UNL     1       2.536   6.292  18.178  0.00  0.00    +0.000 A 
ATOM     15  H   UNL     1       1.319   7.735  22.260  0.00  0.00    +0.000 HD
ENDBRANCH   1   4
BRANCH   1  16
ATOM     16  N   UNL     1       4.542   4.603  16.520  0.00  0.00    +0.000 NA
BRANCH  16  17
ATOM     17  C   UNL     1       5.127   5.826  17.184  0.00  0.00    +0.000 C 
BRANCH  17  18
ATOM     18  C   UNL     1       6.074   5.518  18.375  0.00  0.00    +0.000 C 
BRANCH  18  20
ATOM     19  C   UNL     1       7.555   7.271  17.606  0.00  0.00    +0.000 C 
ATOM     20  N   UNL     1       7.484   5.915  18.167  0.00  0.00    +0.000 NA
ATOM     21  C   UNL     1       8.277   5.853  19.393  0.00  0.00    +0.000 C 
ENDBRANCH  18  20
ENDBRANCH  17  18
ENDBRANCH  16  17
BRANCH  16  22
ATOM     22  C   UNL     1       5.560   3.671  15.916  0.00  0.00    +0.000 C 
BRANCH  22  23
ATOM     23  C   UNL     1       6.075   4.070  14.557  0.00  0.00    +0.000 A 
ATOM     24  C   UNL     1       5.529   3.495  13.401  0.00  0.00    +0.000 A 
ATOM     25  C   UNL     1       6.134   3.672  12.160  0.00  0.00    +0.000 A 
ATOM     26  C   UNL     1       7.271   4.468  12.051  0.00  0.00    +0.000 A 
ATOM     27  C   UNL     1       7.771   5.119  13.176  0.00  0.00    +0.000 A 
ATOM     28  C   UNL     1       7.172   4.932  14.421  0.00  0.00    +0.000 A 
ENDBRANCH  22  23
ENDBRANCH  16  22
ENDBRANCH   1  16
TORSDOF 7
ENDMDL
MODEL 8
REMARK VINA RESULT:      -6.6      2.145      4.717
REMARK  Name = 
REMARK  9 active torsions:
REMARK  status: ('A' for Active; 'I' for Inactive)
REMARK    1  A    between atoms: C_1  and  N_2
REMARK    2  A    between atoms: N_2  and  C_3
REMARK    3  A    between atoms: N_2  and  C_4
REMARK    4  A    between atoms: C_4  and  C_5
REMARK    5  A    between atoms: C_5  and  N_6
REMARK    6  A    between atoms: N_6  and  C_7
REMARK    7  A    between atoms: N_6  and  S_14
REMARK    8  A    between atoms: C_7  and  C_8
REMARK    9  A    between atoms: S_14  and  C_17
REMARK                            x       y       z     vdW  Elec       q    Type
REMARK                         _______ _______ _______ _____ _____    ______ ____
ROOT
ATOM      1  S   UNL     1       4.650   4.321  17.878  0.00  0.00    +0.000 S 
ATOM      2  O   UNL     1       3.793   3.713  16.877  0.00  0.00    +0.000 OA
ATOM      3  O   UNL     1       5.234   3.538  18.944  0.00  0.00    +0.000 OA
ENDROOT
BRANCH   1   4
ATOM      4  C   UNL     1       3.640   5.571  18.645  0.00  0.00    +0.000 A 
ATOM      5  C   UNL     1       3.037   5.334  19.884  0.00  0.00    +0.000 A 
ATOM      6  C   UNL     1       2.211   6.309  20.447  0.00  0.00    +0.000 A 
ATOM      7  C   UNL     1       1.962   7.489  19.743  0.00  0.00    +0.000 A 
ATOM      8  N   UNL     1       1.249   8.534  20.348  0.00  0.00    +0.000 N 
ATOM      9  C   UNL     1       1.040   9.746  19.741  0.00  0.00    +0.000 A 
ATOM     10  O   UNL     1       0.585  10.713  20.342  0.00  0.00    +0.000 OA
ATOM     11  C   UNL     1       1.372   9.833  18.299  0.00  0.00    +0.000 A 
ATOM     12  C   UNL     1       2.044   8.850  17.685  0.00  0.00    +0.000 A 
ATOM     13  C   UNL     1       2.460   7.671  18.447  0.00  0.00    +0.000 A 
ATOM     14  C   UNL     1       3.319   6.719  17.904  0.00  0.00    +0.000 A 
ATOM     15  H   UNL     1       0.978   8.474  21.320  0.00  0.00    +0.000 HD
ENDBRANCH   1   4
BRANCH   1  16
ATOM     16  N   UNL     1       5.904   5.199  17.065  0.00  0.00    +0.000 NA
BRANCH  16  17
ATOM     17  C   UNL     1       6.584   6.224  17.941  0.00  0.00    +0.000 C 
BRANCH  17  18
ATOM     18  C   UNL     1       6.958   7.543  17.213  0.00  0.00    +0.000 C 
BRANCH  18  20
ATOM     19  C   UNL     1       7.975   9.660  17.796  0.00  0.00    +0.000 C 
ATOM     20  N   UNL     1       8.180   8.207  17.717  0.00  0.00    +0.000 NA
ATOM     21  C   UNL     1       8.601   7.704  19.024  0.00  0.00    +0.000 C 
ENDBRANCH  18  20
ENDBRANCH  17  18
ENDBRANCH  16  17
BRANCH  16  22
ATOM     22  C   UNL     1       6.846   4.296  16.311  0.00  0.00    +0.000 C 
BRANCH  22  23
ATOM     23  C   UNL     1       6.798   4.421  14.811  0.00  0.00    +0.000 A 
ATOM     24  C   UNL     1       5.923   3.618  14.065  0.00  0.00    +0.000 A 
ATOM     25  C   UNL     1       6.020   3.550  12.679  0.00  0.00    +0.000 A 
ATOM     26  C   UNL     1       6.965   4.324  12.012  0.00  0.00    +0.000 A 
ATOM     27  C   UNL     1       7.780   5.196  12.732  0.00  0.00    +0.000 A 
ATOM     28  C   UNL     1       7.691   5.255  14.122  0.00  0.00    +0.000 A 
ENDBRANCH  22  23
ENDBRANCH  16  22
ENDBRANCH   1  16
TORSDOF 7
ENDMDL
MODEL 9
REMARK VINA RESULT:      -6.5      8.525     12.068
REMARK  Name = 
REMARK  9 active torsions:
REMARK  status: ('A' for Active; 'I' for Inactive)
REMARK    1  A    between atoms: C_1  and  N_2
REMARK    2  A    between atoms: N_2  and  C_3
REMARK    3  A    between atoms: N_2  and  C_4
REMARK    4  A    between atoms: C_4  and  C_5
REMARK    5  A    between atoms: C_5  and  N_6
REMARK    6  A    between atoms: N_6  and  C_7
REMARK    7  A    between atoms: N_6  and  S_14
REMARK    8  A    between atoms: C_7  and  C_8
REMARK    9  A    between atoms: S_14  and  C_17
REMARK                            x       y       z     vdW  Elec       q    Type
REMARK                         _______ _______ _______ _____ _____    ______ ____
ROOT
ATOM      1  S   UNL     1      -4.362  13.295  21.554  0.00  0.00    +0.000 S 
ATOM      2  O   UNL     1      -4.998  12.283  22.376  0.00  0.00    +0.000 OA
ATOM      3  O   UNL     1      -4.881  14.642  21.483  0.00  0.00    +0.000 OA
ENDROOT
BRANCH   1   4
ATOM      4  C   UNL     1      -4.406  12.634  19.900  0.00  0.00    +0.000 A 
ATOM      5  C   UNL     1      -5.585  12.677  19.150  0.00  0.00    +0.000 A 
ATOM      6  C   UNL     1      -5.611  12.112  17.873  0.00  0.00    +0.000 A 
ATOM      7  C   UNL     1      -4.472  11.471  17.382  0.00  0.00    +0.000 A 
ATOM      8  N   UNL     1      -4.434  11.019  16.055  0.00  0.00    +0.000 N 
ATOM      9  C   UNL     1      -3.321  10.453  15.489  0.00  0.00    +0.000 A 
ATOM     10  O   UNL     1      -3.232  10.235  14.286  0.00  0.00    +0.000 OA
ATOM     11  C   UNL     1      -2.218  10.091  16.411  0.00  0.00    +0.000 A 
ATOM     12  C   UNL     1      -2.224  10.497  17.688  0.00  0.00    +0.000 A 
ATOM     13  C   UNL     1      -3.334  11.313  18.183  0.00  0.00    +0.000 A 
ATOM     14  C   UNL     1      -3.293  11.915  19.438  0.00  0.00    +0.000 A 
ATOM     15  H   UNL     1      -5.197  11.221  15.423  0.00  0.00    +0.000 HD
ENDBRANCH   1   4
BRANCH   1  16
ATOM     16  N   UNL     1      -2.679  13.356  21.964  0.00  0.00    +0.000 NA
BRANCH  16  17
ATOM     17  C   UNL     1      -2.194  14.744  22.308  0.00  0.00    +0.000 C 
BRANCH  17  18
ATOM     18  C   UNL     1      -1.442  14.844  23.661  0.00  0.00    +0.000 C 
BRANCH  18  20
ATOM     19  C   UNL     1      -3.507  15.694  24.590  0.00  0.00    +0.000 C 
ATOM     20  N   UNL     1      -2.041  15.778  24.640  0.00  0.00    +0.000 NA
ATOM     21  C   UNL     1      -1.585  15.535  26.007  0.00  0.00    +0.000 C 
ENDBRANCH  18  20
ENDBRANCH  17  18
ENDBRANCH  16  17
BRANCH  16  22
ATOM     22  C   UNL     1      -2.288  12.292  22.957  0.00  0.00    +0.000 C 
BRANCH  22  23
ATOM     23  C   UNL     1      -1.164  11.387  22.525  0.00  0.00    +0.000 A 
ATOM     24  C   UNL     1      -0.445  11.667  21.354  0.00  0.00    +0.000 A 
ATOM     25  C   UNL     1       0.436  10.735  20.815  0.00  0.00    +0.000 A 
ATOM     26  C   UNL     1       0.647   9.524  21.468  0.00  0.00    +0.000 A 
ATOM     27  C   UNL     1       0.009   9.269  22.680  0.00  0.00    +0.000 A 
ATOM     28  C   UNL     1      -0.883  10.199  23.214  0.00  0.00    +0.000 A 
ENDBRANCH  22  23
ENDBRANCH  16  22
ENDBRANCH   1  16
TORSDOF 7
ENDMDL
