MODEL 1
REMARK VINA RESULT:      -7.7      0.000      0.000
REMARK  Name = 
REMARK  12 active torsions:
REMARK  status: ('A' for Active; 'I' for Inactive)
REMARK    1  A    between atoms: C_1  and  C_2
REMARK    2  A    between atoms: C_2  and  C_3
REMARK    3  A    between atoms: C_2  and  C_4
REMARK    4  A    between atoms: C_4  and  N_5
REMARK    5  A    between atoms: N_5  and  N_6
REMARK    6  A    between atoms: N_5  and  C_24
REMARK    7  A    between atoms: C_7  and  C_9
REMARK    8  A    between atoms: C_9  and  C_10
REMARK    9  A    between atoms: C_13  and  C_14
REMARK   10  A    between atoms: C_14  and  N_15
REMARK   11  A    between atoms: N_18  and  C_19
REMARK   12  A    between atoms: C_26  and  C_27
REMARK                            x       y       z     vdW  Elec       q    Type
REMARK                         _______ _______ _______ _____ _____    ______ ____
ROOT
ATOM      1  N   UNL     1       3.895   6.724  18.089  0.00  0.00    +0.000 N 
ATOM      2  C   UNL     1       2.801   7.492  18.482  0.00  0.00    +0.000 C 
ATOM      3  O   UNL     1       2.259   7.409  19.588  0.00  0.00    +0.000 OA
ATOM      4  H   UNL     1       4.181   6.674  17.116  0.00  0.00    +0.000 HD
ENDROOT
BRANCH   1   5
ATOM      5  N   UNL     1       4.457   5.741  18.983  0.00  0.00    +0.000 N 
BRANCH   5   6
ATOM      6  C   UNL     1       3.790   4.484  18.932  0.00  0.00    +0.000 A 
ATOM      7  N   UNL     1       3.087   4.151  20.048  0.00  0.00    +0.000 NA
ATOM      8  C   UNL     1       2.533   2.929  20.147  0.00  0.00    +0.000 A 
ATOM      9  N   UNL     1       2.563   1.988  19.199  0.00  0.00    +0.000 NA
ATOM     10  C   UNL     1       3.218   2.338  18.080  0.00  0.00    +0.000 A 
ATOM     11  C   UNL     1       3.848   3.553  17.883  0.00  0.00    +0.000 A 
ATOM     12 BR   UNL     1       4.607   3.735  16.148  0.00  0.00    +0.000 Br
BRANCH   8  13
ATOM     13  C   UNL     1       1.861   2.589  21.372  0.00  0.00    +0.000 C 
ATOM     14  N   UNL     1       1.273   2.307  22.349  0.00  0.00    +0.000 NA
ENDBRANCH   8  13
ENDBRANCH   5   6
BRANCH   5  15
ATOM     15  C   UNL     1       5.922   5.729  19.142  0.00  0.00    +0.000 C 
BRANCH  15  17
ATOM     16  C   UNL     1       7.656   7.179  17.932  0.00  0.00    +0.000 C 
ATOM     17  C   UNL     1       6.809   5.911  17.902  0.00  0.00    +0.000 C 
ATOM     18  C   UNL     1       7.756   4.692  17.827  0.00  0.00    +0.000 C 
ENDBRANCH  15  17
ENDBRANCH   5  15
ENDBRANCH   1   5
BRANCH   2  19
ATOM     19  C   UNL     1       2.241   8.510  17.485  0.00  0.00    +0.000 C 
BRANCH  19  20
ATOM     20  C   UNL     1       1.320   9.595  17.991  0.00  0.00    +0.000 A 
ATOM     21  C   UNL     1      -0.072   9.442  17.947  0.00  0.00    +0.000 A 
ATOM     22  C   UNL     1      -0.916  10.450  18.430  0.00  0.00    +0.000 A 
ATOM     23  C   UNL     1      -0.382  11.632  18.958  0.00  0.00    +0.000 A 
ATOM     24  C   UNL     1       1.012  11.769  19.023  0.00  0.00    +0.000 A 
ATOM     25  C   UNL     1       1.854  10.756  18.562  0.00  0.00    +0.000 A 
BRANCH  23  26
ATOM     26  C   UNL     1      -1.276  12.722  19.519  0.00  0.00    +0.000 C 
BRANCH  26  27
ATOM     27  N   UNL     1      -2.088  12.294  20.667  0.00  0.00    +0.000 NA
ATOM     28  C   UNL     1      -3.271  13.167  20.821  0.00  0.00    +0.000 C 
ATOM     29  C   UNL     1      -4.151  12.752  22.027  0.00  0.00    +0.000 C 
ATOM     30  N   UNL     1      -3.437  12.652  23.317  0.00  0.00    +0.000 NA
ATOM     31  C   UNL     1      -3.119  13.967  23.866  0.00  0.00    +0.000 C 
ATOM     32  C   UNL     1      -2.218  11.844  23.126  0.00  0.00    +0.000 C 
ATOM     33  C   UNL     1      -1.335  12.284  21.937  0.00  0.00    +0.000 C 
ENDBRANCH  26  27
ENDBRANCH  23  26
ENDBRANCH  19  20
ENDBRANCH   2  19
TORSDOF 9
ENDMDL
MODEL 2
REMARK VINA RESULT:      -7.3      1.008      1.491
REMARK  Name = 
REMARK  12 active torsions:
REMARK  status: ('A' for Active; 'I' for Inactive)
REMARK    1  A    between atoms: C_1  and  C_2
REMARK    2  A    between atoms: C_2  and  C_3
REMARK    3  A    between atoms: C_2  and  C_4
REMARK    4  A    between atoms: C_4  and  N_5
REMARK    5  A    between atoms: N_5  and  N_6
REMARK    6  A    between atoms: N_5  and  C_24
REMARK    7  A    between atoms: C_7  and  C_9
REMARK    8  A    between atoms: C_9  and  C_10
REMARK    9  A    between atoms: C_13  and  C_14
REMARK   10  A    between atoms: C_14  and  N_15
REMARK   11  A    between atoms: N_18  and  C_19
REMARK   12  A    between atoms: C_26  and  C_27
REMARK                            x       y       z     vdW  Elec       q    Type
REMARK                         _______ _______ _______ _____ _____    ______ ____
ROOT
ATOM      1  N   UNL     1       3.892   6.651  18.055  0.00  0.00    +0.000 N 
ATOM      2  C   UNL     1       2.846   7.473  18.471  0.00  0.00    +0.000 C 
ATOM      3  O   UNL     1       2.344   7.439  19.598  0.00  0.00    +0.000 OA
ATOM      4  H   UNL     1       4.137   6.566  17.074  0.00  0.00    +0.000 HD
ENDROOT
BRANCH   1   5
ATOM      5  N   UNL     1       4.446   5.665  18.952  0.00  0.00    +0.000 N 
BRANCH   5   6
ATOM      6  C   UNL     1       3.761   4.418  18.914  0.00  0.00    +0.000 A 
ATOM      7  N   UNL     1       3.043   4.112  20.029  0.00  0.00    +0.000 NA
ATOM      8  C   UNL     1       2.470   2.900  20.141  0.00  0.00    +0.000 A 
ATOM      9  N   UNL     1       2.494   1.944  19.209  0.00  0.00    +0.000 NA
ATOM     10  C   UNL     1       3.164   2.267  18.090  0.00  0.00    +0.000 A 
ATOM     11  C   UNL     1       3.815   3.470  17.880  0.00  0.00    +0.000 A 
ATOM     12 BR   UNL     1       4.591   3.614  16.150  0.00  0.00    +0.000 Br
BRANCH   8  13
ATOM     13  C   UNL     1       1.782   2.589  21.365  0.00  0.00    +0.000 C 
ATOM     14  N   UNL     1       1.239   2.293  22.364  0.00  0.00    +0.000 NA
ENDBRANCH   8  13
ENDBRANCH   5   6
BRANCH   5  15
ATOM     15  C   UNL     1       5.912   5.633  19.100  0.00  0.00    +0.000 C 
BRANCH  15  17
ATOM     16  C   UNL     1       7.635   7.119  17.918  0.00  0.00    +0.000 C 
ATOM     17  C   UNL     1       6.792   5.849  17.861  0.00  0.00    +0.000 C 
ATOM     18  C   UNL     1       7.743   4.635  17.752  0.00  0.00    +0.000 C 
ENDBRANCH  15  17
ENDBRANCH   5  15
ENDBRANCH   1   5
BRANCH   2  19
ATOM     19  C   UNL     1       2.291   8.491  17.471  0.00  0.00    +0.000 C 
BRANCH  19  20
ATOM     20  C   UNL     1       1.557   9.702  17.995  0.00  0.00    +0.000 A 
ATOM     21  C   UNL     1       2.235  10.898  18.269  0.00  0.00    +0.000 A 
ATOM     22  C   UNL     1       1.542  12.018  18.744  0.00  0.00    +0.000 A 
ATOM     23  C   UNL     1       0.160  11.959  18.961  0.00  0.00    +0.000 A 
ATOM     24  C   UNL     1      -0.518  10.768  18.662  0.00  0.00    +0.000 A 
ATOM     25  C   UNL     1       0.169   9.658  18.169  0.00  0.00    +0.000 A 
BRANCH  23  26
ATOM     26  C   UNL     1      -0.617  13.171  19.442  0.00  0.00    +0.000 C 
BRANCH  26  27
ATOM     27  N   UNL     1      -0.481  13.432  20.883  0.00  0.00    +0.000 NA
ATOM     28  C   UNL     1      -1.442  12.613  21.652  0.00  0.00    +0.000 C 
ATOM     29  C   UNL     1      -1.336  12.864  23.176  0.00  0.00    +0.000 C 
ATOM     30  N   UNL     1      -1.450  14.280  23.586  0.00  0.00    +0.000 NA
ATOM     31  C   UNL     1      -2.825  14.763  23.496  0.00  0.00    +0.000 C 
ATOM     32  C   UNL     1      -0.543  15.092  22.755  0.00  0.00    +0.000 C 
ATOM     33  C   UNL     1      -0.677  14.852  21.235  0.00  0.00    +0.000 C 
ENDBRANCH  26  27
ENDBRANCH  23  26
ENDBRANCH  19  20
ENDBRANCH   2  19
TORSDOF 9
ENDMDL
MODEL 3
REMARK VINA RESULT:      -7.2      4.070      8.699
REMARK  Name = 
REMARK  12 active torsions:
REMARK  status: ('A' for Active; 'I' for Inactive)
REMARK    1  A    between atoms: C_1  and  C_2
REMARK    2  A    between atoms: C_2  and  C_3
REMARK    3  A    between atoms: C_2  and  C_4
REMARK    4  A    between atoms: C_4  and  N_5
REMARK    5  A    between atoms: N_5  and  N_6
REMARK    6  A    between atoms: N_5  and  C_24
REMARK    7  A    between atoms: C_7  and  C_9
REMARK    8  A    between atoms: C_9  and  C_10
REMARK    9  A    between atoms: C_13  and  C_14
REMARK   10  A    between atoms: C_14  and  N_15
REMARK   11  A    between atoms: N_18  and  C_19
REMARK   12  A    between atoms: C_26  and  C_27
REMARK                            x       y       z     vdW  Elec       q    Type
REMARK                         _______ _______ _______ _____ _____    ______ ____
ROOT
ATOM      1  N   UNL     1       4.356   5.221  17.431  0.00  0.00    +0.000 N 
ATOM      2  C   UNL     1       5.619   4.889  17.916  0.00  0.00    +0.000 C 
ATOM      3  O   UNL     1       5.817   4.144  18.880  0.00  0.00    +0.000 OA
ATOM      4  H   UNL     1       4.227   5.986  16.776  0.00  0.00    +0.000 HD
ENDROOT
BRANCH   1   5
ATOM      5  N   UNL     1       3.169   4.708  18.073  0.00  0.00    +0.000 N 
BRANCH   5   6
ATOM      6  C   UNL     1       2.535   5.654  18.927  0.00  0.00    +0.000 A 
ATOM      7  N   UNL     1       2.343   6.889  18.389  0.00  0.00    +0.000 NA
ATOM      8  C   UNL     1       1.873   7.886  19.161  0.00  0.00    +0.000 A 
ATOM      9  N   UNL     1       1.515   7.769  20.442  0.00  0.00    +0.000 NA
ATOM     10  C   UNL     1       1.662   6.537  20.956  0.00  0.00    +0.000 A 
ATOM     11  C   UNL     1       2.162   5.448  20.264  0.00  0.00    +0.000 A 
ATOM     12 BR   UNL     1       2.154   3.841  21.281  0.00  0.00    +0.000 Br
BRANCH   8  13
ATOM     13  C   UNL     1       1.753   9.194  18.575  0.00  0.00    +0.000 C 
ATOM     14  N   UNL     1       1.676  10.246  18.058  0.00  0.00    +0.000 NA
ENDBRANCH   8  13
ENDBRANCH   5   6
BRANCH   5  15
ATOM     15  C   UNL     1       2.304   3.816  17.281  0.00  0.00    +0.000 C 
BRANCH  15  17
ATOM     16  C   UNL     1       3.444   1.802  18.385  0.00  0.00    +0.000 C 
ATOM     17  C   UNL     1       2.207   2.334  17.668  0.00  0.00    +0.000 C 
ATOM     18  C   UNL     1       0.991   2.179  18.610  0.00  0.00    +0.000 C 
ENDBRANCH  15  17
ENDBRANCH   5  15
ENDBRANCH   1   5
BRANCH   2  19
ATOM     19  C   UNL     1       6.840   5.474  17.200  0.00  0.00    +0.000 C 
BRANCH  19  20
ATOM     20  C   UNL     1       7.495   6.710  17.769  0.00  0.00    +0.000 A 
ATOM     21  C   UNL     1       8.206   6.664  18.976  0.00  0.00    +0.000 A 
ATOM     22  C   UNL     1       8.819   7.814  19.487  0.00  0.00    +0.000 A 
ATOM     23  C   UNL     1       8.723   9.033  18.805  0.00  0.00    +0.000 A 
ATOM     24  C   UNL     1       8.032   9.069  17.585  0.00  0.00    +0.000 A 
ATOM     25  C   UNL     1       7.440   7.918  17.064  0.00  0.00    +0.000 A 
BRANCH  23  26
ATOM     26  C   UNL     1       9.408  10.284  19.323  0.00  0.00    +0.000 C 
BRANCH  26  27
ATOM     27  N   UNL     1       9.630  11.311  18.294  0.00  0.00    +0.000 NA
ATOM     28  C   UNL     1      11.072  11.608  18.159  0.00  0.00    +0.000 C 
ATOM     29  C   UNL     1      11.347  12.693  17.088  0.00  0.00    +0.000 C 
ATOM     30  N   UNL     1      10.595  13.953  17.265  0.00  0.00    +0.000 NA
ATOM     31  C   UNL     1      11.126  14.754  18.364  0.00  0.00    +0.000 C 
ATOM     32  C   UNL     1       9.171  13.633  17.478  0.00  0.00    +0.000 C 
ATOM     33  C   UNL     1       8.908  12.570  18.567  0.00  0.00    +0.000 C 
ENDBRANCH  26  27
ENDBRANCH  23  26
ENDBRANCH  19  20
ENDBRANCH   2  19
TORSDOF 9
ENDMDL
MODEL 4
REMARK VINA RESULT:      -7.2      0.982      1.180
REMARK  Name = 
REMARK  12 active torsions:
REMARK  status: ('A' for Active; 'I' for Inactive)
REMARK    1  A    between atoms: C_1  and  C_2
REMARK    2  A    between atoms: C_2  and  C_3
REMARK    3  A    between atoms: C_2  and  C_4
REMARK    4  A    between atoms: C_4  and  N_5
REMARK    5  A    between atoms: N_5  and  N_6
REMARK    6  A    between atoms: N_5  and  C_24
REMARK    7  A    between atoms: C_7  and  C_9
REMARK    8  A    between atoms: C_9  and  C_10
REMARK    9  A    between atoms: C_13  and  C_14
REMARK   10  A    between atoms: C_14  and  N_15
REMARK   11  A    between atoms: N_18  and  C_19
REMARK   12  A    between atoms: C_26  and  C_27
REMARK                            x       y       z     vdW  Elec       q    Type
REMARK                         _______ _______ _______ _____ _____    ______ ____
ROOT
ATOM      1  N   UNL     1       3.832   6.736  18.110  0.00  0.00    +0.000 N 
ATOM      2  C   UNL     1       2.773   7.525  18.554  0.00  0.00    +0.000 C 
ATOM      3  O   UNL     1       2.271   7.441  19.679  0.00  0.00    +0.000 OA
ATOM      4  H   UNL     1       4.080   6.692  17.127  0.00  0.00    +0.000 HD
ENDROOT
BRANCH   1   5
ATOM      5  N   UNL     1       4.402   5.727  18.970  0.00  0.00    +0.000 N 
BRANCH   5   6
ATOM      6  C   UNL     1       3.715   4.482  18.911  0.00  0.00    +0.000 A 
ATOM      7  N   UNL     1       3.025   4.141  20.034  0.00  0.00    +0.000 NA
ATOM      8  C   UNL     1       2.454   2.927  20.124  0.00  0.00    +0.000 A 
ATOM      9  N   UNL     1       2.454   2.000  19.162  0.00  0.00    +0.000 NA
ATOM     10  C   UNL     1       3.097   2.357  18.038  0.00  0.00    +0.000 A 
ATOM     11  C   UNL     1       3.742   3.566  17.848  0.00  0.00    +0.000 A 
ATOM     12 BR   UNL     1       4.475   3.763  16.104  0.00  0.00    +0.000 Br
BRANCH   8  13
ATOM     13  C   UNL     1       1.797   2.579  21.354  0.00  0.00    +0.000 C 
ATOM     14  N   UNL     1       1.222   2.315  22.344  0.00  0.00    +0.000 NA
ENDBRANCH   8  13
ENDBRANCH   5   6
BRANCH   5  15
ATOM     15  C   UNL     1       5.870   5.691  19.091  0.00  0.00    +0.000 C 
BRANCH  15  17
ATOM     16  C   UNL     1       7.608   7.137  17.882  0.00  0.00    +0.000 C 
ATOM     17  C   UNL     1       6.728   5.891  17.834  0.00  0.00    +0.000 C 
ATOM     18  C   UNL     1       7.641   4.652  17.694  0.00  0.00    +0.000 C 
ENDBRANCH  15  17
ENDBRANCH   5  15
ENDBRANCH   1   5
BRANCH   2  19
ATOM     19  C   UNL     1       2.203   8.571  17.592  0.00  0.00    +0.000 C 
BRANCH  19  20
ATOM     20  C   UNL     1       1.129   9.509  18.088  0.00  0.00    +0.000 A 
ATOM     21  C   UNL     1      -0.207   9.356  17.691  0.00  0.00    +0.000 A 
ATOM     22  C   UNL     1      -1.197  10.225  18.168  0.00  0.00    +0.000 A 
ATOM     23  C   UNL     1      -0.866  11.267  19.042  0.00  0.00    +0.000 A 
ATOM     24  C   UNL     1       0.467  11.401  19.455  0.00  0.00    +0.000 A 
ATOM     25  C   UNL     1       1.450  10.522  18.998  0.00  0.00    +0.000 A 
BRANCH  23  26
ATOM     26  C   UNL     1      -1.927  12.199  19.597  0.00  0.00    +0.000 C 
BRANCH  26  27
ATOM     27  N   UNL     1      -1.498  12.948  20.788  0.00  0.00    +0.000 NA
ATOM     28  C   UNL     1      -2.427  12.712  21.913  0.00  0.00    +0.000 C 
ATOM     29  C   UNL     1      -2.013  13.492  23.186  0.00  0.00    +0.000 C 
ATOM     30  N   UNL     1      -1.821  14.945  22.996  0.00  0.00    +0.000 NA
ATOM     31  C   UNL     1      -3.093  15.647  22.853  0.00  0.00    +0.000 C 
ATOM     32  C   UNL     1      -0.956  15.163  21.821  0.00  0.00    +0.000 C 
ATOM     33  C   UNL     1      -1.395  14.402  20.551  0.00  0.00    +0.000 C 
ENDBRANCH  26  27
ENDBRANCH  23  26
ENDBRANCH  19  20
ENDBRANCH   2  19
TORSDOF 9
ENDMDL
MODEL 5
REMARK VINA RESULT:      -7.1      2.823      4.949
REMARK  Name = 
REMARK  12 active torsions:
REMARK  status: ('A' for Active; 'I' for Inactive)
REMARK    1  A    between atoms: C_1  and  C_2
REMARK    2  A    between atoms: C_2  and  C_3
REMARK    3  A    between atoms: C_2  and  C_4
REMARK    4  A    between atoms: C_4  and  N_5
REMARK    5  A    between atoms: N_5  and  N_6
REMARK    6  A    between atoms: N_5  and  C_24
REMARK    7  A    between atoms: C_7  and  C_9
REMARK    8  A    between atoms: C_9  and  C_10
REMARK    9  A    between atoms: C_13  and  C_14
REMARK   10  A    between atoms: C_14  and  N_15
REMARK   11  A    between atoms: N_18  and  C_19
REMARK   12  A    between atoms: C_26  and  C_27
REMARK                            x       y       z     vdW  Elec       q    Type
REMARK                         _______ _______ _______ _____ _____    ______ ____
ROOT
ATOM      1  N   UNL     1       3.989   5.030  19.329  0.00  0.00    +0.000 N 
ATOM      2  C   UNL     1       2.715   5.594  19.326  0.00  0.00    +0.000 C 
ATOM      3  O   UNL     1       1.809   5.254  18.560  0.00  0.00    +0.000 OA
ATOM      4  H   UNL     1       4.758   5.468  19.826  0.00  0.00    +0.000 HD
ENDROOT
BRANCH   1   5
ATOM      5  N   UNL     1       4.331   3.994  18.384  0.00  0.00    +0.000 N 
BRANCH   5   6
ATOM      6  C   UNL     1       5.387   4.360  17.502  0.00  0.00    +0.000 A 
ATOM      7  N   UNL     1       5.174   4.080  16.188  0.00  0.00    +0.000 NA
ATOM      8  C   UNL     1       6.164   4.267  15.297  0.00  0.00    +0.000 A 
ATOM      9  N   UNL     1       7.371   4.767  15.576  0.00  0.00    +0.000 NA
ATOM     10  C   UNL     1       7.562   5.085  16.867  0.00  0.00    +0.000 A 
ATOM     11  C   UNL     1       6.626   4.908  17.870  0.00  0.00    +0.000 A 
ATOM     12 BR   UNL     1       7.208   5.545  19.565  0.00  0.00    +0.000 Br
BRANCH   8  13
ATOM     13  C   UNL     1       5.923   3.891  13.930  0.00  0.00    +0.000 C 
ATOM     14  N   UNL     1       5.762   3.609  12.801  0.00  0.00    +0.000 NA
ENDBRANCH   8  13
ENDBRANCH   5   6
BRANCH   5  15
ATOM     15  C   UNL     1       4.296   2.601  18.864  0.00  0.00    +0.000 C 
BRANCH  15  17
ATOM     16  C   UNL     1       1.998   2.045  19.857  0.00  0.00    +0.000 C 
ATOM     17  C   UNL     1       2.995   1.798  18.729  0.00  0.00    +0.000 C 
ATOM     18  C   UNL     1       2.334   2.207  17.394  0.00  0.00    +0.000 C 
ENDBRANCH  15  17
ENDBRANCH   5  15
ENDBRANCH   1   5
BRANCH   2  19
ATOM     19  C   UNL     1       2.415   6.698  20.344  0.00  0.00    +0.000 C 
BRANCH  19  20
ATOM     20  C   UNL     1       1.836   8.003  19.854  0.00  0.00    +0.000 A 
ATOM     21  C   UNL     1       1.064   8.815  20.696  0.00  0.00    +0.000 A 
ATOM     22  C   UNL     1       0.542  10.030  20.235  0.00  0.00    +0.000 A 
ATOM     23  C   UNL     1       0.777  10.450  18.919  0.00  0.00    +0.000 A 
ATOM     24  C   UNL     1       1.570   9.646  18.088  0.00  0.00    +0.000 A 
ATOM     25  C   UNL     1       2.109   8.446  18.554  0.00  0.00    +0.000 A 
BRANCH  23  26
ATOM     26  C   UNL     1       0.250  11.778  18.408  0.00  0.00    +0.000 C 
BRANCH  26  27
ATOM     27  N   UNL     1       0.683  12.936  19.204  0.00  0.00    +0.000 NA
ATOM     28  C   UNL     1      -0.321  14.019  19.134  0.00  0.00    +0.000 C 
ATOM     29  C   UNL     1       0.102  15.262  19.955  0.00  0.00    +0.000 C 
ATOM     30  N   UNL     1       1.438  15.802  19.630  0.00  0.00    +0.000 NA
ATOM     31  C   UNL     1       1.442  16.513  18.355  0.00  0.00    +0.000 C 
ATOM     32  C   UNL     1       2.413  14.695  19.627  0.00  0.00    +0.000 C 
ATOM     33  C   UNL     1       1.992  13.472  18.782  0.00  0.00    +0.000 C 
ENDBRANCH  26  27
ENDBRANCH  23  26
ENDBRANCH  19  20
ENDBRANCH   2  19
TORSDOF 9
ENDMDL
MODEL 6
REMARK VINA RESULT:      -7.1      1.978      2.605
REMARK  Name = 
REMARK  12 active torsions:
REMARK  status: ('A' for Active; 'I' for Inactive)
REMARK    1  A    between atoms: C_1  and  C_2
REMARK    2  A    between atoms: C_2  and  C_3
REMARK    3  A    between atoms: C_2  and  C_4
REMARK    4  A    between atoms: C_4  and  N_5
REMARK    5  A    between atoms: N_5  and  N_6
REMARK    6  A    between atoms: N_5  and  C_24
REMARK    7  A    between atoms: C_7  and  C_9
REMARK    8  A    between atoms: C_9  and  C_10
REMARK    9  A    between atoms: C_13  and  C_14
REMARK   10  A    between atoms: C_14  and  N_15
REMARK   11  A    between atoms: N_18  and  C_19
REMARK   12  A    between atoms: C_26  and  C_27
REMARK                            x       y       z     vdW  Elec       q    Type
REMARK                         _______ _______ _______ _____ _____    ______ ____
ROOT
ATOM      1  N   UNL     1       3.855   6.684  18.047  0.00  0.00    +0.000 N 
ATOM      2  C   UNL     1       2.796   7.490  18.461  0.00  0.00    +0.000 C 
ATOM      3  O   UNL     1       2.290   7.443  19.586  0.00  0.00    +0.000 OA
ATOM      4  H   UNL     1       4.107   6.608  17.067  0.00  0.00    +0.000 HD
ENDROOT
BRANCH   1   5
ATOM      5  N   UNL     1       4.418   5.700  18.941  0.00  0.00    +0.000 N 
BRANCH   5   6
ATOM      6  C   UNL     1       3.745   4.446  18.896  0.00  0.00    +0.000 A 
ATOM      7  N   UNL     1       3.033   4.125  20.011  0.00  0.00    +0.000 NA
ATOM      8  C   UNL     1       2.473   2.907  20.117  0.00  0.00    +0.000 A 
ATOM      9  N   UNL     1       2.505   1.958  19.178  0.00  0.00    +0.000 NA
ATOM     10  C   UNL     1       3.169   2.295  18.060  0.00  0.00    +0.000 A 
ATOM     11  C   UNL     1       3.806   3.506  17.856  0.00  0.00    +0.000 A 
ATOM     12 BR   UNL     1       4.576   3.669  16.125  0.00  0.00    +0.000 Br
BRANCH   8  13
ATOM     13  C   UNL     1       1.791   2.581  21.340  0.00  0.00    +0.000 C 
ATOM     14  N   UNL     1       1.233   2.360  22.350  0.00  0.00    +0.000 NA
ENDBRANCH   8  13
ENDBRANCH   5   6
BRANCH   5  15
ATOM     15  C   UNL     1       5.883   5.683  19.093  0.00  0.00    +0.000 C 
BRANCH  15  17
ATOM     16  C   UNL     1       7.557   7.168  17.842  0.00  0.00    +0.000 C 
ATOM     17  C   UNL     1       6.765   5.864  17.849  0.00  0.00    +0.000 C 
ATOM     18  C   UNL     1       7.762   4.684  17.812  0.00  0.00    +0.000 C 
ENDBRANCH  15  17
ENDBRANCH   5  15
ENDBRANCH   1   5
BRANCH   2  19
ATOM     19  C   UNL     1       2.234   8.507  17.464  0.00  0.00    +0.000 C 
BRANCH  19  20
ATOM     20  C   UNL     1       1.502   9.716  17.992  0.00  0.00    +0.000 A 
ATOM     21  C   UNL     1       2.182  10.909  18.274  0.00  0.00    +0.000 A 
ATOM     22  C   UNL     1       1.490  12.030  18.751  0.00  0.00    +0.000 A 
ATOM     23  C   UNL     1       0.107  11.973  18.964  0.00  0.00    +0.000 A 
ATOM     24  C   UNL     1      -0.573  10.785  18.657  0.00  0.00    +0.000 A 
ATOM     25  C   UNL     1       0.113   9.676  18.160  0.00  0.00    +0.000 A 
BRANCH  23  26
ATOM     26  C   UNL     1      -0.668  13.184  19.449  0.00  0.00    +0.000 C 
BRANCH  26  27
ATOM     27  N   UNL     1       0.183  14.296  19.896  0.00  0.00    +0.000 NA
ATOM     28  C   UNL     1      -0.110  14.641  21.303  0.00  0.00    +0.000 C 
ATOM     29  C   UNL     1       0.763  15.816  21.810  0.00  0.00    +0.000 C 
ATOM     30  N   UNL     1       0.715  17.037  20.979  0.00  0.00    +0.000 NA
ATOM     31  C   UNL     1      -0.542  17.760  21.147  0.00  0.00    +0.000 C 
ATOM     32  C   UNL     1       0.931  16.663  19.568  0.00  0.00    +0.000 C 
ATOM     33  C   UNL     1       0.035  15.508  19.067  0.00  0.00    +0.000 C 
ENDBRANCH  26  27
ENDBRANCH  23  26
ENDBRANCH  19  20
ENDBRANCH   2  19
TORSDOF 9
ENDMDL
MODEL 7
REMARK VINA RESULT:      -7.1      2.423      4.126
REMARK  Name = 
REMARK  12 active torsions:
REMARK  status: ('A' for Active; 'I' for Inactive)
REMARK    1  A    between atoms: C_1  and  C_2
REMARK    2  A    between atoms: C_2  and  C_3
REMARK    3  A    between atoms: C_2  and  C_4
REMARK    4  A    between atoms: C_4  and  N_5
REMARK    5  A    between atoms: N_5  and  N_6
REMARK    6  A    between atoms: N_5  and  C_24
REMARK    7  A    between atoms: C_7  and  C_9
REMARK    8  A    between atoms: C_9  and  C_10
REMARK    9  A    between atoms: C_13  and  C_14
REMARK   10  A    between atoms: C_14  and  N_15
REMARK   11  A    between atoms: N_18  and  C_19
REMARK   12  A    between atoms: C_26  and  C_27
REMARK                            x       y       z     vdW  Elec       q    Type
REMARK                         _______ _______ _______ _____ _____    ______ ____
ROOT
ATOM      1  N   UNL     1       3.800   6.743  18.346  0.00  0.00    +0.000 N 
ATOM      2  C   UNL     1       2.492   7.046  17.972  0.00  0.00    +0.000 C 
ATOM      3  O   UNL     1       1.649   6.201  17.656  0.00  0.00    +0.000 OA
ATOM      4  H   UNL     1       4.513   7.463  18.400  0.00  0.00    +0.000 HD
ENDROOT
BRANCH   1   5
ATOM      5  N   UNL     1       4.257   5.373  18.362  0.00  0.00    +0.000 N 
BRANCH   5   6
ATOM      6  C   UNL     1       5.368   5.139  17.504  0.00  0.00    +0.000 A 
ATOM      7  N   UNL     1       5.056   4.826  16.216  0.00  0.00    +0.000 NA
ATOM      8  C   UNL     1       6.031   4.459  15.364  0.00  0.00    +0.000 A 
ATOM      9  N   UNL     1       7.334   4.415  15.653  0.00  0.00    +0.000 NA
ATOM     10  C   UNL     1       7.642   4.770  16.912  0.00  0.00    +0.000 A 
ATOM     11  C   UNL     1       6.721   5.136  17.877  0.00  0.00    +0.000 A 
ATOM     12 BR   UNL     1       7.520   5.653  19.523  0.00  0.00    +0.000 Br
BRANCH   8  13
ATOM     13  C   UNL     1       5.652   4.066  14.034  0.00  0.00    +0.000 C 
ATOM     14  N   UNL     1       5.325   3.705  12.965  0.00  0.00    +0.000 NA
ENDBRANCH   8  13
ENDBRANCH   5   6
BRANCH   5  15
ATOM     15  C   UNL     1       4.232   4.666  19.654  0.00  0.00    +0.000 C 
BRANCH  15  17
ATOM     16  C   UNL     1       1.877   4.538  20.661  0.00  0.00    +0.000 C 
ATOM     17  C   UNL     1       3.025   3.782  19.998  0.00  0.00    +0.000 C 
ATOM     18  C   UNL     1       2.508   3.168  18.677  0.00  0.00    +0.000 C 
ENDBRANCH  15  17
ENDBRANCH   5  15
ENDBRANCH   1   5
BRANCH   2  19
ATOM     19  C   UNL     1       2.070   8.518  17.963  0.00  0.00    +0.000 C 
BRANCH  19  20
ATOM     20  C   UNL     1       1.412   9.094  19.194  0.00  0.00    +0.000 A 
ATOM     21  C   UNL     1       0.793  10.352  19.163  0.00  0.00    +0.000 A 
ATOM     22  C   UNL     1       0.175  10.871  20.307  0.00  0.00    +0.000 A 
ATOM     23  C   UNL     1       0.173  10.145  21.505  0.00  0.00    +0.000 A 
ATOM     24  C   UNL     1       0.771   8.877  21.524  0.00  0.00    +0.000 A 
ATOM     25  C   UNL     1       1.368   8.349  20.378  0.00  0.00    +0.000 A 
BRANCH  23  26
ATOM     26  C   UNL     1      -0.520  10.672  22.747  0.00  0.00    +0.000 C 
BRANCH  26  27
ATOM     27  N   UNL     1      -1.436  11.792  22.488  0.00  0.00    +0.000 NA
ATOM     28  C   UNL     1      -0.753  13.084  22.706  0.00  0.00    +0.000 C 
ATOM     29  C   UNL     1      -1.688  14.292  22.450  0.00  0.00    +0.000 C 
ATOM     30  N   UNL     1      -2.960  14.269  23.203  0.00  0.00    +0.000 NA
ATOM     31  C   UNL     1      -2.762  14.589  24.614  0.00  0.00    +0.000 C 
ATOM     32  C   UNL     1      -3.589  12.946  23.038  0.00  0.00    +0.000 C 
ATOM     33  C   UNL     1      -2.653  11.750  23.323  0.00  0.00    +0.000 C 
ENDBRANCH  26  27
ENDBRANCH  23  26
ENDBRANCH  19  20
ENDBRANCH   2  19
TORSDOF 9
ENDMDL
MODEL 8
REMARK VINA RESULT:      -7.0      3.065     10.060
REMARK  Name = 
REMARK  12 active torsions:
REMARK  status: ('A' for Active; 'I' for Inactive)
REMARK    1  A    between atoms: C_1  and  C_2
REMARK    2  A    between atoms: C_2  and  C_3
REMARK    3  A    between atoms: C_2  and  C_4
REMARK    4  A    between atoms: C_4  and  N_5
REMARK    5  A    between atoms: N_5  and  N_6
REMARK    6  A    between atoms: N_5  and  C_24
REMARK    7  A    between atoms: C_7  and  C_9
REMARK    8  A    between atoms: C_9  and  C_10
REMARK    9  A    between atoms: C_13  and  C_14
REMARK   10  A    between atoms: C_14  and  N_15
REMARK   11  A    between atoms: N_18  and  C_19
REMARK   12  A    between atoms: C_26  and  C_27
REMARK                            x       y       z     vdW  Elec       q    Type
REMARK                         _______ _______ _______ _____ _____    ______ ____
ROOT
ATOM      1  N   UNL     1       1.038  10.626  20.636  0.00  0.00    +0.000 N 
ATOM      2  C   UNL     1       0.483   9.394  20.979  0.00  0.00    +0.000 C 
ATOM      3  O   UNL     1      -0.728   9.155  20.976  0.00  0.00    +0.000 OA
ATOM      4  H   UNL     1       2.007  10.843  20.844  0.00  0.00    +0.000 HD
ENDROOT
BRANCH   1   5
ATOM      5  N   UNL     1       0.187  11.732  20.267  0.00  0.00    +0.000 N 
BRANCH   5   6
ATOM      6  C   UNL     1       0.302  12.849  21.143  0.00  0.00    +0.000 A 
ATOM      7  N   UNL     1      -0.688  12.970  22.068  0.00  0.00    +0.000 NA
ATOM      8  C   UNL     1      -0.739  14.062  22.852  0.00  0.00    +0.000 A 
ATOM      9  N   UNL     1       0.150  15.059  22.846  0.00  0.00    +0.000 NA
ATOM     10  C   UNL     1       1.152  14.914  21.963  0.00  0.00    +0.000 A 
ATOM     11  C   UNL     1       1.287  13.848  21.091  0.00  0.00    +0.000 A 
ATOM     12 BR   UNL     1       2.870  13.930  20.040  0.00  0.00    +0.000 Br
BRANCH   8  13
ATOM     13  C   UNL     1      -1.842  14.187  23.766  0.00  0.00    +0.000 C 
ATOM     14  N   UNL     1      -2.753  14.244  24.504  0.00  0.00    +0.000 NA
ENDBRANCH   8  13
ENDBRANCH   5   6
BRANCH   5  15
ATOM     15  C   UNL     1       0.020  12.007  18.830  0.00  0.00    +0.000 C 
BRANCH  15  17
ATOM     16  C   UNL     1      -1.313  10.127  17.705  0.00  0.00    +0.000 C 
ATOM     17  C   UNL     1      -1.285  11.590  18.137  0.00  0.00    +0.000 C 
ATOM     18  C   UNL     1      -2.438  11.826  19.139  0.00  0.00    +0.000 C 
ENDBRANCH  15  17
ENDBRANCH   5  15
ENDBRANCH   1   5
BRANCH   2  19
ATOM     19  C   UNL     1       1.436   8.262  21.373  0.00  0.00    +0.000 C 
BRANCH  19  20
ATOM     20  C   UNL     1       1.884   7.285  20.313  0.00  0.00    +0.000 A 
ATOM     21  C   UNL     1       2.317   7.728  19.056  0.00  0.00    +0.000 A 
ATOM     22  C   UNL     1       2.743   6.813  18.085  0.00  0.00    +0.000 A 
ATOM     23  C   UNL     1       2.733   5.438  18.351  0.00  0.00    +0.000 A 
ATOM     24  C   UNL     1       2.322   5.001  19.619  0.00  0.00    +0.000 A 
ATOM     25  C   UNL     1       1.919   5.914  20.595  0.00  0.00    +0.000 A 
BRANCH  23  26
ATOM     26  C   UNL     1       3.221   4.431  17.326  0.00  0.00    +0.000 C 
BRANCH  26  27
ATOM     27  N   UNL     1       4.679   4.431  17.139  0.00  0.00    +0.000 NA
ATOM     28  C   UNL     1       5.365   4.794  18.397  0.00  0.00    +0.000 C 
ATOM     29  C   UNL     1       6.906   4.813  18.239  0.00  0.00    +0.000 C 
ATOM     30  N   UNL     1       7.411   5.657  17.136  0.00  0.00    +0.000 NA
ATOM     31  C   UNL     1       7.322   7.079  17.455  0.00  0.00    +0.000 C 
ATOM     32  C   UNL     1       6.661   5.337  15.907  0.00  0.00    +0.000 C 
ATOM     33  C   UNL     1       5.126   5.348  16.072  0.00  0.00    +0.000 C 
ENDBRANCH  26  27
ENDBRANCH  23  26
ENDBRANCH  19  20
ENDBRANCH   2  19
TORSDOF 9
ENDMDL
MODEL 9
REMARK VINA RESULT:      -7.0      2.422      4.171
REMARK  Name = 
REMARK  12 active torsions:
REMARK  status: ('A' for Active; 'I' for Inactive)
REMARK    1  A    between atoms: C_1  and  C_2
REMARK    2  A    between atoms: C_2  and  C_3
REMARK    3  A    between atoms: C_2  and  C_4
REMARK    4  A    between atoms: C_4  and  N_5
REMARK    5  A    between atoms: N_5  and  N_6
REMARK    6  A    between atoms: N_5  and  C_24
REMARK    7  A    between atoms: C_7  and  C_9
REMARK    8  A    between atoms: C_9  and  C_10
REMARK    9  A    between atoms: C_13  and  C_14
REMARK   10  A    between atoms: C_14  and  N_15
REMARK   11  A    between atoms: N_18  and  C_19
REMARK   12  A    between atoms: C_26  and  C_27
REMARK                            x       y       z     vdW  Elec       q    Type
REMARK                         _______ _______ _______ _____ _____    ______ ____
ROOT
ATOM      1  N   UNL     1       3.843   6.629  18.260  0.00  0.00    +0.000 N 
ATOM      2  C   UNL     1       2.518   6.977  18.005  0.00  0.00    +0.000 C 
ATOM      3  O   UNL     1       1.621   6.162  17.771  0.00  0.00    +0.000 OA
ATOM      4  H   UNL     1       4.582   7.325  18.245  0.00  0.00    +0.000 HD
ENDROOT
BRANCH   1   5
ATOM      5  N   UNL     1       4.252   5.245  18.239  0.00  0.00    +0.000 N 
BRANCH   5   6
ATOM      6  C   UNL     1       5.433   5.016  17.478  0.00  0.00    +0.000 A 
ATOM      7  N   UNL     1       5.232   4.684  16.174  0.00  0.00    +0.000 NA
ATOM      8  C   UNL     1       6.278   4.321  15.409  0.00  0.00    +0.000 A 
ATOM      9  N   UNL     1       7.553   4.299  15.805  0.00  0.00    +0.000 NA
ATOM     10  C   UNL     1       7.753   4.672  17.079  0.00  0.00    +0.000 A 
ATOM     11  C   UNL     1       6.751   5.036  17.961  0.00  0.00    +0.000 A 
ATOM     12 BR   UNL     1       7.405   5.584  19.661  0.00  0.00    +0.000 Br
BRANCH   8  13
ATOM     13  C   UNL     1       6.014   3.907  14.058  0.00  0.00    +0.000 C 
ATOM     14  N   UNL     1       5.775   3.533  12.970  0.00  0.00    +0.000 NA
ENDBRANCH   8  13
ENDBRANCH   5   6
BRANCH   5  15
ATOM     15  C   UNL     1       4.080   4.470  19.480  0.00  0.00    +0.000 C 
BRANCH  15  17
ATOM     16  C   UNL     1       2.406   2.813  18.468  0.00  0.00    +0.000 C 
ATOM     17  C   UNL     1       2.794   3.655  19.679  0.00  0.00    +0.000 C 
ATOM     18  C   UNL     1       3.027   2.709  20.879  0.00  0.00    +0.000 C 
ENDBRANCH  15  17
ENDBRANCH   5  15
ENDBRANCH   1   5
BRANCH   2  19
ATOM     19  C   UNL     1       2.148   8.463  18.029  0.00  0.00    +0.000 C 
BRANCH  19  20
ATOM     20  C   UNL     1       1.459   9.023  19.250  0.00  0.00    +0.000 A 
ATOM     21  C   UNL     1       1.422   8.305  20.454  0.00  0.00    +0.000 A 
ATOM     22  C   UNL     1       0.791   8.840  21.584  0.00  0.00    +0.000 A 
ATOM     23  C   UNL     1       0.178  10.098  21.527  0.00  0.00    +0.000 A 
ATOM     24  C   UNL     1       0.239  10.822  20.328  0.00  0.00    +0.000 A 
ATOM     25  C   UNL     1       0.887  10.299  19.208  0.00  0.00    +0.000 A 
BRANCH  23  26
ATOM     26  C   UNL     1      -0.481  10.711  22.748  0.00  0.00    +0.000 C 
BRANCH  26  27
ATOM     27  N   UNL     1      -1.407  11.810  22.436  0.00  0.00    +0.000 NA
ATOM     28  C   UNL     1      -0.747  13.118  22.636  0.00  0.00    +0.000 C 
ATOM     29  C   UNL     1      -1.694  14.304  22.324  0.00  0.00    +0.000 C 
ATOM     30  N   UNL     1      -2.983  14.283  23.047  0.00  0.00    +0.000 NA
ATOM     31  C   UNL     1      -2.824  14.642  24.453  0.00  0.00    +0.000 C 
ATOM     32  C   UNL     1      -3.589  12.946  22.902  0.00  0.00    +0.000 C 
ATOM     33  C   UNL     1      -2.643  11.772  23.243  0.00  0.00    +0.000 C 
ENDBRANCH  26  27
ENDBRANCH  23  26
ENDBRANCH  19  20
ENDBRANCH   2  19
TORSDOF 9
ENDMDL
