MODEL 1
REMARK VINA RESULT:      -6.8      0.000      0.000
REMARK  Name = 
REMARK  2 active torsions:
REMARK  status: ('A' for Active; 'I' for Inactive)
REMARK    1  A    between atoms: C_1  and  N_2
REMARK    2  A    between atoms: C_9  and  N_10
REMARK                            x       y       z     vdW  Elec       q    Type
REMARK                         _______ _______ _______ _____ _____    ______ ____
ROOT
ATOM      1  C   UNL     1       4.854   6.915  15.989  0.00  0.00    +0.000 C 
ATOM      2  N   UNL     1       5.324   5.990  17.006  0.00  0.00    +0.000 N 
ATOM      3  C   UNL     1       6.771   5.909  17.252  0.00  0.00    +0.000 C 
ATOM      4  C   UNL     1       7.208   4.586  17.877  0.00  0.00    +0.000 C 
ATOM      5  O   UNL     1       8.339   4.123  17.737  0.00  0.00    +0.000 OA
ATOM      6  N   UNL     1       6.300   3.977  18.705  0.00  0.00    +0.000 N 
ATOM      7  C   UNL     1       4.971   4.407  18.815  0.00  0.00    +0.000 A 
ATOM      8  C   UNL     1       4.149   3.767  19.747  0.00  0.00    +0.000 A 
ATOM      9  C   UNL     1       2.805   4.138  19.835  0.00  0.00    +0.000 A 
ATOM     10  C   UNL     1       2.287   5.129  18.997  0.00  0.00    +0.000 A 
ATOM     11  C   UNL     1       3.124   5.754  18.062  0.00  0.00    +0.000 A 
ATOM     12  C   UNL     1       4.482   5.417  17.953  0.00  0.00    +0.000 A 
ATOM     13  H   UNL     1       6.625   3.154  19.195  0.00  0.00    +0.000 HD
ENDROOT
BRANCH   9  14
ATOM     14  N   UNL     1       1.930   3.473  20.808  0.00  0.00    +0.000 N 
ATOM     15  O   UNL     1       0.812   3.105  20.421  0.00  0.00    +0.000 OA
ATOM     16  O   UNL     1       2.362   3.319  21.956  0.00  0.00    +0.000 OA
ENDBRANCH   9  14
TORSDOF 1
ENDMDL
MODEL 2
REMARK VINA RESULT:      -6.8      2.146      4.800
REMARK  Name = 
REMARK  2 active torsions:
REMARK  status: ('A' for Active; 'I' for Inactive)
REMARK    1  A    between atoms: C_1  and  N_2
REMARK    2  A    between atoms: C_9  and  N_10
REMARK                            x       y       z     vdW  Elec       q    Type
REMARK                         _______ _______ _______ _____ _____    ______ ____
ROOT
ATOM      1  C   UNL     1       1.531   4.399  20.825  0.00  0.00    +0.000 C 
ATOM      2  N   UNL     1       2.767   3.924  20.230  0.00  0.00    +0.000 N 
ATOM      3  C   UNL     1       3.133   2.513  20.428  0.00  0.00    +0.000 C 
ATOM      4  C   UNL     1       4.629   2.246  20.281  0.00  0.00    +0.000 C 
ATOM      5  O   UNL     1       5.198   1.309  20.838  0.00  0.00    +0.000 OA
ATOM      6  N   UNL     1       5.305   3.051  19.399  0.00  0.00    +0.000 N 
ATOM      7  C   UNL     1       4.729   4.190  18.822  0.00  0.00    +0.000 A 
ATOM      8  C   UNL     1       5.477   4.895  17.874  0.00  0.00    +0.000 A 
ATOM      9  C   UNL     1       4.948   6.067  17.327  0.00  0.00    +0.000 A 
ATOM     10  C   UNL     1       3.693   6.532  17.727  0.00  0.00    +0.000 A 
ATOM     11  C   UNL     1       2.961   5.816  18.685  0.00  0.00    +0.000 A 
ATOM     12  C   UNL     1       3.453   4.629  19.248  0.00  0.00    +0.000 A 
ATOM     13  H   UNL     1       6.273   2.811  19.229  0.00  0.00    +0.000 HD
ENDROOT
BRANCH   9  14
ATOM     14  N   UNL     1       5.724   6.819  16.333  0.00  0.00    +0.000 N 
ATOM     15  O   UNL     1       5.291   6.857  15.172  0.00  0.00    +0.000 OA
ATOM     16  O   UNL     1       6.763   7.370  16.714  0.00  0.00    +0.000 OA
ENDBRANCH   9  14
TORSDOF 1
ENDMDL
MODEL 3
REMARK VINA RESULT:      -6.7      2.256      5.200
REMARK  Name = 
REMARK  2 active torsions:
REMARK  status: ('A' for Active; 'I' for Inactive)
REMARK    1  A    between atoms: C_1  and  N_2
REMARK    2  A    between atoms: C_9  and  N_10
REMARK                            x       y       z     vdW  Elec       q    Type
REMARK                         _______ _______ _______ _____ _____    ______ ____
ROOT
ATOM      1  C   UNL     1       2.792   6.708  19.359  0.00  0.00    +0.000 C 
ATOM      2  N   UNL     1       3.447   5.466  18.988  0.00  0.00    +0.000 N 
ATOM      3  C   UNL     1       3.008   4.228  19.649  0.00  0.00    +0.000 C 
ATOM      4  C   UNL     1       4.064   3.126  19.641  0.00  0.00    +0.000 C 
ATOM      5  O   UNL     1       4.111   2.239  20.492  0.00  0.00    +0.000 OA
ATOM      6  N   UNL     1       4.912   3.107  18.562  0.00  0.00    +0.000 N 
ATOM      7  C   UNL     1       4.967   4.148  17.626  0.00  0.00    +0.000 A 
ATOM      8  C   UNL     1       5.809   3.992  16.521  0.00  0.00    +0.000 A 
ATOM      9  C   UNL     1       5.925   5.040  15.603  0.00  0.00    +0.000 A 
ATOM     10  C   UNL     1       5.217   6.230  15.793  0.00  0.00    +0.000 A 
ATOM     11  C   UNL     1       4.384   6.371  16.912  0.00  0.00    +0.000 A 
ATOM     12  C   UNL     1       4.231   5.336  17.848  0.00  0.00    +0.000 A 
ATOM     13  H   UNL     1       5.547   2.321  18.508  0.00  0.00    +0.000 HD
ENDROOT
BRANCH   9  14
ATOM     14  N   UNL     1       6.807   4.891  14.439  0.00  0.00    +0.000 N 
ATOM     15  O   UNL     1       7.855   5.551  14.422  0.00  0.00    +0.000 OA
ATOM     16  O   UNL     1       6.450   4.115  13.545  0.00  0.00    +0.000 OA
ENDBRANCH   9  14
TORSDOF 1
ENDMDL
MODEL 4
REMARK VINA RESULT:      -6.7      2.353      5.399
REMARK  Name = 
REMARK  2 active torsions:
REMARK  status: ('A' for Active; 'I' for Inactive)
REMARK    1  A    between atoms: C_1  and  N_2
REMARK    2  A    between atoms: C_9  and  N_10
REMARK                            x       y       z     vdW  Elec       q    Type
REMARK                         _______ _______ _______ _____ _____    ______ ____
ROOT
ATOM      1  C   UNL     1       2.410   6.597  19.522  0.00  0.00    +0.000 C 
ATOM      2  N   UNL     1       2.682   5.362  18.808  0.00  0.00    +0.000 N 
ATOM      3  C   UNL     1       1.712   4.263  18.930  0.00  0.00    +0.000 C 
ATOM      4  C   UNL     1       2.311   2.888  18.647  0.00  0.00    +0.000 C 
ATOM      5  O   UNL     1       1.855   1.850  19.125  0.00  0.00    +0.000 OA
ATOM      6  N   UNL     1       3.336   2.849  17.735  0.00  0.00    +0.000 N 
ATOM      7  C   UNL     1       3.956   4.005  17.245  0.00  0.00    +0.000 A 
ATOM      8  C   UNL     1       4.936   3.857  16.259  0.00  0.00    +0.000 A 
ATOM      9  C   UNL     1       5.609   4.990  15.795  0.00  0.00    +0.000 A 
ATOM     10  C   UNL     1       5.314   6.253  16.316  0.00  0.00    +0.000 A 
ATOM     11  C   UNL     1       4.334   6.381  17.311  0.00  0.00    +0.000 A 
ATOM     12  C   UNL     1       3.627   5.268  17.792  0.00  0.00    +0.000 A 
ATOM     13  H   UNL     1       3.666   1.928  17.476  0.00  0.00    +0.000 HD
ENDROOT
BRANCH   9  14
ATOM     14  N   UNL     1       6.642   4.849  14.762  0.00  0.00    +0.000 N 
ATOM     15  O   UNL     1       7.653   5.559  14.857  0.00  0.00    +0.000 OA
ATOM     16  O   UNL     1       6.441   4.029  13.859  0.00  0.00    +0.000 OA
ENDBRANCH   9  14
TORSDOF 1
ENDMDL
MODEL 5
REMARK VINA RESULT:      -6.6      2.008      4.967
REMARK  Name = 
REMARK  2 active torsions:
REMARK  status: ('A' for Active; 'I' for Inactive)
REMARK    1  A    between atoms: C_1  and  N_2
REMARK    2  A    between atoms: C_9  and  N_10
REMARK                            x       y       z     vdW  Elec       q    Type
REMARK                         _______ _______ _______ _____ _____    ______ ____
ROOT
ATOM      1  C   UNL     1       1.428   3.982  18.769  0.00  0.00    +0.000 C 
ATOM      2  N   UNL     1       2.827   3.641  18.953  0.00  0.00    +0.000 N 
ATOM      3  C   UNL     1       3.149   2.348  19.576  0.00  0.00    +0.000 C 
ATOM      4  C   UNL     1       4.528   2.313  20.228  0.00  0.00    +0.000 C 
ATOM      5  O   UNL     1       4.806   1.563  21.163  0.00  0.00    +0.000 OA
ATOM      6  N   UNL     1       5.495   3.094  19.645  0.00  0.00    +0.000 N 
ATOM      7  C   UNL     1       5.206   4.037  18.651  0.00  0.00    +0.000 A 
ATOM      8  C   UNL     1       6.274   4.724  18.068  0.00  0.00    +0.000 A 
ATOM      9  C   UNL     1       6.008   5.711  17.115  0.00  0.00    +0.000 A 
ATOM     10  C   UNL     1       4.691   6.013  16.757  0.00  0.00    +0.000 A 
ATOM     11  C   UNL     1       3.632   5.320  17.359  0.00  0.00    +0.000 A 
ATOM     12  C   UNL     1       3.860   4.314  18.310  0.00  0.00    +0.000 A 
ATOM     13  H   UNL     1       6.430   2.996  20.017  0.00  0.00    +0.000 HD
ENDROOT
BRANCH   9  14
ATOM     14  N   UNL     1       7.120   6.442  16.496  0.00  0.00    +0.000 N 
ATOM     15  O   UNL     1       7.653   5.942  15.495  0.00  0.00    +0.000 OA
ATOM     16  O   UNL     1       7.458   7.514  17.010  0.00  0.00    +0.000 OA
ENDBRANCH   9  14
TORSDOF 1
ENDMDL
MODEL 6
REMARK VINA RESULT:      -6.5      1.563      1.807
REMARK  Name = 
REMARK  2 active torsions:
REMARK  status: ('A' for Active; 'I' for Inactive)
REMARK    1  A    between atoms: C_1  and  N_2
REMARK    2  A    between atoms: C_9  and  N_10
REMARK                            x       y       z     vdW  Elec       q    Type
REMARK                         _______ _______ _______ _____ _____    ______ ____
ROOT
ATOM      1  C   UNL     1       6.210   3.965  15.333  0.00  0.00    +0.000 C 
ATOM      2  N   UNL     1       6.068   4.384  16.716  0.00  0.00    +0.000 N 
ATOM      3  C   UNL     1       7.102   5.263  17.282  0.00  0.00    +0.000 C 
ATOM      4  C   UNL     1       7.193   5.193  18.805  0.00  0.00    +0.000 C 
ATOM      5  O   UNL     1       8.226   5.446  19.424  0.00  0.00    +0.000 OA
ATOM      6  N   UNL     1       6.022   4.934  19.471  0.00  0.00    +0.000 N 
ATOM      7  C   UNL     1       4.851   4.539  18.813  0.00  0.00    +0.000 A 
ATOM      8  C   UNL     1       3.691   4.377  19.578  0.00  0.00    +0.000 A 
ATOM      9  C   UNL     1       2.524   3.929  18.954  0.00  0.00    +0.000 A 
ATOM     10  C   UNL     1       2.518   3.637  17.588  0.00  0.00    +0.000 A 
ATOM     11  C   UNL     1       3.692   3.797  16.839  0.00  0.00    +0.000 A 
ATOM     12  C   UNL     1       4.880   4.258  17.426  0.00  0.00    +0.000 A 
ATOM     13  H   UNL     1       6.064   4.984  20.480  0.00  0.00    +0.000 HD
ENDROOT
BRANCH   9  14
ATOM     14  N   UNL     1       1.300   3.752  19.745  0.00  0.00    +0.000 N 
ATOM     15  O   UNL     1       1.075   4.568  20.650  0.00  0.00    +0.000 OA
ATOM     16  O   UNL     1       0.567   2.798  19.461  0.00  0.00    +0.000 OA
ENDBRANCH   9  14
TORSDOF 1
ENDMDL
MODEL 7
REMARK VINA RESULT:      -6.5      1.963      4.963
REMARK  Name = 
REMARK  2 active torsions:
REMARK  status: ('A' for Active; 'I' for Inactive)
REMARK    1  A    between atoms: C_1  and  N_2
REMARK    2  A    between atoms: C_9  and  N_10
REMARK                            x       y       z     vdW  Elec       q    Type
REMARK                         _______ _______ _______ _____ _____    ______ ____
ROOT
ATOM      1  C   UNL     1       1.558   4.721  19.999  0.00  0.00    +0.000 C 
ATOM      2  N   UNL     1       2.867   4.137  19.771  0.00  0.00    +0.000 N 
ATOM      3  C   UNL     1       3.066   2.724  20.127  0.00  0.00    +0.000 C 
ATOM      4  C   UNL     1       4.525   2.361  20.390  0.00  0.00    +0.000 C 
ATOM      5  O   UNL     1       4.861   1.431  21.122  0.00  0.00    +0.000 OA
ATOM      6  N   UNL     1       5.463   3.065  19.677  0.00  0.00    +0.000 N 
ATOM      7  C   UNL     1       5.141   4.195  18.915  0.00  0.00    +0.000 A 
ATOM      8  C   UNL     1       6.157   4.791  18.162  0.00  0.00    +0.000 A 
ATOM      9  C   UNL     1       5.874   5.953  17.439  0.00  0.00    +0.000 A 
ATOM     10  C   UNL     1       4.596   6.516  17.474  0.00  0.00    +0.000 A 
ATOM     11  C   UNL     1       3.591   5.909  18.241  0.00  0.00    +0.000 A 
ATOM     12  C   UNL     1       3.833   4.734  18.970  0.00  0.00    +0.000 A 
ATOM     13  H   UNL     1       6.421   2.759  19.779  0.00  0.00    +0.000 HD
ENDROOT
BRANCH   9  14
ATOM     14  N   UNL     1       6.933   6.591  16.647  0.00  0.00    +0.000 N 
ATOM     15  O   UNL     1       7.300   7.726  16.983  0.00  0.00    +0.000 OA
ATOM     16  O   UNL     1       7.395   5.957  15.692  0.00  0.00    +0.000 OA
ENDBRANCH   9  14
TORSDOF 1
ENDMDL
MODEL 8
REMARK VINA RESULT:      -6.4      0.886      1.222
REMARK  Name = 
REMARK  2 active torsions:
REMARK  status: ('A' for Active; 'I' for Inactive)
REMARK    1  A    between atoms: C_1  and  N_2
REMARK    2  A    between atoms: C_9  and  N_10
REMARK                            x       y       z     vdW  Elec       q    Type
REMARK                         _______ _______ _______ _____ _____    ______ ____
ROOT
ATOM      1  C   UNL     1       4.822   6.970  16.058  0.00  0.00    +0.000 C 
ATOM      2  N   UNL     1       5.167   5.970  17.052  0.00  0.00    +0.000 N 
ATOM      3  C   UNL     1       6.522   5.998  17.621  0.00  0.00    +0.000 C 
ATOM      4  C   UNL     1       6.973   4.654  18.187  0.00  0.00    +0.000 C 
ATOM      5  O   UNL     1       8.156   4.327  18.268  0.00  0.00    +0.000 OA
ATOM      6  N   UNL     1       5.987   3.855  18.710  0.00  0.00    +0.000 N 
ATOM      7  C   UNL     1       4.624   4.134  18.549  0.00  0.00    +0.000 A 
ATOM      8  C   UNL     1       3.703   3.300  19.189  0.00  0.00    +0.000 A 
ATOM      9  C   UNL     1       2.338   3.523  18.998  0.00  0.00    +0.000 A 
ATOM     10  C   UNL     1       1.898   4.560  18.171  0.00  0.00    +0.000 A 
ATOM     11  C   UNL     1       2.836   5.382  17.531  0.00  0.00    +0.000 A 
ATOM     12  C   UNL     1       4.216   5.198  17.709  0.00  0.00    +0.000 A 
ATOM     13  H   UNL     1       6.297   3.010  19.171  0.00  0.00    +0.000 HD
ENDROOT
BRANCH   9  14
ATOM     14  N   UNL     1       1.359   2.653  19.662  0.00  0.00    +0.000 N 
ATOM     15  O   UNL     1       1.614   2.271  20.813  0.00  0.00    +0.000 OA
ATOM     16  O   UNL     1       0.339   2.353  19.032  0.00  0.00    +0.000 OA
ENDBRANCH   9  14
TORSDOF 1
ENDMDL
MODEL 9
REMARK VINA RESULT:      -6.4      1.625      1.733
REMARK  Name = 
REMARK  2 active torsions:
REMARK  status: ('A' for Active; 'I' for Inactive)
REMARK    1  A    between atoms: C_1  and  N_2
REMARK    2  A    between atoms: C_9  and  N_10
REMARK                            x       y       z     vdW  Elec       q    Type
REMARK                         _______ _______ _______ _____ _____    ______ ____
ROOT
ATOM      1  C   UNL     1       6.335   4.576  15.235  0.00  0.00    +0.000 C 
ATOM      2  N   UNL     1       6.163   4.674  16.673  0.00  0.00    +0.000 N 
ATOM      3  C   UNL     1       7.056   5.574  17.417  0.00  0.00    +0.000 C 
ATOM      4  C   UNL     1       7.195   5.210  18.893  0.00  0.00    +0.000 C 
ATOM      5  O   UNL     1       8.189   5.495  19.561  0.00  0.00    +0.000 OA
ATOM      6  N   UNL     1       6.099   4.632  19.482  0.00  0.00    +0.000 N 
ATOM      7  C   UNL     1       4.989   4.195  18.747  0.00  0.00    +0.000 A 
ATOM      8  C   UNL     1       3.891   3.693  19.452  0.00  0.00    +0.000 A 
ATOM      9  C   UNL     1       2.796   3.198  18.739  0.00  0.00    +0.000 A 
ATOM     10  C   UNL     1       2.802   3.196  17.342  0.00  0.00    +0.000 A 
ATOM     11  C   UNL     1       3.916   3.695  16.652  0.00  0.00    +0.000 A 
ATOM     12  C   UNL     1       5.028   4.213  17.332  0.00  0.00    +0.000 A 
ATOM     13  H   UNL     1       6.157   4.481  20.480  0.00  0.00    +0.000 HD
ENDROOT
BRANCH   9  14
ATOM     14  N   UNL     1       1.637   2.666  19.466  0.00  0.00    +0.000 N 
ATOM     15  O   UNL     1       0.617   2.406  18.814  0.00  0.00    +0.000 OA
ATOM     16  O   UNL     1       1.749   2.509  20.688  0.00  0.00    +0.000 OA
ENDBRANCH   9  14
TORSDOF 1
ENDMDL
