MODEL 1
REMARK VINA RESULT:      -7.6      0.000      0.000
REMARK  Name = 
REMARK  4 active torsions:
REMARK  status: ('A' for Active; 'I' for Inactive)
REMARK    1  A    between atoms: C_2  and  C_4
REMARK    2  A    between atoms: C_4  and  N_5
REMARK    3  A    between atoms: C_17  and  C_18
REMARK    4  A    between atoms: C_18  and  O_20
REMARK                            x       y       z     vdW  Elec       q    Type
REMARK                         _______ _______ _______ _____ _____    ______ ____
ROOT
ATOM      1  N   UNL     1       4.316   4.473  17.319  0.00  0.00    +0.000 N 
ATOM      2  C   UNL     1       3.487   3.699  18.094  0.00  0.00    +0.000 A 
ATOM      3  C   UNL     1       2.485   4.505  18.592  0.00  0.00    +0.000 A 
ATOM      4  C   UNL     1       2.757   5.835  18.182  0.00  0.00    +0.000 A 
ATOM      5  C   UNL     1       2.139   7.070  18.450  0.00  0.00    +0.000 A 
ATOM      6  C   UNL     1       2.672   8.231  17.891  0.00  0.00    +0.000 A 
ATOM      7 CL   UNL     1       1.930   9.747  18.231  0.00  0.00    +0.000 Cl
ATOM      8  C   UNL     1       3.795   8.182  17.071  0.00  0.00    +0.000 A 
ATOM      9  C   UNL     1       4.427   6.963  16.792  0.00  0.00    +0.000 A 
ATOM     10  C   UNL     1       3.893   5.795  17.366  0.00  0.00    +0.000 A 
ATOM     11  C   UNL     1       1.384   4.006  19.464  0.00  0.00    +0.000 C 
ATOM     12  C   UNL     1       1.355   2.467  19.502  0.00  0.00    +0.000 C 
ATOM     13  C   UNL     1       2.765   1.832  19.591  0.00  0.00    +0.000 C 
ATOM     14  C   UNL     1       3.618   2.235  18.363  0.00  0.00    +0.000 C 
ENDROOT
BRANCH  13  15
ATOM     15  C   UNL     1       3.431   2.175  20.924  0.00  0.00    +0.000 C 
ATOM     16  O   UNL     1       2.837   2.478  21.946  0.00  0.00    +0.000 OA
BRANCH  15  17
ATOM     17  O   UNL     1       4.773   2.033  20.918  0.00  0.00    +0.000 OA
ATOM     18  H   UNL     1       5.282   2.850  20.784  0.00  0.00    +0.000 HD
ENDBRANCH  15  17
ENDBRANCH  13  15
BRANCH   1  19
ATOM     19  C   UNL     1       5.488   3.998  16.595  0.00  0.00    +0.000 C 
BRANCH  19  21
ATOM     20  N   UNL     1       6.807   4.334  18.658  0.00  0.00    +0.000 N 
ATOM     21  C   UNL     1       6.799   4.297  17.295  0.00  0.00    +0.000 C 
ATOM     22  O   UNL     1       7.821   4.571  16.669  0.00  0.00    +0.000 OA
ATOM     23  H   UNL     1       7.688   4.499  19.127  0.00  0.00    +0.000 HD
ATOM     24  H   UNL     1       6.031   4.013  19.226  0.00  0.00    +0.000 HD
ENDBRANCH  19  21
ENDBRANCH   1  19
TORSDOF 4
ENDMDL
MODEL 2
REMARK VINA RESULT:      -7.3      3.125      5.499
REMARK  Name = 
REMARK  4 active torsions:
REMARK  status: ('A' for Active; 'I' for Inactive)
REMARK    1  A    between atoms: C_2  and  C_4
REMARK    2  A    between atoms: C_4  and  N_5
REMARK    3  A    between atoms: C_17  and  C_18
REMARK    4  A    between atoms: C_18  and  O_20
REMARK                            x       y       z     vdW  Elec       q    Type
REMARK                         _______ _______ _______ _____ _____    ______ ____
ROOT
ATOM      1  N   UNL     1       3.438   6.849  18.082  0.00  0.00    +0.000 N 
ATOM      2  C   UNL     1       4.160   6.127  17.163  0.00  0.00    +0.000 A 
ATOM      3  C   UNL     1       4.029   4.789  17.468  0.00  0.00    +0.000 A 
ATOM      4  C   UNL     1       3.275   4.690  18.665  0.00  0.00    +0.000 A 
ATOM      5  C   UNL     1       2.899   3.605  19.479  0.00  0.00    +0.000 A 
ATOM      6  C   UNL     1       2.147   3.848  20.627  0.00  0.00    +0.000 A 
ATOM      7 CL   UNL     1       1.702   2.526  21.637  0.00  0.00    +0.000 Cl
ATOM      8  C   UNL     1       1.761   5.140  20.972  0.00  0.00    +0.000 A 
ATOM      9  C   UNL     1       2.125   6.234  20.177  0.00  0.00    +0.000 A 
ATOM     10  C   UNL     1       2.892   5.987  19.024  0.00  0.00    +0.000 A 
ATOM     11  C   UNL     1       4.662   3.698  16.673  0.00  0.00    +0.000 C 
ATOM     12  C   UNL     1       5.229   4.231  15.344  0.00  0.00    +0.000 C 
ATOM     13  C   UNL     1       5.941   5.599  15.490  0.00  0.00    +0.000 C 
ATOM     14  C   UNL     1       4.953   6.668  16.019  0.00  0.00    +0.000 C 
ENDROOT
BRANCH  13  15
ATOM     15  C   UNL     1       7.199   5.467  16.349  0.00  0.00    +0.000 C 
ATOM     16  O   UNL     1       7.816   4.430  16.532  0.00  0.00    +0.000 OA
BRANCH  15  17
ATOM     17  O   UNL     1       7.650   6.639  16.843  0.00  0.00    +0.000 OA
ATOM     18  H   UNL     1       7.067   7.404  16.709  0.00  0.00    +0.000 HD
ENDBRANCH  15  17
ENDBRANCH  13  15
BRANCH   1  19
ATOM     19  C   UNL     1       3.302   8.300  18.102  0.00  0.00    +0.000 C 
BRANCH  19  21
ATOM     20  N   UNL     1       1.678  10.129  17.742  0.00  0.00    +0.000 N 
ATOM     21  C   UNL     1       1.920   8.787  17.712  0.00  0.00    +0.000 C 
ATOM     22  O   UNL     1       1.009   8.007  17.439  0.00  0.00    +0.000 OA
ATOM     23  H   UNL     1       0.768  10.457  17.448  0.00  0.00    +0.000 HD
ATOM     24  H   UNL     1       2.410  10.821  17.850  0.00  0.00    +0.000 HD
ENDBRANCH  19  21
ENDBRANCH   1  19
TORSDOF 4
ENDMDL
MODEL 3
REMARK VINA RESULT:      -7.0      3.356      4.487
REMARK  Name = 
REMARK  4 active torsions:
REMARK  status: ('A' for Active; 'I' for Inactive)
REMARK    1  A    between atoms: C_2  and  C_4
REMARK    2  A    between atoms: C_4  and  N_5
REMARK    3  A    between atoms: C_17  and  C_18
REMARK    4  A    between atoms: C_18  and  O_20
REMARK                            x       y       z     vdW  Elec       q    Type
REMARK                         _______ _______ _______ _____ _____    ______ ____
ROOT
ATOM      1  N   UNL     1       6.463   5.132  17.554  0.00  0.00    +0.000 N 
ATOM      2  C   UNL     1       5.245   4.877  18.134  0.00  0.00    +0.000 A 
ATOM      3  C   UNL     1       4.433   4.284  17.189  0.00  0.00    +0.000 A 
ATOM      4  C   UNL     1       5.147   4.256  15.964  0.00  0.00    +0.000 A 
ATOM      5  C   UNL     1       4.805   3.850  14.661  0.00  0.00    +0.000 A 
ATOM      6  C   UNL     1       5.752   3.964  13.645  0.00  0.00    +0.000 A 
ATOM      7 CL   UNL     1       5.332   3.486  12.045  0.00  0.00    +0.000 Cl
ATOM      8  C   UNL     1       7.025   4.464  13.903  0.00  0.00    +0.000 A 
ATOM      9  C   UNL     1       7.386   4.876  15.193  0.00  0.00    +0.000 A 
ATOM     10  C   UNL     1       6.424   4.769  16.214  0.00  0.00    +0.000 A 
ATOM     11  C   UNL     1       3.036   3.846  17.464  0.00  0.00    +0.000 C 
ATOM     12  C   UNL     1       2.724   3.882  18.972  0.00  0.00    +0.000 C 
ATOM     13  C   UNL     1       3.300   5.131  19.683  0.00  0.00    +0.000 C 
ATOM     14  C   UNL     1       4.842   5.171  19.542  0.00  0.00    +0.000 C 
ENDROOT
BRANCH  13  15
ATOM     15  C   UNL     1       2.618   6.404  19.182  0.00  0.00    +0.000 C 
ATOM     16  O   UNL     1       2.183   6.567  18.054  0.00  0.00    +0.000 OA
BRANCH  15  17
ATOM     17  O   UNL     1       2.446   7.345  20.134  0.00  0.00    +0.000 OA
ATOM     18  H   UNL     1       1.525   7.593  20.319  0.00  0.00    +0.000 HD
ENDBRANCH  15  17
ENDBRANCH  13  15
BRANCH   1  19
ATOM     19  C   UNL     1       7.610   5.737  18.220  0.00  0.00    +0.000 C 
BRANCH  19  21
ATOM     20  N   UNL     1       8.532   7.953  18.811  0.00  0.00    +0.000 N 
ATOM     21  C   UNL     1       7.747   7.225  17.966  0.00  0.00    +0.000 C 
ATOM     22  O   UNL     1       7.123   7.791  17.071  0.00  0.00    +0.000 OA
ATOM     23  H   UNL     1       8.653   8.939  18.621  0.00  0.00    +0.000 HD
ATOM     24  H   UNL     1       9.153   7.530  19.492  0.00  0.00    +0.000 HD
ENDBRANCH  19  21
ENDBRANCH   1  19
TORSDOF 4
ENDMDL
MODEL 4
REMARK VINA RESULT:      -6.9      1.080      1.105
REMARK  Name = 
REMARK  4 active torsions:
REMARK  status: ('A' for Active; 'I' for Inactive)
REMARK    1  A    between atoms: C_2  and  C_4
REMARK    2  A    between atoms: C_4  and  N_5
REMARK    3  A    between atoms: C_17  and  C_18
REMARK    4  A    between atoms: C_18  and  O_20
REMARK                            x       y       z     vdW  Elec       q    Type
REMARK                         _______ _______ _______ _____ _____    ______ ____
ROOT
ATOM      1  N   UNL     1       4.436   4.537  17.908  0.00  0.00    +0.000 N 
ATOM      2  C   UNL     1       3.432   3.739  18.400  0.00  0.00    +0.000 A 
ATOM      3  C   UNL     1       2.290   4.504  18.515  0.00  0.00    +0.000 A 
ATOM      4  C   UNL     1       2.627   5.836  18.167  0.00  0.00    +0.000 A 
ATOM      5  C   UNL     1       1.905   7.044  18.174  0.00  0.00    +0.000 A 
ATOM      6  C   UNL     1       2.543   8.218  17.775  0.00  0.00    +0.000 A 
ATOM      7 CL   UNL     1       1.669   9.702  17.801  0.00  0.00    +0.000 Cl
ATOM      8  C   UNL     1       3.873   8.208  17.368  0.00  0.00    +0.000 A 
ATOM      9  C   UNL     1       4.611   7.018  17.354  0.00  0.00    +0.000 A 
ATOM     10  C   UNL     1       3.967   5.837  17.766  0.00  0.00    +0.000 A 
ATOM     11  C   UNL     1       0.987   3.969  19.000  0.00  0.00    +0.000 C 
ATOM     12  C   UNL     1       1.010   2.431  19.084  0.00  0.00    +0.000 C 
ATOM     13  C   UNL     1       2.338   1.871  19.649  0.00  0.00    +0.000 C 
ATOM     14  C   UNL     1       3.528   2.290  18.750  0.00  0.00    +0.000 C 
ENDROOT
BRANCH  13  15
ATOM     15  C   UNL     1       2.519   2.276  21.112  0.00  0.00    +0.000 C 
ATOM     16  O   UNL     1       1.611   2.549  21.880  0.00  0.00    +0.000 OA
BRANCH  15  17
ATOM     17  O   UNL     1       3.798   2.227  21.540  0.00  0.00    +0.000 OA
ATOM     18  H   UNL     1       3.966   1.641  22.296  0.00  0.00    +0.000 HD
ENDBRANCH  15  17
ENDBRANCH  13  15
BRANCH   1  19
ATOM     19  C   UNL     1       5.798   4.106  17.622  0.00  0.00    +0.000 C 
BRANCH  19  21
ATOM     20  N   UNL     1       7.405   4.795  15.874  0.00  0.00    +0.000 N 
ATOM     21  C   UNL     1       6.189   4.248  16.164  0.00  0.00    +0.000 C 
ATOM     22  O   UNL     1       5.419   3.950  15.253  0.00  0.00    +0.000 OA
ATOM     23  H   UNL     1       7.681   4.857  14.903  0.00  0.00    +0.000 HD
ATOM     24  H   UNL     1       8.121   4.956  16.573  0.00  0.00    +0.000 HD
ENDBRANCH  19  21
ENDBRANCH   1  19
TORSDOF 4
ENDMDL
MODEL 5
REMARK VINA RESULT:      -6.9      1.175      1.262
REMARK  Name = 
REMARK  4 active torsions:
REMARK  status: ('A' for Active; 'I' for Inactive)
REMARK    1  A    between atoms: C_2  and  C_4
REMARK    2  A    between atoms: C_4  and  N_5
REMARK    3  A    between atoms: C_17  and  C_18
REMARK    4  A    between atoms: C_18  and  O_20
REMARK                            x       y       z     vdW  Elec       q    Type
REMARK                         _______ _______ _______ _____ _____    ______ ____
ROOT
ATOM      1  N   UNL     1       3.700   5.323  17.324  0.00  0.00    +0.000 N 
ATOM      2  C   UNL     1       3.141   4.278  18.020  0.00  0.00    +0.000 A 
ATOM      3  C   UNL     1       2.176   4.789  18.863  0.00  0.00    +0.000 A 
ATOM      4  C   UNL     1       2.206   6.202  18.747  0.00  0.00    +0.000 A 
ATOM      5  C   UNL     1       1.518   7.236  19.409  0.00  0.00    +0.000 A 
ATOM      6  C   UNL     1       1.790   8.559  19.065  0.00  0.00    +0.000 A 
ATOM      7 CL   UNL     1       0.965   9.829  19.886  0.00  0.00    +0.000 Cl
ATOM      8  C   UNL     1       2.720   8.867  18.077  0.00  0.00    +0.000 A 
ATOM      9  C   UNL     1       3.417   7.853  17.406  0.00  0.00    +0.000 A 
ATOM     10  C   UNL     1       3.148   6.520  17.763  0.00  0.00    +0.000 A 
ATOM     11  C   UNL     1       1.341   3.945  19.765  0.00  0.00    +0.000 C 
ATOM     12  C   UNL     1       1.496   2.449  19.433  0.00  0.00    +0.000 C 
ATOM     13  C   UNL     1       2.958   2.042  19.121  0.00  0.00    +0.000 C 
ATOM     14  C   UNL     1       3.490   2.831  17.899  0.00  0.00    +0.000 C 
ENDROOT
BRANCH  13  15
ATOM     15  C   UNL     1       3.839   2.190  20.362  0.00  0.00    +0.000 C 
ATOM     16  O   UNL     1       3.428   2.242  21.510  0.00  0.00    +0.000 OA
BRANCH  15  17
ATOM     17  O   UNL     1       5.162   2.175  20.099  0.00  0.00    +0.000 OA
ATOM     18  H   UNL     1       5.744   2.123  20.875  0.00  0.00    +0.000 HD
ENDBRANCH  15  17
ENDBRANCH  13  15
BRANCH   1  19
ATOM     19  C   UNL     1       4.746   5.207  16.316  0.00  0.00    +0.000 C 
BRANCH  19  21
ATOM     20  N   UNL     1       6.842   6.484  16.604  0.00  0.00    +0.000 N 
ATOM     21  C   UNL     1       6.148   5.342  16.876  0.00  0.00    +0.000 C 
ATOM     22  O   UNL     1       6.689   4.431  17.500  0.00  0.00    +0.000 OA
ATOM     23  H   UNL     1       7.764   6.590  17.007  0.00  0.00    +0.000 HD
ATOM     24  H   UNL     1       6.416   7.307  16.193  0.00  0.00    +0.000 HD
ENDBRANCH  19  21
ENDBRANCH   1  19
TORSDOF 4
ENDMDL
MODEL 6
REMARK VINA RESULT:      -6.9      0.882      1.160
REMARK  Name = 
REMARK  4 active torsions:
REMARK  status: ('A' for Active; 'I' for Inactive)
REMARK    1  A    between atoms: C_2  and  C_4
REMARK    2  A    between atoms: C_4  and  N_5
REMARK    3  A    between atoms: C_17  and  C_18
REMARK    4  A    between atoms: C_18  and  O_20
REMARK                            x       y       z     vdW  Elec       q    Type
REMARK                         _______ _______ _______ _____ _____    ______ ____
ROOT
ATOM      1  N   UNL     1       3.860   5.057  17.236  0.00  0.00    +0.000 N 
ATOM      2  C   UNL     1       3.290   4.057  17.986  0.00  0.00    +0.000 A 
ATOM      3  C   UNL     1       2.331   4.622  18.800  0.00  0.00    +0.000 A 
ATOM      4  C   UNL     1       2.375   6.027  18.608  0.00  0.00    +0.000 A 
ATOM      5  C   UNL     1       1.699   7.103  19.213  0.00  0.00    +0.000 A 
ATOM      6  C   UNL     1       1.984   8.402  18.797  0.00  0.00    +0.000 A 
ATOM      7 CL   UNL     1       1.173   9.723  19.548  0.00  0.00    +0.000 Cl
ATOM      8  C   UNL     1       2.918   8.646  17.795  0.00  0.00    +0.000 A 
ATOM      9  C   UNL     1       3.604   7.591  17.181  0.00  0.00    +0.000 A 
ATOM     10  C   UNL     1       3.321   6.281  17.609  0.00  0.00    +0.000 A 
ATOM     11  C   UNL     1       1.487   3.838  19.745  0.00  0.00    +0.000 C 
ATOM     12  C   UNL     1       1.627   2.324  19.495  0.00  0.00    +0.000 C 
ATOM     13  C   UNL     1       3.084   1.886  19.206  0.00  0.00    +0.000 C 
ATOM     14  C   UNL     1       3.624   2.602  17.944  0.00  0.00    +0.000 C 
ENDROOT
BRANCH  13  15
ATOM     15  C   UNL     1       3.966   2.092  20.438  0.00  0.00    +0.000 C 
ATOM     16  O   UNL     1       5.183   2.182  20.420  0.00  0.00    +0.000 OA
BRANCH  15  17
ATOM     17  O   UNL     1       3.275   2.259  21.585  0.00  0.00    +0.000 OA
ATOM     18  H   UNL     1       2.949   1.444  22.002  0.00  0.00    +0.000 HD
ENDBRANCH  15  17
ENDBRANCH  13  15
BRANCH   1  19
ATOM     19  C   UNL     1       4.905   4.876  16.236  0.00  0.00    +0.000 C 
BRANCH  19  21
ATOM     20  N   UNL     1       6.882   4.274  17.593  0.00  0.00    +0.000 N 
ATOM     21  C   UNL     1       6.299   5.175  16.751  0.00  0.00    +0.000 C 
ATOM     22  O   UNL     1       6.878   6.227  16.486  0.00  0.00    +0.000 OA
ATOM     23  H   UNL     1       7.826   4.455  17.908  0.00  0.00    +0.000 HD
ATOM     24  H   UNL     1       6.506   3.347  17.759  0.00  0.00    +0.000 HD
ENDBRANCH  19  21
ENDBRANCH   1  19
TORSDOF 4
ENDMDL
MODEL 7
REMARK VINA RESULT:      -6.8      2.064      4.695
REMARK  Name = 
REMARK  4 active torsions:
REMARK  status: ('A' for Active; 'I' for Inactive)
REMARK    1  A    between atoms: C_2  and  C_4
REMARK    2  A    between atoms: C_4  and  N_5
REMARK    3  A    between atoms: C_17  and  C_18
REMARK    4  A    between atoms: C_18  and  O_20
REMARK                            x       y       z     vdW  Elec       q    Type
REMARK                         _______ _______ _______ _____ _____    ______ ____
ROOT
ATOM      1  N   UNL     1       4.411   4.126  19.239  0.00  0.00    +0.000 N 
ATOM      2  C   UNL     1       5.332   4.674  18.380  0.00  0.00    +0.000 A 
ATOM      3  C   UNL     1       5.042   6.014  18.236  0.00  0.00    +0.000 A 
ATOM      4  C   UNL     1       3.851   6.279  18.959  0.00  0.00    +0.000 A 
ATOM      5  C   UNL     1       3.050   7.427  19.107  0.00  0.00    +0.000 A 
ATOM      6  C   UNL     1       1.904   7.356  19.897  0.00  0.00    +0.000 A 
ATOM      7 CL   UNL     1       0.911   8.752  20.067  0.00  0.00    +0.000 Cl
ATOM      8  C   UNL     1       1.549   6.175  20.542  0.00  0.00    +0.000 A 
ATOM      9  C   UNL     1       2.330   5.020  20.406  0.00  0.00    +0.000 A 
ATOM     10  C   UNL     1       3.481   5.092  19.600  0.00  0.00    +0.000 A 
ATOM     11  C   UNL     1       5.844   6.944  17.390  0.00  0.00    +0.000 C 
ATOM     12  C   UNL     1       7.163   6.290  16.938  0.00  0.00    +0.000 C 
ATOM     13  C   UNL     1       6.999   4.807  16.523  0.00  0.00    +0.000 C 
ATOM     14  C   UNL     1       6.466   3.969  17.711  0.00  0.00    +0.000 C 
ENDROOT
BRANCH  13  15
ATOM     15  C   UNL     1       6.134   4.688  15.268  0.00  0.00    +0.000 C 
ATOM     16  O   UNL     1       5.069   4.096  15.206  0.00  0.00    +0.000 OA
BRANCH  15  17
ATOM     17  O   UNL     1       6.604   5.382  14.210  0.00  0.00    +0.000 OA
ATOM     18  H   UNL     1       6.216   6.262  14.078  0.00  0.00    +0.000 HD
ENDBRANCH  15  17
ENDBRANCH  13  15
BRANCH   1  19
ATOM     19  C   UNL     1       4.377   2.734  19.670  0.00  0.00    +0.000 C 
BRANCH  19  21
ATOM     20  N   UNL     1       4.144   0.717  18.261  0.00  0.00    +0.000 N 
ATOM     21  C   UNL     1       3.553   1.836  18.768  0.00  0.00    +0.000 C 
ATOM     22  O   UNL     1       2.406   2.128  18.434  0.00  0.00    +0.000 OA
ATOM     23  H   UNL     1       3.585   0.098  17.688  0.00  0.00    +0.000 HD
ATOM     24  H   UNL     1       5.040   0.369  18.584  0.00  0.00    +0.000 HD
ENDBRANCH  19  21
ENDBRANCH   1  19
TORSDOF 4
ENDMDL
MODEL 8
REMARK VINA RESULT:      -6.7      3.162      4.031
REMARK  Name = 
REMARK  4 active torsions:
REMARK  status: ('A' for Active; 'I' for Inactive)
REMARK    1  A    between atoms: C_2  and  C_4
REMARK    2  A    between atoms: C_4  and  N_5
REMARK    3  A    between atoms: C_17  and  C_18
REMARK    4  A    between atoms: C_18  and  O_20
REMARK                            x       y       z     vdW  Elec       q    Type
REMARK                         _______ _______ _______ _____ _____    ______ ____
ROOT
ATOM      1  N   UNL     1       5.643   4.962  18.136  0.00  0.00    +0.000 N 
ATOM      2  C   UNL     1       4.708   4.034  18.525  0.00  0.00    +0.000 A 
ATOM      3  C   UNL     1       4.455   3.202  17.455  0.00  0.00    +0.000 A 
ATOM      4  C   UNL     1       5.193   3.690  16.346  0.00  0.00    +0.000 A 
ATOM      5  C   UNL     1       5.267   3.303  14.994  0.00  0.00    +0.000 A 
ATOM      6  C   UNL     1       6.099   4.013  14.131  0.00  0.00    +0.000 A 
ATOM      7 CL   UNL     1       6.178   3.556  12.473  0.00  0.00    +0.000 Cl
ATOM      8  C   UNL     1       6.858   5.087  14.587  0.00  0.00    +0.000 A 
ATOM      9  C   UNL     1       6.798   5.489  15.928  0.00  0.00    +0.000 A 
ATOM     10  C   UNL     1       5.949   4.777  16.794  0.00  0.00    +0.000 A 
ATOM     11  C   UNL     1       3.503   2.057  17.509  0.00  0.00    +0.000 C 
ATOM     12  C   UNL     1       3.065   1.762  18.956  0.00  0.00    +0.000 C 
ATOM     13  C   UNL     1       2.789   3.042  19.783  0.00  0.00    +0.000 C 
ATOM     14  C   UNL     1       4.065   3.916  19.868  0.00  0.00    +0.000 C 
ENDROOT
BRANCH  13  15
ATOM     15  C   UNL     1       1.580   3.796  19.228  0.00  0.00    +0.000 C 
ATOM     16  O   UNL     1       1.639   4.755  18.475  0.00  0.00    +0.000 OA
BRANCH  15  17
ATOM     17  O   UNL     1       0.393   3.256  19.571  0.00  0.00    +0.000 OA
ATOM     18  H   UNL     1      -0.011   3.608  20.382  0.00  0.00    +0.000 HD
ENDBRANCH  15  17
ENDBRANCH  13  15
BRANCH   1  19
ATOM     19  C   UNL     1       6.197   6.012  18.981  0.00  0.00    +0.000 C 
BRANCH  19  21
ATOM     20  N   UNL     1       8.416   7.101  18.931  0.00  0.00    +0.000 N 
ATOM     21  C   UNL     1       7.706   5.951  19.118  0.00  0.00    +0.000 C 
ATOM     22  O   UNL     1       8.297   4.893  19.324  0.00  0.00    +0.000 OA
ATOM     23  H   UNL     1       9.419   7.069  19.059  0.00  0.00    +0.000 HD
ATOM     24  H   UNL     1       7.983   8.015  18.870  0.00  0.00    +0.000 HD
ENDBRANCH  19  21
ENDBRANCH   1  19
TORSDOF 4
ENDMDL
MODEL 9
REMARK VINA RESULT:      -6.5      1.956      4.627
REMARK  Name = 
REMARK  4 active torsions:
REMARK  status: ('A' for Active; 'I' for Inactive)
REMARK    1  A    between atoms: C_2  and  C_4
REMARK    2  A    between atoms: C_4  and  N_5
REMARK    3  A    between atoms: C_17  and  C_18
REMARK    4  A    between atoms: C_18  and  O_20
REMARK                            x       y       z     vdW  Elec       q    Type
REMARK                         _______ _______ _______ _____ _____    ______ ____
ROOT
ATOM      1  N   UNL     1       4.280   4.644  18.794  0.00  0.00    +0.000 N 
ATOM      2  C   UNL     1       5.424   5.023  18.134  0.00  0.00    +0.000 A 
ATOM      3  C   UNL     1       5.272   6.331  17.724  0.00  0.00    +0.000 A 
ATOM      4  C   UNL     1       3.958   6.740  18.065  0.00  0.00    +0.000 A 
ATOM      5  C   UNL     1       3.225   7.919  17.830  0.00  0.00    +0.000 A 
ATOM      6  C   UNL     1       1.915   8.007  18.296  0.00  0.00    +0.000 A 
ATOM      7 CL   UNL     1       1.008   9.440  17.994  0.00  0.00    +0.000 Cl
ATOM      8  C   UNL     1       1.328   6.953  18.991  0.00  0.00    +0.000 A 
ATOM      9  C   UNL     1       2.038   5.771  19.235  0.00  0.00    +0.000 A 
ATOM     10  C   UNL     1       3.357   5.682  18.755  0.00  0.00    +0.000 A 
ATOM     11  C   UNL     1       6.323   7.091  16.989  0.00  0.00    +0.000 C 
ATOM     12  C   UNL     1       7.666   6.338  16.998  0.00  0.00    +0.000 C 
ATOM     13  C   UNL     1       7.512   4.813  16.776  0.00  0.00    +0.000 C 
ATOM     14  C   UNL     1       6.640   4.189  17.894  0.00  0.00    +0.000 C 
ENDROOT
BRANCH  13  15
ATOM     15  C   UNL     1       6.986   4.519  15.370  0.00  0.00    +0.000 C 
ATOM     16  O   UNL     1       6.099   3.723  15.107  0.00  0.00    +0.000 OA
BRANCH  15  17
ATOM     17  O   UNL     1       7.532   5.293  14.409  0.00  0.00    +0.000 OA
ATOM     18  H   UNL     1       8.501   5.264  14.346  0.00  0.00    +0.000 HD
ENDBRANCH  15  17
ENDBRANCH  13  15
BRANCH   1  19
ATOM     19  C   UNL     1       4.044   3.341  19.401  0.00  0.00    +0.000 C 
BRANCH  19  21
ATOM     20  N   UNL     1       4.151   1.060  18.452  0.00  0.00    +0.000 N 
ATOM     21  C   UNL     1       3.562   2.290  18.419  0.00  0.00    +0.000 C 
ATOM     22  O   UNL     1       2.715   2.541  17.564  0.00  0.00    +0.000 OA
ATOM     23  H   UNL     1       3.806   0.348  17.822  0.00  0.00    +0.000 HD
ATOM     24  H   UNL     1       4.770   0.762  19.198  0.00  0.00    +0.000 HD
ENDBRANCH  19  21
ENDBRANCH   1  19
TORSDOF 4
ENDMDL
