MODEL 1
REMARK VINA RESULT:      -8.2      0.000      0.000
REMARK  Name = 
REMARK  7 active torsions:
REMARK  status: ('A' for Active; 'I' for Inactive)
REMARK    1  A    between atoms: C_1  and  C_2
REMARK    2  A    between atoms: C_2  and  O_3
REMARK    3  A    between atoms: O_3  and  C_4
REMARK    4  A    between atoms: C_4  and  C_6
REMARK    5  A    between atoms: N_10  and  S_11
REMARK    6  A    between atoms: S_11  and  C_14
REMARK    7  A    between atoms: N_23  and  C_24
REMARK                            x       y       z     vdW  Elec       q    Type
REMARK                         _______ _______ _______ _____ _____    ______ ____
ROOT
ATOM      1  S   UNL     1       3.181   4.648  18.711  0.00  0.00    +0.000 S 
ATOM      2  O   UNL     1       2.337   3.941  17.776  0.00  0.00    +0.000 OA
ATOM      3  O   UNL     1       3.452   4.113  20.032  0.00  0.00    +0.000 OA
ENDROOT
BRANCH   1   4
ATOM      4  C   UNL     1       2.504   6.270  18.975  0.00  0.00    +0.000 A 
ATOM      5  C   UNL     1       2.482   7.174  17.888  0.00  0.00    +0.000 A 
ATOM      6  C   UNL     1       2.054   8.493  18.071  0.00  0.00    +0.000 A 
ATOM      7  C   UNL     1       1.651   8.847  19.343  0.00  0.00    +0.000 A 
ATOM      8  C   UNL     1       1.676   7.963  20.402  0.00  0.00    +0.000 A 
ATOM      9  C   UNL     1       2.111   6.663  20.260  0.00  0.00    +0.000 A 
ATOM     10  O   UNL     1       1.220   8.533  21.583  0.00  0.00    +0.000 OA
ATOM     11  C   UNL     1       0.888   9.840  21.183  0.00  0.00    +0.000 A 
ATOM     12  O   UNL     1       0.417  10.669  21.949  0.00  0.00    +0.000 OA
ATOM     13  N   UNL     1       1.167  10.030  19.848  0.00  0.00    +0.000 N 
ATOM     14  C   UNL     1       0.983  11.242  19.102  0.00  0.00    +0.000 C 
ENDBRANCH   1   4
BRANCH   1  19
ATOM     15  C   UNL     1       7.100   5.565  18.239  0.00  0.00    +0.000 C 
ATOM     16  C   UNL     1       7.493   4.555  17.162  0.00  0.00    +0.000 C 
ATOM     17  C   UNL     1       6.357   4.309  16.175  0.00  0.00    +0.000 C 
ATOM     18  C   UNL     1       5.036   3.972  16.866  0.00  0.00    +0.000 C 
ATOM     19  N   UNL     1       4.693   4.968  17.928  0.00  0.00    +0.000 NA
ATOM     20  C   UNL     1       5.797   5.165  18.914  0.00  0.00    +0.000 C 
BRANCH  15  21
ATOM     21  C   UNL     1       7.075   6.991  17.719  0.00  0.00    +0.000 C 
ATOM     22  O   UNL     1       6.357   7.396  16.815  0.00  0.00    +0.000 OA
BRANCH  21  23
ATOM     23  O   UNL     1       8.103   7.699  18.271  0.00  0.00    +0.000 OA
BRANCH  23  25
ATOM     24  C   UNL     1       9.029   9.793  18.922  0.00  0.00    +0.000 C 
ATOM     25  C   UNL     1       8.175   9.078  17.888  0.00  0.00    +0.000 C 
ENDBRANCH  23  25
ENDBRANCH  21  23
ENDBRANCH  15  21
ENDBRANCH   1  19
TORSDOF 5
ENDMDL
MODEL 2
REMARK VINA RESULT:      -8.0      2.528      4.570
REMARK  Name = 
REMARK  7 active torsions:
REMARK  status: ('A' for Active; 'I' for Inactive)
REMARK    1  A    between atoms: C_1  and  C_2
REMARK    2  A    between atoms: C_2  and  O_3
REMARK    3  A    between atoms: O_3  and  C_4
REMARK    4  A    between atoms: C_4  and  C_6
REMARK    5  A    between atoms: N_10  and  S_11
REMARK    6  A    between atoms: S_11  and  C_14
REMARK    7  A    between atoms: N_23  and  C_24
REMARK                            x       y       z     vdW  Elec       q    Type
REMARK                         _______ _______ _______ _____ _____    ______ ____
ROOT
ATOM      1  S   UNL     1       4.519   5.856  17.845  0.00  0.00    +0.000 S 
ATOM      2  O   UNL     1       5.720   6.104  18.607  0.00  0.00    +0.000 OA
ATOM      3  O   UNL     1       4.530   5.890  16.395  0.00  0.00    +0.000 OA
ENDROOT
BRANCH   1   4
ATOM      4  C   UNL     1       3.276   7.022  18.348  0.00  0.00    +0.000 A 
ATOM      5  C   UNL     1       2.981   8.104  17.485  0.00  0.00    +0.000 A 
ATOM      6  C   UNL     1       2.086   9.103  17.882  0.00  0.00    +0.000 A 
ATOM      7  C   UNL     1       1.510   8.966  19.129  0.00  0.00    +0.000 A 
ATOM      8  C   UNL     1       1.801   7.911  19.969  0.00  0.00    +0.000 A 
ATOM      9  C   UNL     1       2.694   6.920  19.617  0.00  0.00    +0.000 A 
ATOM     10  O   UNL     1       1.102   7.973  21.166  0.00  0.00    +0.000 OA
ATOM     11  C   UNL     1       0.332   9.140  21.009  0.00  0.00    +0.000 A 
ATOM     12  O   UNL     1      -0.454   9.535  21.858  0.00  0.00    +0.000 OA
ATOM     13  N   UNL     1       0.595   9.742  19.800  0.00  0.00    +0.000 N 
ATOM     14  C   UNL     1       0.018  10.961  19.309  0.00  0.00    +0.000 C 
ENDBRANCH   1   4
BRANCH   1  19
ATOM     15  C   UNL     1       2.517   2.336  17.699  0.00  0.00    +0.000 C 
ATOM     16  C   UNL     1       3.506   1.424  18.422  0.00  0.00    +0.000 C 
ATOM     17  C   UNL     1       4.238   2.158  19.541  0.00  0.00    +0.000 C 
ATOM     18  C   UNL     1       4.859   3.475  19.076  0.00  0.00    +0.000 C 
ATOM     19  N   UNL     1       3.869   4.333  18.354  0.00  0.00    +0.000 NA
ATOM     20  C   UNL     1       3.193   3.617  17.233  0.00  0.00    +0.000 C 
BRANCH  15  21
ATOM     21  C   UNL     1       1.265   2.601  18.516  0.00  0.00    +0.000 C 
ATOM     22  O   UNL     1       0.256   1.910  18.497  0.00  0.00    +0.000 OA
BRANCH  21  23
ATOM     23  O   UNL     1       1.360   3.821  19.119  0.00  0.00    +0.000 OA
BRANCH  23  25
ATOM     24  C   UNL     1       1.659   3.237  21.408  0.00  0.00    +0.000 C 
ATOM     25  C   UNL     1       0.739   3.920  20.408  0.00  0.00    +0.000 C 
ENDBRANCH  23  25
ENDBRANCH  21  23
ENDBRANCH  15  21
ENDBRANCH   1  19
TORSDOF 5
ENDMDL
MODEL 3
REMARK VINA RESULT:      -7.8      1.492      2.851
REMARK  Name = 
REMARK  7 active torsions:
REMARK  status: ('A' for Active; 'I' for Inactive)
REMARK    1  A    between atoms: C_1  and  C_2
REMARK    2  A    between atoms: C_2  and  O_3
REMARK    3  A    between atoms: O_3  and  C_4
REMARK    4  A    between atoms: C_4  and  C_6
REMARK    5  A    between atoms: N_10  and  S_11
REMARK    6  A    between atoms: S_11  and  C_14
REMARK    7  A    between atoms: N_23  and  C_24
REMARK                            x       y       z     vdW  Elec       q    Type
REMARK                         _______ _______ _______ _____ _____    ______ ____
ROOT
ATOM      1  S   UNL     1       3.112   4.745  18.499  0.00  0.00    +0.000 S 
ATOM      2  O   UNL     1       2.485   4.249  17.296  0.00  0.00    +0.000 OA
ATOM      3  O   UNL     1       3.059   3.993  19.738  0.00  0.00    +0.000 OA
ENDROOT
BRANCH   1   4
ATOM      4  C   UNL     1       2.436   6.345  18.874  0.00  0.00    +0.000 A 
ATOM      5  C   UNL     1       2.340   7.295  17.831  0.00  0.00    +0.000 A 
ATOM      6  C   UNL     1       1.911   8.600  18.097  0.00  0.00    +0.000 A 
ATOM      7  C   UNL     1       1.583   8.894  19.405  0.00  0.00    +0.000 A 
ATOM      8  C   UNL     1       1.680   7.965  20.422  0.00  0.00    +0.000 A 
ATOM      9  C   UNL     1       2.119   6.677  20.197  0.00  0.00    +0.000 A 
ATOM     10  O   UNL     1       1.292   8.478  21.651  0.00  0.00    +0.000 OA
ATOM     11  C   UNL     1       0.923   9.797  21.330  0.00  0.00    +0.000 A 
ATOM     12  O   UNL     1       0.492  10.586  22.158  0.00  0.00    +0.000 OA
ATOM     13  N   UNL     1       1.119  10.047  19.991  0.00  0.00    +0.000 N 
ATOM     14  C   UNL     1       0.879  11.289  19.310  0.00  0.00    +0.000 C 
ENDBRANCH   1   4
BRANCH   1  19
ATOM     15  C   UNL     1       6.350   6.333  16.651  0.00  0.00    +0.000 C 
ATOM     16  C   UNL     1       7.217   6.680  17.860  0.00  0.00    +0.000 C 
ATOM     17  C   UNL     1       7.058   5.660  18.983  0.00  0.00    +0.000 C 
ATOM     18  C   UNL     1       5.594   5.402  19.342  0.00  0.00    +0.000 C 
ATOM     19  N   UNL     1       4.771   5.086  18.134  0.00  0.00    +0.000 NA
ATOM     20  C   UNL     1       4.901   6.116  17.061  0.00  0.00    +0.000 C 
BRANCH  15  21
ATOM     21  C   UNL     1       6.909   5.173  15.847  0.00  0.00    +0.000 C 
ATOM     22  O   UNL     1       7.886   4.507  16.163  0.00  0.00    +0.000 OA
BRANCH  21  23
ATOM     23  O   UNL     1       6.285   5.111  14.636  0.00  0.00    +0.000 OA
BRANCH  23  25
ATOM     24  C   UNL     1       6.459   3.787  12.665  0.00  0.00    +0.000 C 
ATOM     25  C   UNL     1       6.054   3.790  14.130  0.00  0.00    +0.000 C 
ENDBRANCH  23  25
ENDBRANCH  21  23
ENDBRANCH  15  21
ENDBRANCH   1  19
TORSDOF 5
ENDMDL
MODEL 4
REMARK VINA RESULT:      -7.8      1.842      3.120
REMARK  Name = 
REMARK  7 active torsions:
REMARK  status: ('A' for Active; 'I' for Inactive)
REMARK    1  A    between atoms: C_1  and  C_2
REMARK    2  A    between atoms: C_2  and  O_3
REMARK    3  A    between atoms: O_3  and  C_4
REMARK    4  A    between atoms: C_4  and  C_6
REMARK    5  A    between atoms: N_10  and  S_11
REMARK    6  A    between atoms: S_11  and  C_14
REMARK    7  A    between atoms: N_23  and  C_24
REMARK                            x       y       z     vdW  Elec       q    Type
REMARK                         _______ _______ _______ _____ _____    ______ ____
ROOT
ATOM      1  S   UNL     1       3.424   4.662  18.466  0.00  0.00    +0.000 S 
ATOM      2  O   UNL     1       2.843   4.328  17.186  0.00  0.00    +0.000 OA
ATOM      3  O   UNL     1       3.322   3.758  19.595  0.00  0.00    +0.000 OA
ENDROOT
BRANCH   1   4
ATOM      4  C   UNL     1       2.737   6.206  19.016  0.00  0.00    +0.000 A 
ATOM      5  C   UNL     1       2.207   6.276  20.326  0.00  0.00    +0.000 A 
ATOM      6  C   UNL     1       1.563   7.436  20.769  0.00  0.00    +0.000 A 
ATOM      7  C   UNL     1       1.490   8.488  19.878  0.00  0.00    +0.000 A 
ATOM      8  C   UNL     1       2.007   8.416  18.601  0.00  0.00    +0.000 A 
ATOM      9  C   UNL     1       2.628   7.280  18.126  0.00  0.00    +0.000 A 
ATOM     10  O   UNL     1       1.827   9.591  17.886  0.00  0.00    +0.000 OA
ATOM     11  C   UNL     1       1.174  10.419  18.817  0.00  0.00    +0.000 A 
ATOM     12  O   UNL     1       0.857  11.574  18.571  0.00  0.00    +0.000 OA
ATOM     13  N   UNL     1       0.956   9.748  19.999  0.00  0.00    +0.000 N 
ATOM     14  C   UNL     1       0.294  10.265  21.164  0.00  0.00    +0.000 C 
ENDBRANCH   1   4
BRANCH   1  19
ATOM     15  C   UNL     1       6.744   6.308  16.827  0.00  0.00    +0.000 C 
ATOM     16  C   UNL     1       7.521   6.681  18.088  0.00  0.00    +0.000 C 
ATOM     17  C   UNL     1       7.308   5.665  19.205  0.00  0.00    +0.000 C 
ATOM     18  C   UNL     1       5.829   5.378  19.468  0.00  0.00    +0.000 C 
ATOM     19  N   UNL     1       5.096   5.037  18.210  0.00  0.00    +0.000 NA
ATOM     20  C   UNL     1       5.276   6.062  17.140  0.00  0.00    +0.000 C 
BRANCH  15  21
ATOM     21  C   UNL     1       7.381   5.155  16.071  0.00  0.00    +0.000 C 
ATOM     22  O   UNL     1       7.943   4.201  16.591  0.00  0.00    +0.000 OA
BRANCH  21  23
ATOM     23  O   UNL     1       7.404   5.437  14.736  0.00  0.00    +0.000 OA
BRANCH  23  25
ATOM     24  C   UNL     1       5.484   4.198  14.068  0.00  0.00    +0.000 C 
ATOM     25  C   UNL     1       6.982   4.372  13.875  0.00  0.00    +0.000 C 
ENDBRANCH  23  25
ENDBRANCH  21  23
ENDBRANCH  15  21
ENDBRANCH   1  19
TORSDOF 5
ENDMDL
MODEL 5
REMARK VINA RESULT:      -7.7      1.252      1.713
REMARK  Name = 
REMARK  7 active torsions:
REMARK  status: ('A' for Active; 'I' for Inactive)
REMARK    1  A    between atoms: C_1  and  C_2
REMARK    2  A    between atoms: C_2  and  O_3
REMARK    3  A    between atoms: O_3  and  C_4
REMARK    4  A    between atoms: C_4  and  C_6
REMARK    5  A    between atoms: N_10  and  S_11
REMARK    6  A    between atoms: S_11  and  C_14
REMARK    7  A    between atoms: N_23  and  C_24
REMARK                            x       y       z     vdW  Elec       q    Type
REMARK                         _______ _______ _______ _____ _____    ______ ____
ROOT
ATOM      1  S   UNL     1       2.834   4.652  18.585  0.00  0.00    +0.000 S 
ATOM      2  O   UNL     1       1.835   4.134  17.679  0.00  0.00    +0.000 OA
ATOM      3  O   UNL     1       3.179   3.947  19.804  0.00  0.00    +0.000 OA
ENDROOT
BRANCH   1   4
ATOM      4  C   UNL     1       2.353   6.286  19.089  0.00  0.00    +0.000 A 
ATOM      5  C   UNL     1       1.854   6.465  20.400  0.00  0.00    +0.000 A 
ATOM      6  C   UNL     1       1.367   7.711  20.809  0.00  0.00    +0.000 A 
ATOM      7  C   UNL     1       1.414   8.734  19.884  0.00  0.00    +0.000 A 
ATOM      8  C   UNL     1       1.899   8.556  18.605  0.00  0.00    +0.000 A 
ATOM      9  C   UNL     1       2.367   7.336  18.163  0.00  0.00    +0.000 A 
ATOM     10  O   UNL     1       1.857   9.721  17.851  0.00  0.00    +0.000 OA
ATOM     11  C   UNL     1       1.326  10.653  18.760  0.00  0.00    +0.000 A 
ATOM     12  O   UNL     1       1.152  11.830  18.478  0.00  0.00    +0.000 OA
ATOM     13  N   UNL     1       1.042  10.055  19.967  0.00  0.00    +0.000 N 
ATOM     14  C   UNL     1       0.466  10.688  21.119  0.00  0.00    +0.000 C 
ENDBRANCH   1   4
BRANCH   1  19
ATOM     15  C   UNL     1       6.695   5.581  17.775  0.00  0.00    +0.000 C 
ATOM     16  C   UNL     1       7.038   4.486  16.768  0.00  0.00    +0.000 C 
ATOM     17  C   UNL     1       5.846   4.136  15.883  0.00  0.00    +0.000 C 
ATOM     18  C   UNL     1       4.580   3.842  16.688  0.00  0.00    +0.000 C 
ATOM     19  N   UNL     1       4.286   4.923  17.678  0.00  0.00    +0.000 NA
ATOM     20  C   UNL     1       5.446   5.224  18.568  0.00  0.00    +0.000 C 
BRANCH  15  21
ATOM     21  C   UNL     1       6.607   6.955  17.134  0.00  0.00    +0.000 C 
ATOM     22  O   UNL     1       5.606   7.420  16.607  0.00  0.00    +0.000 OA
BRANCH  21  23
ATOM     23  O   UNL     1       7.852   7.507  17.061  0.00  0.00    +0.000 OA
BRANCH  23  25
ATOM     24  C   UNL     1       8.355   9.598  18.083  0.00  0.00    +0.000 C 
ATOM     25  C   UNL     1       8.338   8.091  18.277  0.00  0.00    +0.000 C 
ENDBRANCH  23  25
ENDBRANCH  21  23
ENDBRANCH  15  21
ENDBRANCH   1  19
TORSDOF 5
ENDMDL
MODEL 6
REMARK VINA RESULT:      -7.6      2.732      4.817
REMARK  Name = 
REMARK  7 active torsions:
REMARK  status: ('A' for Active; 'I' for Inactive)
REMARK    1  A    between atoms: C_1  and  C_2
REMARK    2  A    between atoms: C_2  and  O_3
REMARK    3  A    between atoms: O_3  and  C_4
REMARK    4  A    between atoms: C_4  and  C_6
REMARK    5  A    between atoms: N_10  and  S_11
REMARK    6  A    between atoms: S_11  and  C_14
REMARK    7  A    between atoms: N_23  and  C_24
REMARK                            x       y       z     vdW  Elec       q    Type
REMARK                         _______ _______ _______ _____ _____    ______ ____
ROOT
ATOM      1  S   UNL     1       4.539   5.821  17.878  0.00  0.00    +0.000 S 
ATOM      2  O   UNL     1       5.805   5.991  18.553  0.00  0.00    +0.000 OA
ATOM      3  O   UNL     1       4.438   5.926  16.435  0.00  0.00    +0.000 OA
ENDROOT
BRANCH   1   4
ATOM      4  C   UNL     1       3.383   7.001  18.532  0.00  0.00    +0.000 A 
ATOM      5  C   UNL     1       2.806   6.746  19.799  0.00  0.00    +0.000 A 
ATOM      6  C   UNL     1       1.816   7.591  20.309  0.00  0.00    +0.000 A 
ATOM      7  C   UNL     1       1.453   8.670  19.529  0.00  0.00    +0.000 A 
ATOM      8  C   UNL     1       2.015   8.915  18.293  0.00  0.00    +0.000 A 
ATOM      9  C   UNL     1       2.979   8.091  17.751  0.00  0.00    +0.000 A 
ATOM     10  O   UNL     1       1.505  10.057  17.692  0.00  0.00    +0.000 OA
ATOM     11  C   UNL     1       0.591  10.526  18.652  0.00  0.00    +0.000 A 
ATOM     12  O   UNL     1      -0.062  11.549  18.504  0.00  0.00    +0.000 OA
ATOM     13  N   UNL     1       0.547   9.682  19.739  0.00  0.00    +0.000 N 
ATOM     14  C   UNL     1      -0.289   9.825  20.898  0.00  0.00    +0.000 C 
ENDBRANCH   1   4
BRANCH   1  19
ATOM     15  C   UNL     1       2.509   2.320  17.681  0.00  0.00    +0.000 C 
ATOM     16  C   UNL     1       3.489   1.390  18.396  0.00  0.00    +0.000 C 
ATOM     17  C   UNL     1       4.224   2.103  19.526  0.00  0.00    +0.000 C 
ATOM     18  C   UNL     1       4.856   3.421  19.080  0.00  0.00    +0.000 C 
ATOM     19  N   UNL     1       3.876   4.297  18.366  0.00  0.00    +0.000 NA
ATOM     20  C   UNL     1       3.197   3.600  17.233  0.00  0.00    +0.000 C 
BRANCH  15  21
ATOM     21  C   UNL     1       1.257   2.584  18.498  0.00  0.00    +0.000 C 
ATOM     22  O   UNL     1       0.248   1.893  18.480  0.00  0.00    +0.000 OA
BRANCH  21  23
ATOM     23  O   UNL     1       1.351   3.805  19.101  0.00  0.00    +0.000 OA
BRANCH  23  25
ATOM     24  C   UNL     1       1.788   3.455  21.415  0.00  0.00    +0.000 C 
ATOM     25  C   UNL     1       0.749   3.898  20.398  0.00  0.00    +0.000 C 
ENDBRANCH  23  25
ENDBRANCH  21  23
ENDBRANCH  15  21
ENDBRANCH   1  19
TORSDOF 5
ENDMDL
MODEL 7
REMARK VINA RESULT:      -7.4      0.756      1.024
REMARK  Name = 
REMARK  7 active torsions:
REMARK  status: ('A' for Active; 'I' for Inactive)
REMARK    1  A    between atoms: C_1  and  C_2
REMARK    2  A    between atoms: C_2  and  O_3
REMARK    3  A    between atoms: O_3  and  C_4
REMARK    4  A    between atoms: C_4  and  C_6
REMARK    5  A    between atoms: N_10  and  S_11
REMARK    6  A    between atoms: S_11  and  C_14
REMARK    7  A    between atoms: N_23  and  C_24
REMARK                            x       y       z     vdW  Elec       q    Type
REMARK                         _______ _______ _______ _____ _____    ______ ____
ROOT
ATOM      1  S   UNL     1       3.145   4.710  18.582  0.00  0.00    +0.000 S 
ATOM      2  O   UNL     1       2.306   4.058  17.603  0.00  0.00    +0.000 OA
ATOM      3  O   UNL     1       3.413   4.096  19.868  0.00  0.00    +0.000 OA
ENDROOT
BRANCH   1   4
ATOM      4  C   UNL     1       2.462   6.310  18.941  0.00  0.00    +0.000 A 
ATOM      5  C   UNL     1       2.398   7.263  17.898  0.00  0.00    +0.000 A 
ATOM      6  C   UNL     1       1.965   8.568  18.155  0.00  0.00    +0.000 A 
ATOM      7  C   UNL     1       1.599   8.859  19.454  0.00  0.00    +0.000 A 
ATOM      8  C   UNL     1       1.664   7.928  20.470  0.00  0.00    +0.000 A 
ATOM      9  C   UNL     1       2.106   6.639  20.255  0.00  0.00    +0.000 A 
ATOM     10  O   UNL     1       1.240   8.438  21.689  0.00  0.00    +0.000 OA
ATOM     11  C   UNL     1       0.884   9.758  21.361  0.00  0.00    +0.000 A 
ATOM     12  O   UNL     1       0.430  10.546  22.178  0.00  0.00    +0.000 OA
ATOM     13  N   UNL     1       1.120  10.012  20.028  0.00  0.00    +0.000 N 
ATOM     14  C   UNL     1       0.903  11.256  19.345  0.00  0.00    +0.000 C 
ENDBRANCH   1   4
BRANCH   1  19
ATOM     15  C   UNL     1       7.106   4.583  17.736  0.00  0.00    +0.000 C 
ATOM     16  C   UNL     1       7.066   4.637  16.210  0.00  0.00    +0.000 C 
ATOM     17  C   UNL     1       5.922   5.510  15.703  0.00  0.00    +0.000 C 
ATOM     18  C   UNL     1       4.577   5.144  16.332  0.00  0.00    +0.000 C 
ATOM     19  N   UNL     1       4.658   5.081  17.824  0.00  0.00    +0.000 NA
ATOM     20  C   UNL     1       5.752   4.187  18.306  0.00  0.00    +0.000 C 
BRANCH  15  21
ATOM     21  C   UNL     1       7.645   5.864  18.349  0.00  0.00    +0.000 C 
ATOM     22  O   UNL     1       7.705   6.097  19.548  0.00  0.00    +0.000 OA
BRANCH  21  23
ATOM     23  O   UNL     1       7.867   6.784  17.366  0.00  0.00    +0.000 OA
BRANCH  23  25
ATOM     24  C   UNL     1       8.373   9.011  18.041  0.00  0.00    +0.000 C 
ATOM     25  C   UNL     1       7.270   8.070  17.582  0.00  0.00    +0.000 C 
ENDBRANCH  23  25
ENDBRANCH  21  23
ENDBRANCH  15  21
ENDBRANCH   1  19
TORSDOF 5
ENDMDL
MODEL 8
REMARK VINA RESULT:      -7.4      1.349      1.911
REMARK  Name = 
REMARK  7 active torsions:
REMARK  status: ('A' for Active; 'I' for Inactive)
REMARK    1  A    between atoms: C_1  and  C_2
REMARK    2  A    between atoms: C_2  and  O_3
REMARK    3  A    between atoms: O_3  and  C_4
REMARK    4  A    between atoms: C_4  and  C_6
REMARK    5  A    between atoms: N_10  and  S_11
REMARK    6  A    between atoms: S_11  and  C_14
REMARK    7  A    between atoms: N_23  and  C_24
REMARK                            x       y       z     vdW  Elec       q    Type
REMARK                         _______ _______ _______ _____ _____    ______ ____
ROOT
ATOM      1  S   UNL     1       3.137   4.696  18.545  0.00  0.00    +0.000 S 
ATOM      2  O   UNL     1       2.241   4.182  17.536  0.00  0.00    +0.000 OA
ATOM      3  O   UNL     1       3.403   3.954  19.762  0.00  0.00    +0.000 OA
ENDROOT
BRANCH   1   4
ATOM      4  C   UNL     1       2.551   6.290  19.067  0.00  0.00    +0.000 A 
ATOM      5  C   UNL     1       2.022   6.417  20.373  0.00  0.00    +0.000 A 
ATOM      6  C   UNL     1       1.455   7.625  20.793  0.00  0.00    +0.000 A 
ATOM      7  C   UNL     1       1.455   8.664  19.885  0.00  0.00    +0.000 A 
ATOM      8  C   UNL     1       1.970   8.537  18.611  0.00  0.00    +0.000 A 
ATOM      9  C   UNL     1       2.517   7.355  18.158  0.00  0.00    +0.000 A 
ATOM     10  O   UNL     1       1.870   9.709  17.876  0.00  0.00    +0.000 OA
ATOM     11  C   UNL     1       1.270  10.593  18.791  0.00  0.00    +0.000 A 
ATOM     12  O   UNL     1       1.030  11.762  18.524  0.00  0.00    +0.000 OA
ATOM     13  N   UNL     1       1.004   9.958  19.983  0.00  0.00    +0.000 N 
ATOM     14  C   UNL     1       0.373  10.537  21.136  0.00  0.00    +0.000 C 
ENDBRANCH   1   4
BRANCH   1  19
ATOM     15  C   UNL     1       7.097   4.558  17.698  0.00  0.00    +0.000 C 
ATOM     16  C   UNL     1       7.056   4.588  16.171  0.00  0.00    +0.000 C 
ATOM     17  C   UNL     1       5.912   5.453  15.652  0.00  0.00    +0.000 C 
ATOM     18  C   UNL     1       4.568   5.097  16.287  0.00  0.00    +0.000 C 
ATOM     19  N   UNL     1       4.650   5.056  17.780  0.00  0.00    +0.000 NA
ATOM     20  C   UNL     1       5.745   4.170  18.275  0.00  0.00    +0.000 C 
BRANCH  15  21
ATOM     21  C   UNL     1       7.637   5.848  18.290  0.00  0.00    +0.000 C 
ATOM     22  O   UNL     1       7.743   6.080  19.487  0.00  0.00    +0.000 OA
BRANCH  21  23
ATOM     23  O   UNL     1       7.800   6.774  17.302  0.00  0.00    +0.000 OA
BRANCH  23  25
ATOM     24  C   UNL     1       8.336   8.971  18.047  0.00  0.00    +0.000 C 
ATOM     25  C   UNL     1       7.221   8.059  17.562  0.00  0.00    +0.000 C 
ENDBRANCH  23  25
ENDBRANCH  21  23
ENDBRANCH  15  21
ENDBRANCH   1  19
TORSDOF 5
ENDMDL
MODEL 9
REMARK VINA RESULT:      -7.2      1.951      3.522
REMARK  Name = 
REMARK  7 active torsions:
REMARK  status: ('A' for Active; 'I' for Inactive)
REMARK    1  A    between atoms: C_1  and  C_2
REMARK    2  A    between atoms: C_2  and  O_3
REMARK    3  A    between atoms: O_3  and  C_4
REMARK    4  A    between atoms: C_4  and  C_6
REMARK    5  A    between atoms: N_10  and  S_11
REMARK    6  A    between atoms: S_11  and  C_14
REMARK    7  A    between atoms: N_23  and  C_24
REMARK                            x       y       z     vdW  Elec       q    Type
REMARK                         _______ _______ _______ _____ _____    ______ ____
ROOT
ATOM      1  S   UNL     1       3.903   3.896  18.578  0.00  0.00    +0.000 S 
ATOM      2  O   UNL     1       3.084   3.324  17.535  0.00  0.00    +0.000 OA
ATOM      3  O   UNL     1       4.367   3.094  19.693  0.00  0.00    +0.000 OA
ENDROOT
BRANCH   1   4
ATOM      4  C   UNL     1       3.033   5.269  19.296  0.00  0.00    +0.000 A 
ATOM      5  C   UNL     1       2.327   5.059  20.504  0.00  0.00    +0.000 A 
ATOM      6  C   UNL     1       1.544   6.079  21.054  0.00  0.00    +0.000 A 
ATOM      7  C   UNL     1       1.513   7.278  20.371  0.00  0.00    +0.000 A 
ATOM      8  C   UNL     1       2.201   7.480  19.192  0.00  0.00    +0.000 A 
ATOM      9  C   UNL     1       2.965   6.489  18.613  0.00  0.00    +0.000 A 
ATOM     10  O   UNL     1       2.031   8.761  18.687  0.00  0.00    +0.000 OA
ATOM     11  C   UNL     1       1.198   9.360  19.649  0.00  0.00    +0.000 A 
ATOM     12  O   UNL     1       0.830  10.524  19.576  0.00  0.00    +0.000 OA
ATOM     13  N   UNL     1       0.873   8.464  20.642  0.00  0.00    +0.000 N 
ATOM     14  C   UNL     1       0.022   8.713  21.772  0.00  0.00    +0.000 C 
ENDBRANCH   1   4
BRANCH   1  19
ATOM     15  C   UNL     1       6.067   6.226  16.066  0.00  0.00    +0.000 C 
ATOM     16  C   UNL     1       7.099   6.797  17.036  0.00  0.00    +0.000 C 
ATOM     17  C   UNL     1       7.488   5.784  18.109  0.00  0.00    +0.000 C 
ATOM     18  C   UNL     1       6.276   5.170  18.808  0.00  0.00    +0.000 C 
ATOM     19  N   UNL     1       5.277   4.641  17.829  0.00  0.00    +0.000 NA
ATOM     20  C   UNL     1       4.870   5.656  16.812  0.00  0.00    +0.000 C 
BRANCH  15  21
ATOM     21  C   UNL     1       6.673   5.235  15.088  0.00  0.00    +0.000 C 
ATOM     22  O   UNL     1       7.859   5.172  14.797  0.00  0.00    +0.000 OA
BRANCH  21  23
ATOM     23  O   UNL     1       5.677   4.560  14.443  0.00  0.00    +0.000 OA
BRANCH  23  25
ATOM     24  C   UNL     1       5.029   3.620  12.354  0.00  0.00    +0.000 C 
ATOM     25  C   UNL     1       6.112   3.654  13.420  0.00  0.00    +0.000 C 
ENDBRANCH  23  25
ENDBRANCH  21  23
ENDBRANCH  15  21
ENDBRANCH   1  19
TORSDOF 5
ENDMDL
