MODEL 1
REMARK VINA RESULT:      -7.6      0.000      0.000
REMARK  Name = 
REMARK  6 active torsions:
REMARK  status: ('A' for Active; 'I' for Inactive)
REMARK    1  A    between atoms: C_1  and  O_2
REMARK    2  A    between atoms: O_2  and  C_3
REMARK    3  A    between atoms: C_3  and  C_5
REMARK    4  A    between atoms: C_12  and  O_13
REMARK    5  A    between atoms: O_13  and  C_14
REMARK    6  A    between atoms: C_17  and  C_18
REMARK                            x       y       z     vdW  Elec       q    Type
REMARK                         _______ _______ _______ _____ _____    ______ ____
ROOT
ATOM      1  C   UNL     1       6.472   5.230  15.452  0.00  0.00    +0.000 C 
ATOM      2  C   UNL     1       6.091   3.937  16.199  0.00  0.00    +0.000 C 
ATOM      3  N   UNL     1       5.589   4.301  17.522  0.00  0.00    +0.000 N 
ATOM      4  C   UNL     1       4.480   3.730  18.076  0.00  0.00    +0.000 A 
ATOM      5  N   UNL     1       3.826   2.757  17.421  0.00  0.00    +0.000 NA
ATOM      6  C   UNL     1       2.712   2.259  17.997  0.00  0.00    +0.000 A 
ATOM      7  C   UNL     1       2.209   2.705  19.191  0.00  0.00    +0.000 A 
ATOM      8  C   UNL     1       2.934   3.705  19.775  0.00  0.00    +0.000 A 
ATOM      9  N   UNL     1       4.054   4.217  19.247  0.00  0.00    +0.000 NA
ATOM     10  C   UNL     1       6.471   5.144  18.324  0.00  0.00    +0.000 C 
ATOM     11  C   UNL     1       6.860   6.386  17.499  0.00  0.00    +0.000 C 
ATOM     12  C   UNL     1       7.911   7.209  18.232  0.00  0.00    +0.000 C 
ATOM     13  O   UNL     1       7.412   6.010  16.225  0.00  0.00    +0.000 OA
ENDROOT
BRANCH   1  14
ATOM     14  C   UNL     1       7.069   4.893  14.088  0.00  0.00    +0.000 C 
ATOM     15  O   UNL     1       7.953   5.525  13.522  0.00  0.00    +0.000 OA
BRANCH  14  17
ATOM     16  C   UNL     1       6.674   3.653  12.143  0.00  0.00    +0.000 C 
ATOM     17  O   UNL     1       6.436   3.811  13.542  0.00  0.00    +0.000 OA
ENDBRANCH  14  17
ENDBRANCH   1  14
BRANCH   8  18
ATOM     18  O   UNL     1       2.462   4.213  20.971  0.00  0.00    +0.000 OA
ATOM     19  C   UNL     1       1.909   3.202  21.813  0.00  0.00    +0.000 C 
ENDBRANCH   8  18
TORSDOF 3
ENDMDL
MODEL 2
REMARK VINA RESULT:      -7.3      1.087      1.136
REMARK  Name = 
REMARK  6 active torsions:
REMARK  status: ('A' for Active; 'I' for Inactive)
REMARK    1  A    between atoms: C_1  and  O_2
REMARK    2  A    between atoms: O_2  and  C_3
REMARK    3  A    between atoms: C_3  and  C_5
REMARK    4  A    between atoms: C_12  and  O_13
REMARK    5  A    between atoms: O_13  and  C_14
REMARK    6  A    between atoms: C_17  and  C_18
REMARK                            x       y       z     vdW  Elec       q    Type
REMARK                         _______ _______ _______ _____ _____    ______ ____
ROOT
ATOM      1  C   UNL     1       6.318   5.434  15.532  0.00  0.00    +0.000 C 
ATOM      2  C   UNL     1       5.689   4.267  16.318  0.00  0.00    +0.000 C 
ATOM      3  N   UNL     1       5.212   4.780  17.600  0.00  0.00    +0.000 N 
ATOM      4  C   UNL     1       4.000   4.439  18.130  0.00  0.00    +0.000 A 
ATOM      5  N   UNL     1       3.210   3.562  17.491  0.00  0.00    +0.000 NA
ATOM      6  C   UNL     1       2.007   3.294  18.038  0.00  0.00    +0.000 A 
ATOM      7  C   UNL     1       1.547   3.882  19.187  0.00  0.00    +0.000 A 
ATOM      8  C   UNL     1       2.414   4.769  19.758  0.00  0.00    +0.000 A 
ATOM      9  N   UNL     1       3.625   5.052  19.258  0.00  0.00    +0.000 NA
ATOM     10  C   UNL     1       6.198   5.498  18.403  0.00  0.00    +0.000 C 
ATOM     11  C   UNL     1       6.829   6.609  17.542  0.00  0.00    +0.000 C 
ATOM     12  C   UNL     1       7.981   7.273  18.283  0.00  0.00    +0.000 C 
ATOM     13  O   UNL     1       7.351   6.078  16.311  0.00  0.00    +0.000 OA
ENDROOT
BRANCH   1  14
ATOM     14  C   UNL     1       6.894   4.929  14.213  0.00  0.00    +0.000 C 
ATOM     15  O   UNL     1       7.925   5.332  13.686  0.00  0.00    +0.000 OA
BRANCH  14  17
ATOM     16  C   UNL     1       6.482   3.564  12.357  0.00  0.00    +0.000 C 
ATOM     17  O   UNL     1       6.067   3.996  13.654  0.00  0.00    +0.000 OA
ENDBRANCH  14  17
ENDBRANCH   1  14
BRANCH   8  18
ATOM     18  O   UNL     1       1.997   5.413  20.909  0.00  0.00    +0.000 OA
ATOM     19  C   UNL     1       1.530   6.737  20.653  0.00  0.00    +0.000 C 
ENDBRANCH   8  18
TORSDOF 3
ENDMDL
MODEL 3
REMARK VINA RESULT:      -7.2      1.997      6.365
REMARK  Name = 
REMARK  6 active torsions:
REMARK  status: ('A' for Active; 'I' for Inactive)
REMARK    1  A    between atoms: C_1  and  O_2
REMARK    2  A    between atoms: O_2  and  C_3
REMARK    3  A    between atoms: C_3  and  C_5
REMARK    4  A    between atoms: C_12  and  O_13
REMARK    5  A    between atoms: O_13  and  C_14
REMARK    6  A    between atoms: C_17  and  C_18
REMARK                            x       y       z     vdW  Elec       q    Type
REMARK                         _______ _______ _______ _____ _____    ______ ____
ROOT
ATOM      1  C   UNL     1       2.074   4.021  19.348  0.00  0.00    +0.000 C 
ATOM      2  C   UNL     1       2.530   4.061  17.876  0.00  0.00    +0.000 C 
ATOM      3  N   UNL     1       3.519   5.126  17.730  0.00  0.00    +0.000 N 
ATOM      4  C   UNL     1       4.671   4.974  17.012  0.00  0.00    +0.000 A 
ATOM      5  N   UNL     1       4.911   3.824  16.363  0.00  0.00    +0.000 NA
ATOM      6  C   UNL     1       6.083   3.714  15.705  0.00  0.00    +0.000 A 
ATOM      7  C   UNL     1       7.038   4.696  15.683  0.00  0.00    +0.000 A 
ATOM      8  C   UNL     1       6.710   5.823  16.382  0.00  0.00    +0.000 A 
ATOM      9  N   UNL     1       5.551   5.981  17.035  0.00  0.00    +0.000 NA
ATOM     10  C   UNL     1       3.106   6.445  18.200  0.00  0.00    +0.000 C 
ATOM     11  C   UNL     1       2.607   6.323  19.653  0.00  0.00    +0.000 C 
ATOM     12  C   UNL     1       2.010   7.641  20.127  0.00  0.00    +0.000 C 
ATOM     13  O   UNL     1       1.588   5.315  19.769  0.00  0.00    +0.000 OA
ENDROOT
BRANCH   1  14
ATOM     14  C   UNL     1       0.986   2.967  19.532  0.00  0.00    +0.000 C 
ATOM     15  O   UNL     1       0.333   2.453  18.631  0.00  0.00    +0.000 OA
BRANCH  14  17
ATOM     16  C   UNL     1       1.999   2.617  21.612  0.00  0.00    +0.000 C 
ATOM     17  O   UNL     1       0.788   2.710  20.860  0.00  0.00    +0.000 OA
ENDBRANCH  14  17
ENDBRANCH   1  14
BRANCH   8  18
ATOM     18  O   UNL     1       7.645   6.841  16.417  0.00  0.00    +0.000 OA
ATOM     19  C   UNL     1       7.506   7.668  17.573  0.00  0.00    +0.000 C 
ENDBRANCH   8  18
TORSDOF 3
ENDMDL
MODEL 4
REMARK VINA RESULT:      -7.2      0.786      1.143
REMARK  Name = 
REMARK  6 active torsions:
REMARK  status: ('A' for Active; 'I' for Inactive)
REMARK    1  A    between atoms: C_1  and  O_2
REMARK    2  A    between atoms: O_2  and  C_3
REMARK    3  A    between atoms: C_3  and  C_5
REMARK    4  A    between atoms: C_12  and  O_13
REMARK    5  A    between atoms: O_13  and  C_14
REMARK    6  A    between atoms: C_17  and  C_18
REMARK                            x       y       z     vdW  Elec       q    Type
REMARK                         _______ _______ _______ _____ _____    ______ ____
ROOT
ATOM      1  C   UNL     1       6.364   5.168  15.452  0.00  0.00    +0.000 C 
ATOM      2  C   UNL     1       5.949   3.900  16.222  0.00  0.00    +0.000 C 
ATOM      3  N   UNL     1       5.461   4.300  17.539  0.00  0.00    +0.000 N 
ATOM      4  C   UNL     1       4.337   3.770  18.105  0.00  0.00    +0.000 A 
ATOM      5  N   UNL     1       3.656   2.804  17.469  0.00  0.00    +0.000 NA
ATOM      6  C   UNL     1       2.530   2.346  18.055  0.00  0.00    +0.000 A 
ATOM      7  C   UNL     1       2.042   2.827  19.242  0.00  0.00    +0.000 A 
ATOM      8  C   UNL     1       2.795   3.816  19.807  0.00  0.00    +0.000 A 
ATOM      9  N   UNL     1       3.928   4.288  19.268  0.00  0.00    +0.000 NA
ATOM     10  C   UNL     1       6.366   5.133  18.325  0.00  0.00    +0.000 C 
ATOM     11  C   UNL     1       6.788   6.349  17.478  0.00  0.00    +0.000 C 
ATOM     12  C   UNL     1       7.862   7.155  18.195  0.00  0.00    +0.000 C 
ATOM     13  O   UNL     1       7.326   5.936  16.209  0.00  0.00    +0.000 OA
ENDROOT
BRANCH   1  14
ATOM     14  C   UNL     1       6.948   4.792  14.093  0.00  0.00    +0.000 C 
ATOM     15  O   UNL     1       6.525   3.907  13.357  0.00  0.00    +0.000 OA
BRANCH  14  17
ATOM     16  C   UNL     1       8.269   5.777  12.432  0.00  0.00    +0.000 C 
ATOM     17  O   UNL     1       8.059   5.540  13.825  0.00  0.00    +0.000 OA
ENDBRANCH  14  17
ENDBRANCH   1  14
BRANCH   8  18
ATOM     18  O   UNL     1       2.340   4.358  20.995  0.00  0.00    +0.000 OA
ATOM     19  C   UNL     1       1.714   5.628  20.810  0.00  0.00    +0.000 C 
ENDBRANCH   8  18
TORSDOF 3
ENDMDL
MODEL 5
REMARK VINA RESULT:      -6.5      3.475      4.231
REMARK  Name = 
REMARK  6 active torsions:
REMARK  status: ('A' for Active; 'I' for Inactive)
REMARK    1  A    between atoms: C_1  and  O_2
REMARK    2  A    between atoms: O_2  and  C_3
REMARK    3  A    between atoms: C_3  and  C_5
REMARK    4  A    between atoms: C_12  and  O_13
REMARK    5  A    between atoms: O_13  and  C_14
REMARK    6  A    between atoms: C_17  and  C_18
REMARK                            x       y       z     vdW  Elec       q    Type
REMARK                         _______ _______ _______ _____ _____    ______ ____
ROOT
ATOM      1  C   UNL     1       5.728   5.232  17.418  0.00  0.00    +0.000 C 
ATOM      2  C   UNL     1       4.393   5.886  17.010  0.00  0.00    +0.000 C 
ATOM      3  N   UNL     1       3.543   5.974  18.195  0.00  0.00    +0.000 N 
ATOM      4  C   UNL     1       2.814   7.088  18.502  0.00  0.00    +0.000 A 
ATOM      5  N   UNL     1       2.822   8.145  17.675  0.00  0.00    +0.000 NA
ATOM      6  C   UNL     1       2.118   9.233  18.049  0.00  0.00    +0.000 A 
ATOM      7  C   UNL     1       1.421   9.320  19.225  0.00  0.00    +0.000 A 
ATOM      8  C   UNL     1       1.482   8.201  20.006  0.00  0.00    +0.000 A 
ATOM      9  N   UNL     1       2.155   7.093  19.665  0.00  0.00    +0.000 NA
ATOM     10  C   UNL     1       3.329   4.724  18.917  0.00  0.00    +0.000 C 
ATOM     11  C   UNL     1       4.698   4.094  19.242  0.00  0.00    +0.000 C 
ATOM     12  C   UNL     1       4.520   2.708  19.845  0.00  0.00    +0.000 C 
ATOM     13  O   UNL     1       5.499   3.955  18.055  0.00  0.00    +0.000 OA
ENDROOT
BRANCH   1  14
ATOM     14  C   UNL     1       6.622   5.054  16.195  0.00  0.00    +0.000 C 
ATOM     15  O   UNL     1       7.428   5.877  15.777  0.00  0.00    +0.000 OA
BRANCH  14  17
ATOM     16  C   UNL     1       6.094   3.985  14.181  0.00  0.00    +0.000 C 
ATOM     17  O   UNL     1       6.360   3.862  15.579  0.00  0.00    +0.000 OA
ENDBRANCH  14  17
ENDBRANCH   1  14
BRANCH   8  18
ATOM     18  O   UNL     1       0.817   8.236  21.218  0.00  0.00    +0.000 OA
ATOM     19  C   UNL     1       0.687   9.563  21.729  0.00  0.00    +0.000 C 
ENDBRANCH   8  18
TORSDOF 3
ENDMDL
MODEL 6
REMARK VINA RESULT:      -6.3      2.008      3.964
REMARK  Name = 
REMARK  6 active torsions:
REMARK  status: ('A' for Active; 'I' for Inactive)
REMARK    1  A    between atoms: C_1  and  O_2
REMARK    2  A    between atoms: O_2  and  C_3
REMARK    3  A    between atoms: C_3  and  C_5
REMARK    4  A    between atoms: C_12  and  O_13
REMARK    5  A    between atoms: O_13  and  C_14
REMARK    6  A    between atoms: C_17  and  C_18
REMARK                            x       y       z     vdW  Elec       q    Type
REMARK                         _______ _______ _______ _____ _____    ______ ____
ROOT
ATOM      1  C   UNL     1       7.123   6.587  17.602  0.00  0.00    +0.000 C 
ATOM      2  C   UNL     1       5.644   6.978  17.784  0.00  0.00    +0.000 C 
ATOM      3  N   UNL     1       4.815   5.871  17.315  0.00  0.00    +0.000 N 
ATOM      4  C   UNL     1       3.716   5.429  17.996  0.00  0.00    +0.000 A 
ATOM      5  N   UNL     1       3.330   6.047  19.123  0.00  0.00    +0.000 NA
ATOM      6  C   UNL     1       2.263   5.542  19.776  0.00  0.00    +0.000 A 
ATOM      7  C   UNL     1       1.577   4.430  19.364  0.00  0.00    +0.000 A 
ATOM      8  C   UNL     1       2.051   3.862  18.216  0.00  0.00    +0.000 A 
ATOM      9  N   UNL     1       3.096   4.341  17.526  0.00  0.00    +0.000 NA
ATOM     10  C   UNL     1       5.084   5.406  15.958  0.00  0.00    +0.000 C 
ATOM     11  C   UNL     1       6.587   5.090  15.827  0.00  0.00    +0.000 C 
ATOM     12  C   UNL     1       6.943   4.764  14.384  0.00  0.00    +0.000 C 
ATOM     13  O   UNL     1       7.390   6.213  16.232  0.00  0.00    +0.000 OA
ENDROOT
BRANCH   1  14
ATOM     14  C   UNL     1       8.028   7.745  18.014  0.00  0.00    +0.000 C 
ATOM     15  O   UNL     1       8.810   7.737  18.957  0.00  0.00    +0.000 OA
BRANCH  14  17
ATOM     16  C   UNL     1       8.387  10.039  17.718  0.00  0.00    +0.000 C 
ATOM     17  O   UNL     1       7.805   8.834  17.218  0.00  0.00    +0.000 OA
ENDBRANCH  14  17
ENDBRANCH   1  14
BRANCH   8  18
ATOM     18  O   UNL     1       1.413   2.722  17.762  0.00  0.00    +0.000 OA
ATOM     19  C   UNL     1       0.669   2.069  18.790  0.00  0.00    +0.000 C 
ENDBRANCH   8  18
TORSDOF 3
ENDMDL
MODEL 7
REMARK VINA RESULT:      -6.3      1.936      3.814
REMARK  Name = 
REMARK  6 active torsions:
REMARK  status: ('A' for Active; 'I' for Inactive)
REMARK    1  A    between atoms: C_1  and  O_2
REMARK    2  A    between atoms: O_2  and  C_3
REMARK    3  A    between atoms: C_3  and  C_5
REMARK    4  A    between atoms: C_12  and  O_13
REMARK    5  A    between atoms: O_13  and  C_14
REMARK    6  A    between atoms: C_17  and  C_18
REMARK                            x       y       z     vdW  Elec       q    Type
REMARK                         _______ _______ _______ _____ _____    ______ ____
ROOT
ATOM      1  C   UNL     1       6.576   6.049  17.645  0.00  0.00    +0.000 C 
ATOM      2  C   UNL     1       5.145   6.560  17.904  0.00  0.00    +0.000 C 
ATOM      3  N   UNL     1       4.218   5.449  17.708  0.00  0.00    +0.000 N 
ATOM      4  C   UNL     1       3.179   5.193  18.557  0.00  0.00    +0.000 A 
ATOM      5  N   UNL     1       2.947   6.006  19.600  0.00  0.00    +0.000 NA
ATOM      6  C   UNL     1       1.934   5.682  20.429  0.00  0.00    +0.000 A 
ATOM      7  C   UNL     1       1.154   4.566  20.275  0.00  0.00    +0.000 A 
ATOM      8  C   UNL     1       1.474   3.793  19.196  0.00  0.00    +0.000 A 
ATOM      9  N   UNL     1       2.460   4.087  18.337  0.00  0.00    +0.000 NA
ATOM     10  C   UNL     1       4.317   4.758  16.426  0.00  0.00    +0.000 C 
ATOM     11  C   UNL     1       5.780   4.327  16.202  0.00  0.00    +0.000 C 
ATOM     12  C   UNL     1       5.962   3.753  14.804  0.00  0.00    +0.000 C 
ATOM     13  O   UNL     1       6.675   5.445  16.335  0.00  0.00    +0.000 OA
ENDROOT
BRANCH   1  14
ATOM     14  C   UNL     1       7.575   7.197  17.769  0.00  0.00    +0.000 C 
ATOM     15  O   UNL     1       7.674   8.141  16.993  0.00  0.00    +0.000 OA
BRANCH  14  17
ATOM     16  C   UNL     1       8.160   5.774  19.531  0.00  0.00    +0.000 C 
ATOM     17  O   UNL     1       8.399   7.001  18.841  0.00  0.00    +0.000 OA
ENDBRANCH  14  17
ENDBRANCH   1  14
BRANCH   8  18
ATOM     18  O   UNL     1       0.736   2.640  19.001  0.00  0.00    +0.000 OA
ATOM     19  C   UNL     1       1.561   1.502  18.748  0.00  0.00    +0.000 C 
ENDBRANCH   8  18
TORSDOF 3
ENDMDL
MODEL 8
REMARK VINA RESULT:      -6.3      2.397      6.477
REMARK  Name = 
REMARK  6 active torsions:
REMARK  status: ('A' for Active; 'I' for Inactive)
REMARK    1  A    between atoms: C_1  and  O_2
REMARK    2  A    between atoms: O_2  and  C_3
REMARK    3  A    between atoms: C_3  and  C_5
REMARK    4  A    between atoms: C_12  and  O_13
REMARK    5  A    between atoms: O_13  and  C_14
REMARK    6  A    between atoms: C_17  and  C_18
REMARK                            x       y       z     vdW  Elec       q    Type
REMARK                         _______ _______ _______ _____ _____    ______ ____
ROOT
ATOM      1  C   UNL     1       2.602   4.168  20.443  0.00  0.00    +0.000 C 
ATOM      2  C   UNL     1       3.067   4.084  18.976  0.00  0.00    +0.000 C 
ATOM      3  N   UNL     1       3.693   5.355  18.619  0.00  0.00    +0.000 N 
ATOM      4  C   UNL     1       4.857   5.434  17.910  0.00  0.00    +0.000 A 
ATOM      5  N   UNL     1       5.452   4.314  17.468  0.00  0.00    +0.000 NA
ATOM      6  C   UNL     1       6.621   4.449  16.809  0.00  0.00    +0.000 A 
ATOM      7  C   UNL     1       7.235   5.654  16.590  0.00  0.00    +0.000 A 
ATOM      8  C   UNL     1       6.563   6.734  17.087  0.00  0.00    +0.000 A 
ATOM      9  N   UNL     1       5.391   6.647  17.732  0.00  0.00    +0.000 NA
ATOM     10  C   UNL     1       2.887   6.549  18.860  0.00  0.00    +0.000 C 
ATOM     11  C   UNL     1       2.406   6.540  20.324  0.00  0.00    +0.000 C 
ATOM     12  C   UNL     1       1.426   7.677  20.573  0.00  0.00    +0.000 C 
ATOM     13  O   UNL     1       1.736   5.308  20.642  0.00  0.00    +0.000 OA
ENDROOT
BRANCH   1  14
ATOM     14  C   UNL     1       1.877   2.885  20.839  0.00  0.00    +0.000 C 
ATOM     15  O   UNL     1       1.505   2.597  21.971  0.00  0.00    +0.000 OA
BRANCH  14  17
ATOM     16  C   UNL     1       0.536   2.251  19.029  0.00  0.00    +0.000 C 
ATOM     17  O   UNL     1       1.748   2.055  19.760  0.00  0.00    +0.000 OA
ENDBRANCH  14  17
ENDBRANCH   1  14
BRANCH   8  18
ATOM     18  O   UNL     1       7.145   7.977  16.918  0.00  0.00    +0.000 OA
ATOM     19  C   UNL     1       8.094   8.278  17.941  0.00  0.00    +0.000 C 
ENDBRANCH   8  18
TORSDOF 3
ENDMDL
MODEL 9
REMARK VINA RESULT:      -6.3      3.528      4.567
REMARK  Name = 
REMARK  6 active torsions:
REMARK  status: ('A' for Active; 'I' for Inactive)
REMARK    1  A    between atoms: C_1  and  O_2
REMARK    2  A    between atoms: O_2  and  C_3
REMARK    3  A    between atoms: C_3  and  C_5
REMARK    4  A    between atoms: C_12  and  O_13
REMARK    5  A    between atoms: O_13  and  C_14
REMARK    6  A    between atoms: C_17  and  C_18
REMARK                            x       y       z     vdW  Elec       q    Type
REMARK                         _______ _______ _______ _____ _____    ______ ____
ROOT
ATOM      1  C   UNL     1       5.664   5.410  17.439  0.00  0.00    +0.000 C 
ATOM      2  C   UNL     1       4.319   6.050  17.042  0.00  0.00    +0.000 C 
ATOM      3  N   UNL     1       3.465   6.098  18.226  0.00  0.00    +0.000 N 
ATOM      4  C   UNL     1       2.717   7.191  18.556  0.00  0.00    +0.000 A 
ATOM      5  N   UNL     1       2.709   8.267  17.754  0.00  0.00    +0.000 NA
ATOM      6  C   UNL     1       1.985   9.334  18.150  0.00  0.00    +0.000 A 
ATOM      7  C   UNL     1       1.284   9.383  19.326  0.00  0.00    +0.000 A 
ATOM      8  C   UNL     1       1.363   8.247  20.082  0.00  0.00    +0.000 A 
ATOM      9  N   UNL     1       2.055   7.159  19.718  0.00  0.00    +0.000 NA
ATOM     10  C   UNL     1       3.271   4.828  18.919  0.00  0.00    +0.000 C 
ATOM     11  C   UNL     1       4.649   4.214  19.233  0.00  0.00    +0.000 C 
ATOM     12  C   UNL     1       4.494   2.812  19.805  0.00  0.00    +0.000 C 
ATOM     13  O   UNL     1       5.455   4.115  18.046  0.00  0.00    +0.000 OA
ENDROOT
BRANCH   1  14
ATOM     14  C   UNL     1       6.564   5.275  16.214  0.00  0.00    +0.000 C 
ATOM     15  O   UNL     1       6.498   4.382  15.377  0.00  0.00    +0.000 OA
BRANCH  14  17
ATOM     16  C   UNL     1       7.576   7.005  17.421  0.00  0.00    +0.000 C 
ATOM     17  O   UNL     1       7.510   6.261  16.203  0.00  0.00    +0.000 OA
ENDBRANCH  14  17
ENDBRANCH   1  14
BRANCH   8  18
ATOM     18  O   UNL     1       0.695   8.244  21.292  0.00  0.00    +0.000 OA
ATOM     19  C   UNL     1       0.014   9.474  21.542  0.00  0.00    +0.000 C 
ENDBRANCH   8  18
TORSDOF 3
ENDMDL
