MODEL 1
REMARK VINA RESULT:      -8.4      0.000      0.000
REMARK  Name = 
REMARK  6 active torsions:
REMARK  status: ('A' for Active; 'I' for Inactive)
REMARK    1  A    between atoms: C_1  and  C_2
REMARK    2  A    between atoms: C_2  and  C_3
REMARK    3  A    between atoms: C_3  and  C_4
REMARK    4  A    between atoms: C_9  and  C_10
REMARK    5  A    between atoms: C_11  and  C_12
REMARK    6  A    between atoms: N_16  and  C_17
REMARK                            x       y       z     vdW  Elec       q    Type
REMARK                         _______ _______ _______ _____ _____    ______ ____
ROOT
ATOM      1  C   UNL     1       4.479   4.274  18.626  0.00  0.00    +0.000 A 
ATOM      2  C   UNL     1       4.077   3.114  19.254  0.00  0.00    +0.000 A 
ATOM      3  S   UNL     1       3.011   3.491  20.545  0.00  0.00    +0.000 S 
ATOM      4  C   UNL     1       3.075   5.155  20.104  0.00  0.00    +0.000 A 
ATOM      5  N   UNL     1       2.351   6.083  20.769  0.00  0.00    +0.000 N 
ATOM      6  N   UNL     1       3.888   5.417  19.108  0.00  0.00    +0.000 NA
ATOM      7  H   UNL     1       1.951   5.843  21.667  0.00  0.00    +0.000 HD
ENDROOT
BRANCH   1  15
ATOM      8  C   UNL     1       6.236   3.912  13.034  0.00  0.00    +0.000 C 
ATOM      9  O   UNL     1       5.011   3.816  13.052  0.00  0.00    +0.000 OA
ATOM     10  N   UNL     1       7.058   4.198  14.099  0.00  0.00    +0.000 N 
ATOM     11  C   UNL     1       6.650   4.321  15.404  0.00  0.00    +0.000 A 
ATOM     12  N   UNL     1       7.407   4.872  16.321  0.00  0.00    +0.000 NA
ATOM     13  C   UNL     1       6.714   4.921  17.532  0.00  0.00    +0.000 A 
ATOM     14  C   UNL     1       7.380   5.584  18.690  0.00  0.00    +0.000 C 
ATOM     15  C   UNL     1       5.456   4.338  17.495  0.00  0.00    +0.000 A 
ATOM     16  S   UNL     1       5.169   3.689  15.945  0.00  0.00    +0.000 S 
ATOM     17  H   UNL     1       8.005   4.507  13.940  0.00  0.00    +0.000 HD
BRANCH   8  18
ATOM     18  C   UNL     1       6.982   3.725  11.729  0.00  0.00    +0.000 C 
BRANCH  18  20
ATOM     19  C   UNL     1       6.159   1.391  11.152  0.00  0.00    +0.000 C 
ATOM     20  C   UNL     1       7.362   2.270  11.466  0.00  0.00    +0.000 C 
ENDBRANCH  18  20
ENDBRANCH   8  18
ENDBRANCH   1  15
BRANCH   5  21
ATOM     21  C   UNL     1       1.906   7.296  20.215  0.00  0.00    +0.000 A 
ATOM     22  C   UNL     1       2.220   7.678  18.901  0.00  0.00    +0.000 A 
ATOM     23  C   UNL     1       1.825   8.917  18.394  0.00  0.00    +0.000 A 
ATOM     24  C   UNL     1       1.135   9.804  19.211  0.00  0.00    +0.000 A 
ATOM     25 CL   UNL     1       0.679  11.347  18.602  0.00  0.00    +0.000 Cl
ATOM     26  C   UNL     1       0.818   9.451  20.521  0.00  0.00    +0.000 A 
ATOM     27  C   UNL     1       1.199   8.199  21.017  0.00  0.00    +0.000 A 
ENDBRANCH   5  21
TORSDOF 4
ENDMDL
MODEL 2
REMARK VINA RESULT:      -7.6      0.863      1.310
REMARK  Name = 
REMARK  6 active torsions:
REMARK  status: ('A' for Active; 'I' for Inactive)
REMARK    1  A    between atoms: C_1  and  C_2
REMARK    2  A    between atoms: C_2  and  C_3
REMARK    3  A    between atoms: C_3  and  C_4
REMARK    4  A    between atoms: C_9  and  C_10
REMARK    5  A    between atoms: C_11  and  C_12
REMARK    6  A    between atoms: N_16  and  C_17
REMARK                            x       y       z     vdW  Elec       q    Type
REMARK                         _______ _______ _______ _____ _____    ______ ____
ROOT
ATOM      1  C   UNL     1       4.124   4.462  19.062  0.00  0.00    +0.000 A 
ATOM      2  C   UNL     1       3.614   3.334  19.670  0.00  0.00    +0.000 A 
ATOM      3  S   UNL     1       2.476   3.786  20.872  0.00  0.00    +0.000 S 
ATOM      4  C   UNL     1       2.662   5.437  20.421  0.00  0.00    +0.000 A 
ATOM      5  N   UNL     1       1.942   6.412  21.019  0.00  0.00    +0.000 N 
ATOM      6  N   UNL     1       3.561   5.642  19.487  0.00  0.00    +0.000 NA
ATOM      7  H   UNL     1       1.464   6.207  21.887  0.00  0.00    +0.000 HD
ENDROOT
BRANCH   1  15
ATOM      8  C   UNL     1       6.261   4.008  13.610  0.00  0.00    +0.000 C 
ATOM      9  O   UNL     1       5.034   4.009  13.536  0.00  0.00    +0.000 OA
ATOM     10  N   UNL     1       7.020   4.219  14.737  0.00  0.00    +0.000 N 
ATOM     11  C   UNL     1       6.527   4.364  16.010  0.00  0.00    +0.000 A 
ATOM     12  N   UNL     1       7.254   4.845  16.989  0.00  0.00    +0.000 NA
ATOM     13  C   UNL     1       6.478   4.940  18.146  0.00  0.00    +0.000 A 
ATOM     14  C   UNL     1       7.105   5.537  19.358  0.00  0.00    +0.000 C 
ATOM     15  C   UNL     1       5.184   4.457  18.007  0.00  0.00    +0.000 A 
ATOM     16  S   UNL     1       4.964   3.846  16.431  0.00  0.00    +0.000 S 
ATOM     17  H   UNL     1       7.999   4.454  14.654  0.00  0.00    +0.000 HD
BRANCH   8  18
ATOM     18  C   UNL     1       7.085   3.773  12.362  0.00  0.00    +0.000 C 
BRANCH  18  20
ATOM     19  C   UNL     1       8.426   5.928  12.490  0.00  0.00    +0.000 C 
ATOM     20  C   UNL     1       7.481   5.069  11.660  0.00  0.00    +0.000 C 
ENDBRANCH  18  20
ENDBRANCH   8  18
ENDBRANCH   1  15
BRANCH   5  21
ATOM     21  C   UNL     1       1.607   7.639  20.421  0.00  0.00    +0.000 A 
ATOM     22  C   UNL     1       1.976   7.955  19.105  0.00  0.00    +0.000 A 
ATOM     23  C   UNL     1       1.691   9.206  18.553  0.00  0.00    +0.000 A 
ATOM     24  C   UNL     1       1.058  10.168  19.329  0.00  0.00    +0.000 A 
ATOM     25 CL   UNL     1       0.738  11.724  18.666  0.00  0.00    +0.000 Cl
ATOM     26  C   UNL     1       0.688   9.882  20.641  0.00  0.00    +0.000 A 
ATOM     27  C   UNL     1       0.958   8.620  21.181  0.00  0.00    +0.000 A 
ENDBRANCH   5  21
TORSDOF 4
ENDMDL
MODEL 3
REMARK VINA RESULT:      -7.6      4.854      7.530
REMARK  Name = 
REMARK  6 active torsions:
REMARK  status: ('A' for Active; 'I' for Inactive)
REMARK    1  A    between atoms: C_1  and  C_2
REMARK    2  A    between atoms: C_2  and  C_3
REMARK    3  A    between atoms: C_3  and  C_4
REMARK    4  A    between atoms: C_9  and  C_10
REMARK    5  A    between atoms: C_11  and  C_12
REMARK    6  A    between atoms: N_16  and  C_17
REMARK                            x       y       z     vdW  Elec       q    Type
REMARK                         _______ _______ _______ _____ _____    ______ ____
ROOT
ATOM      1  C   UNL     1       0.664  10.641  19.231  0.00  0.00    +0.000 A 
ATOM      2  C   UNL     1       1.463  11.763  19.157  0.00  0.00    +0.000 A 
ATOM      3  S   UNL     1       0.552  13.088  18.558  0.00  0.00    +0.000 S 
ATOM      4  C   UNL     1      -0.861  12.104  18.545  0.00  0.00    +0.000 A 
ATOM      5  N   UNL     1      -2.061  12.605  18.175  0.00  0.00    +0.000 N 
ATOM      6  N   UNL     1      -0.652  10.856  18.898  0.00  0.00    +0.000 NA
ATOM      7  H   UNL     1      -2.093  13.490  17.685  0.00  0.00    +0.000 HD
ENDROOT
BRANCH   1  15
ATOM      8  C   UNL     1       3.827   5.707  18.855  0.00  0.00    +0.000 C 
ATOM      9  O   UNL     1       4.247   6.491  18.007  0.00  0.00    +0.000 OA
ATOM     10  N   UNL     1       2.887   5.966  19.825  0.00  0.00    +0.000 N 
ATOM     11  C   UNL     1       2.170   7.131  19.942  0.00  0.00    +0.000 A 
ATOM     12  N   UNL     1       1.511   7.436  21.034  0.00  0.00    +0.000 NA
ATOM     13  C   UNL     1       0.934   8.700  20.894  0.00  0.00    +0.000 A 
ATOM     14  C   UNL     1       0.199   9.263  22.062  0.00  0.00    +0.000 C 
ATOM     15  C   UNL     1       1.133   9.285  19.652  0.00  0.00    +0.000 A 
ATOM     16  S   UNL     1       2.011   8.222  18.649  0.00  0.00    +0.000 S 
ATOM     17  H   UNL     1       2.799   5.355  20.623  0.00  0.00    +0.000 HD
BRANCH   8  18
ATOM     18  C   UNL     1       4.375   4.296  18.906  0.00  0.00    +0.000 C 
BRANCH  18  20
ATOM     19  C   UNL     1       2.642   3.295  17.340  0.00  0.00    +0.000 C 
ATOM     20  C   UNL     1       4.123   3.515  17.619  0.00  0.00    +0.000 C 
ENDBRANCH  18  20
ENDBRANCH   8  18
ENDBRANCH   1  15
BRANCH   5  21
ATOM     21  C   UNL     1      -3.302  12.113  18.612  0.00  0.00    +0.000 A 
ATOM     22  C   UNL     1      -4.083  11.249  17.828  0.00  0.00    +0.000 A 
ATOM     23  C   UNL     1      -5.343  10.825  18.254  0.00  0.00    +0.000 A 
ATOM     24  C   UNL     1      -5.851  11.290  19.460  0.00  0.00    +0.000 A 
ATOM     25 CL   UNL     1      -7.419  10.801  19.971  0.00  0.00    +0.000 Cl
ATOM     26  C   UNL     1      -5.099  12.154  20.253  0.00  0.00    +0.000 A 
ATOM     27  C   UNL     1      -3.828  12.558  19.831  0.00  0.00    +0.000 A 
ENDBRANCH   5  21
TORSDOF 4
ENDMDL
MODEL 4
REMARK VINA RESULT:      -7.6      3.304      4.897
REMARK  Name = 
REMARK  6 active torsions:
REMARK  status: ('A' for Active; 'I' for Inactive)
REMARK    1  A    between atoms: C_1  and  C_2
REMARK    2  A    between atoms: C_2  and  C_3
REMARK    3  A    between atoms: C_3  and  C_4
REMARK    4  A    between atoms: C_9  and  C_10
REMARK    5  A    between atoms: C_11  and  C_12
REMARK    6  A    between atoms: N_16  and  C_17
REMARK                            x       y       z     vdW  Elec       q    Type
REMARK                         _______ _______ _______ _____ _____    ______ ____
ROOT
ATOM      1  C   UNL     1       1.722   7.955  20.111  0.00  0.00    +0.000 A 
ATOM      2  C   UNL     1       1.782   8.053  21.486  0.00  0.00    +0.000 A 
ATOM      3  S   UNL     1       0.925   9.444  22.009  0.00  0.00    +0.000 S 
ATOM      4  C   UNL     1       0.444   9.752  20.384  0.00  0.00    +0.000 A 
ATOM      5  N   UNL     1      -0.363  10.792  20.078  0.00  0.00    +0.000 N 
ATOM      6  N   UNL     1       0.946   8.914  19.506  0.00  0.00    +0.000 NA
ATOM      7  H   UNL     1      -0.500  11.525  20.761  0.00  0.00    +0.000 HD
ENDROOT
BRANCH   1  15
ATOM      8  C   UNL     1       5.614   5.844  16.253  0.00  0.00    +0.000 C 
ATOM      9  O   UNL     1       5.891   7.023  16.463  0.00  0.00    +0.000 OA
ATOM     10  N   UNL     1       4.661   5.092  16.900  0.00  0.00    +0.000 N 
ATOM     11  C   UNL     1       3.772   5.570  17.830  0.00  0.00    +0.000 A 
ATOM     12  N   UNL     1       3.091   4.772  18.617  0.00  0.00    +0.000 NA
ATOM     13  C   UNL     1       2.321   5.531  19.500  0.00  0.00    +0.000 A 
ATOM     14  C   UNL     1       1.526   4.806  20.532  0.00  0.00    +0.000 C 
ATOM     15  C   UNL     1       2.405   6.901  19.300  0.00  0.00    +0.000 A 
ATOM     16  S   UNL     1       3.422   7.226  17.970  0.00  0.00    +0.000 S 
ATOM     17  H   UNL     1       4.683   4.085  16.841  0.00  0.00    +0.000 HD
BRANCH   8  18
ATOM     18  C   UNL     1       6.377   5.073  15.196  0.00  0.00    +0.000 C 
BRANCH  18  20
ATOM     19  C   UNL     1       6.204   3.697  13.066  0.00  0.00    +0.000 C 
ATOM     20  C   UNL     1       5.463   4.289  14.257  0.00  0.00    +0.000 C 
ENDBRANCH  18  20
ENDBRANCH   8  18
ENDBRANCH   1  15
BRANCH   5  21
ATOM     21  C   UNL     1      -1.221  10.837  18.965  0.00  0.00    +0.000 A 
ATOM     22  C   UNL     1      -2.360  11.656  18.932  0.00  0.00    +0.000 A 
ATOM     23  C   UNL     1      -3.235  11.636  17.844  0.00  0.00    +0.000 A 
ATOM     24  C   UNL     1      -2.995  10.767  16.788  0.00  0.00    +0.000 A 
ATOM     25 CL   UNL     1      -4.091  10.709  15.463  0.00  0.00    +0.000 Cl
ATOM     26  C   UNL     1      -1.876   9.937  16.801  0.00  0.00    +0.000 A 
ATOM     27  C   UNL     1      -0.991   9.978  17.884  0.00  0.00    +0.000 A 
ENDBRANCH   5  21
TORSDOF 4
ENDMDL
MODEL 5
REMARK VINA RESULT:      -7.5      3.355      4.872
REMARK  Name = 
REMARK  6 active torsions:
REMARK  status: ('A' for Active; 'I' for Inactive)
REMARK    1  A    between atoms: C_1  and  C_2
REMARK    2  A    between atoms: C_2  and  C_3
REMARK    3  A    between atoms: C_3  and  C_4
REMARK    4  A    between atoms: C_9  and  C_10
REMARK    5  A    between atoms: C_11  and  C_12
REMARK    6  A    between atoms: N_16  and  C_17
REMARK                            x       y       z     vdW  Elec       q    Type
REMARK                         _______ _______ _______ _____ _____    ______ ____
ROOT
ATOM      1  C   UNL     1       1.726   7.976  20.026  0.00  0.00    +0.000 A 
ATOM      2  C   UNL     1       1.791   8.122  21.396  0.00  0.00    +0.000 A 
ATOM      3  S   UNL     1       0.865   9.484  21.881  0.00  0.00    +0.000 S 
ATOM      4  C   UNL     1       0.357   9.711  20.251  0.00  0.00    +0.000 A 
ATOM      5  N   UNL     1      -0.506  10.697  19.918  0.00  0.00    +0.000 N 
ATOM      6  N   UNL     1       0.897   8.873  19.397  0.00  0.00    +0.000 NA
ATOM      7  H   UNL     1      -0.676  11.444  20.578  0.00  0.00    +0.000 HD
ENDROOT
BRANCH   1  15
ATOM      8  C   UNL     1       5.855   5.914  16.394  0.00  0.00    +0.000 C 
ATOM      9  O   UNL     1       6.121   7.089  16.640  0.00  0.00    +0.000 OA
ATOM     10  N   UNL     1       4.861   5.155  16.966  0.00  0.00    +0.000 N 
ATOM     11  C   UNL     1       3.915   5.621  17.845  0.00  0.00    +0.000 A 
ATOM     12  N   UNL     1       3.183   4.813  18.573  0.00  0.00    +0.000 NA
ATOM     13  C   UNL     1       2.359   5.560  19.417  0.00  0.00    +0.000 A 
ATOM     14  C   UNL     1       1.498   4.821  20.383  0.00  0.00    +0.000 C 
ATOM     15  C   UNL     1       2.459   6.933  19.244  0.00  0.00    +0.000 A 
ATOM     16  S   UNL     1       3.559   7.276  17.988  0.00  0.00    +0.000 S 
ATOM     17  H   UNL     1       4.886   4.149  16.894  0.00  0.00    +0.000 HD
BRANCH   8  18
ATOM     18  C   UNL     1       6.684   5.158  15.377  0.00  0.00    +0.000 C 
BRANCH  18  20
ATOM     19  C   UNL     1       5.843   3.789  13.408  0.00  0.00    +0.000 C 
ATOM     20  C   UNL     1       6.021   3.861  14.918  0.00  0.00    +0.000 C 
ENDBRANCH  18  20
ENDBRANCH   8  18
ENDBRANCH   1  15
BRANCH   5  21
ATOM     21  C   UNL     1      -1.373  10.660  18.812  0.00  0.00    +0.000 A 
ATOM     22  C   UNL     1      -1.142   9.823  17.708  0.00  0.00    +0.000 A 
ATOM     23  C   UNL     1      -1.979   9.851  16.591  0.00  0.00    +0.000 A 
ATOM     24  C   UNL     1      -3.043  10.743  16.555  0.00  0.00    +0.000 A 
ATOM     25 CL   UNL     1      -4.055  10.809  15.165  0.00  0.00    +0.000 Cl
ATOM     26  C   UNL     1      -3.288  11.590  17.634  0.00  0.00    +0.000 A 
ATOM     27  C   UNL     1      -2.458  11.542  18.759  0.00  0.00    +0.000 A 
ENDBRANCH   5  21
TORSDOF 4
ENDMDL
MODEL 6
REMARK VINA RESULT:      -7.4      4.181      9.327
REMARK  Name = 
REMARK  6 active torsions:
REMARK  status: ('A' for Active; 'I' for Inactive)
REMARK    1  A    between atoms: C_1  and  C_2
REMARK    2  A    between atoms: C_2  and  C_3
REMARK    3  A    between atoms: C_3  and  C_4
REMARK    4  A    between atoms: C_9  and  C_10
REMARK    5  A    between atoms: C_11  and  C_12
REMARK    6  A    between atoms: N_16  and  C_17
REMARK                            x       y       z     vdW  Elec       q    Type
REMARK                         _______ _______ _______ _____ _____    ______ ____
ROOT
ATOM      1  C   UNL     1       2.323   5.958  19.983  0.00  0.00    +0.000 A 
ATOM      2  C   UNL     1       2.235   5.093  21.054  0.00  0.00    +0.000 A 
ATOM      3  S   UNL     1       2.911   3.573  20.632  0.00  0.00    +0.000 S 
ATOM      4  C   UNL     1       3.370   4.210  19.099  0.00  0.00    +0.000 A 
ATOM      5  N   UNL     1       4.049   3.458  18.204  0.00  0.00    +0.000 N 
ATOM      6  N   UNL     1       2.984   5.447  18.892  0.00  0.00    +0.000 NA
ATOM      7  H   UNL     1       4.088   2.456  18.333  0.00  0.00    +0.000 HD
ENDROOT
BRANCH   1  15
ATOM      8  C   UNL     1      -0.083  10.803  22.269  0.00  0.00    +0.000 C 
ATOM      9  O   UNL     1       0.189  10.043  23.196  0.00  0.00    +0.000 OA
ATOM     10  N   UNL     1       0.239  10.636  20.942  0.00  0.00    +0.000 N 
ATOM     11  C   UNL     1       0.835   9.522  20.406  0.00  0.00    +0.000 A 
ATOM     12  N   UNL     1       1.377   9.529  19.212  0.00  0.00    +0.000 NA
ATOM     13  C   UNL     1       1.962   8.287  18.957  0.00  0.00    +0.000 A 
ATOM     14  C   UNL     1       2.699   8.115  17.673  0.00  0.00    +0.000 C 
ATOM     15  C   UNL     1       1.781   7.351  19.966  0.00  0.00    +0.000 A 
ATOM     16  S   UNL     1       0.837   8.027  21.214  0.00  0.00    +0.000 S 
ATOM     17  H   UNL     1       0.203  11.421  20.308  0.00  0.00    +0.000 HD
BRANCH   8  18
ATOM     18  C   UNL     1      -0.836  12.087  22.551  0.00  0.00    +0.000 C 
BRANCH  18  20
ATOM     19  C   UNL     1      -2.910  13.124  23.589  0.00  0.00    +0.000 C 
ATOM     20  C   UNL     1      -2.229  11.844  23.124  0.00  0.00    +0.000 C 
ENDBRANCH  18  20
ENDBRANCH   8  18
ENDBRANCH   1  15
BRANCH   5  21
ATOM     21  C   UNL     1       4.908   3.972  17.217  0.00  0.00    +0.000 A 
ATOM     22  C   UNL     1       4.539   4.039  15.864  0.00  0.00    +0.000 A 
ATOM     23  C   UNL     1       5.432   4.491  14.891  0.00  0.00    +0.000 A 
ATOM     24  C   UNL     1       6.721   4.853  15.260  0.00  0.00    +0.000 A 
ATOM     25 CL   UNL     1       7.838   5.374  14.060  0.00  0.00    +0.000 Cl
ATOM     26  C   UNL     1       7.115   4.788  16.595  0.00  0.00    +0.000 A 
ATOM     27  C   UNL     1       6.208   4.355  17.569  0.00  0.00    +0.000 A 
ENDBRANCH   5  21
TORSDOF 4
ENDMDL
MODEL 7
REMARK VINA RESULT:      -7.4      4.725      6.972
REMARK  Name = 
REMARK  6 active torsions:
REMARK  status: ('A' for Active; 'I' for Inactive)
REMARK    1  A    between atoms: C_1  and  C_2
REMARK    2  A    between atoms: C_2  and  C_3
REMARK    3  A    between atoms: C_3  and  C_4
REMARK    4  A    between atoms: C_9  and  C_10
REMARK    5  A    between atoms: C_11  and  C_12
REMARK    6  A    between atoms: N_16  and  C_17
REMARK                            x       y       z     vdW  Elec       q    Type
REMARK                         _______ _______ _______ _____ _____    ______ ____
ROOT
ATOM      1  C   UNL     1       0.961  10.660  18.960  0.00  0.00    +0.000 A 
ATOM      2  C   UNL     1       1.687  11.801  19.230  0.00  0.00    +0.000 A 
ATOM      3  S   UNL     1       0.744  13.189  18.871  0.00  0.00    +0.000 S 
ATOM      4  C   UNL     1      -0.594  12.175  18.489  0.00  0.00    +0.000 A 
ATOM      5  N   UNL     1      -1.788  12.697  18.129  0.00  0.00    +0.000 N 
ATOM      6  N   UNL     1      -0.333  10.890  18.559  0.00  0.00    +0.000 NA
ATOM      7  H   UNL     1      -1.837  13.670  17.859  0.00  0.00    +0.000 HD
ENDROOT
BRANCH   1  15
ATOM      8  C   UNL     1       4.141   5.954  17.464  0.00  0.00    +0.000 C 
ATOM      9  O   UNL     1       4.476   6.884  16.734  0.00  0.00    +0.000 OA
ATOM     10  N   UNL     1       3.285   6.016  18.539  0.00  0.00    +0.000 N 
ATOM     11  C   UNL     1       2.566   7.122  18.918  0.00  0.00    +0.000 A 
ATOM     12  N   UNL     1       2.000   7.215  20.097  0.00  0.00    +0.000 NA
ATOM     13  C   UNL     1       1.398   8.467  20.229  0.00  0.00    +0.000 A 
ATOM     14  C   UNL     1       0.760   8.799  21.535  0.00  0.00    +0.000 C 
ATOM     15  C   UNL     1       1.482   9.265  19.097  0.00  0.00    +0.000 A 
ATOM     16  S   UNL     1       2.282   8.416  17.854  0.00  0.00    +0.000 S 
ATOM     17  H   UNL     1       3.274   5.272  19.222  0.00  0.00    +0.000 HD
BRANCH   8  18
ATOM     18  C   UNL     1       4.708   4.571  17.221  0.00  0.00    +0.000 C 
BRANCH  18  20
ATOM     19  C   UNL     1       6.721   4.391  15.681  0.00  0.00    +0.000 C 
ATOM     20  C   UNL     1       5.203   4.376  15.790  0.00  0.00    +0.000 C 
ENDBRANCH  18  20
ENDBRANCH   8  18
ENDBRANCH   1  15
BRANCH   5  21
ATOM     21  C   UNL     1      -3.027  12.059  18.315  0.00  0.00    +0.000 A 
ATOM     22  C   UNL     1      -3.566  11.180  17.363  0.00  0.00    +0.000 A 
ATOM     23  C   UNL     1      -4.828  10.610  17.536  0.00  0.00    +0.000 A 
ATOM     24  C   UNL     1      -5.581  10.941  18.656  0.00  0.00    +0.000 A 
ATOM     25 CL   UNL     1      -7.153  10.271  18.855  0.00  0.00    +0.000 Cl
ATOM     26  C   UNL     1      -5.072  11.818  19.611  0.00  0.00    +0.000 A 
ATOM     27  C   UNL     1      -3.798  12.369  19.442  0.00  0.00    +0.000 A 
ENDBRANCH   5  21
TORSDOF 4
ENDMDL
MODEL 8
REMARK VINA RESULT:      -7.4      5.353      8.128
REMARK  Name = 
REMARK  6 active torsions:
REMARK  status: ('A' for Active; 'I' for Inactive)
REMARK    1  A    between atoms: C_1  and  C_2
REMARK    2  A    between atoms: C_2  and  C_3
REMARK    3  A    between atoms: C_3  and  C_4
REMARK    4  A    between atoms: C_9  and  C_10
REMARK    5  A    between atoms: C_11  and  C_12
REMARK    6  A    between atoms: N_16  and  C_17
REMARK                            x       y       z     vdW  Elec       q    Type
REMARK                         _______ _______ _______ _____ _____    ______ ____
ROOT
ATOM      1  C   UNL     1       0.247  11.384  20.283  0.00  0.00    +0.000 A 
ATOM      2  C   UNL     1       1.020  12.497  20.543  0.00  0.00    +0.000 A 
ATOM      3  S   UNL     1       0.080  13.918  20.341  0.00  0.00    +0.000 S 
ATOM      4  C   UNL     1      -1.310  12.949  20.033  0.00  0.00    +0.000 A 
ATOM      5  N   UNL     1      -2.520  13.509  19.811  0.00  0.00    +0.000 N 
ATOM      6  N   UNL     1      -1.072  11.658  20.014  0.00  0.00    +0.000 NA
ATOM      7  H   UNL     1      -2.571  14.497  19.596  0.00  0.00    +0.000 HD
ENDROOT
BRANCH   1  15
ATOM      8  C   UNL     1       3.110   6.685  18.231  0.00  0.00    +0.000 C 
ATOM      9  O   UNL     1       3.377   7.638  17.502  0.00  0.00    +0.000 OA
ATOM     10  N   UNL     1       2.391   6.718  19.403  0.00  0.00    +0.000 N 
ATOM     11  C   UNL     1       1.750   7.821  19.909  0.00  0.00    +0.000 A 
ATOM     12  N   UNL     1       1.333   7.875  21.151  0.00  0.00    +0.000 NA
ATOM     13  C   UNL     1       0.781   9.133  21.404  0.00  0.00    +0.000 A 
ATOM     14  C   UNL     1       0.313   9.422  22.789  0.00  0.00    +0.000 C 
ATOM     15  C   UNL     1       0.747   9.975  20.302  0.00  0.00    +0.000 A 
ATOM     16  S   UNL     1       1.371   9.163  18.939  0.00  0.00    +0.000 S 
ATOM     17  H   UNL     1       2.445   5.947  20.053  0.00  0.00    +0.000 HD
BRANCH   8  18
ATOM     18  C   UNL     1       3.610   5.302  17.867  0.00  0.00    +0.000 C 
BRANCH  18  20
ATOM     19  C   UNL     1       2.915   2.861  17.741  0.00  0.00    +0.000 C 
ATOM     20  C   UNL     1       2.479   4.313  17.598  0.00  0.00    +0.000 C 
ENDBRANCH  18  20
ENDBRANCH   8  18
ENDBRANCH   1  15
BRANCH   5  21
ATOM     21  C   UNL     1      -3.751  12.885  20.077  0.00  0.00    +0.000 A 
ATOM     22  C   UNL     1      -4.453  12.168  19.095  0.00  0.00    +0.000 A 
ATOM     23  C   UNL     1      -5.706  11.613  19.362  0.00  0.00    +0.000 A 
ATOM     24  C   UNL     1      -6.285  11.798  20.611  0.00  0.00    +0.000 A 
ATOM     25 CL   UNL     1      -7.845  11.148  20.933  0.00  0.00    +0.000 Cl
ATOM     26  C   UNL     1      -5.612  12.512  21.599  0.00  0.00    +0.000 A 
ATOM     27  C   UNL     1      -4.347  13.049  21.332  0.00  0.00    +0.000 A 
ENDBRANCH   5  21
TORSDOF 4
ENDMDL
MODEL 9
REMARK VINA RESULT:      -7.2      4.715      7.279
REMARK  Name = 
REMARK  6 active torsions:
REMARK  status: ('A' for Active; 'I' for Inactive)
REMARK    1  A    between atoms: C_1  and  C_2
REMARK    2  A    between atoms: C_2  and  C_3
REMARK    3  A    between atoms: C_3  and  C_4
REMARK    4  A    between atoms: C_9  and  C_10
REMARK    5  A    between atoms: C_11  and  C_12
REMARK    6  A    between atoms: N_16  and  C_17
REMARK                            x       y       z     vdW  Elec       q    Type
REMARK                         _______ _______ _______ _____ _____    ______ ____
ROOT
ATOM      1  C   UNL     1       0.899  10.660  19.109  0.00  0.00    +0.000 A 
ATOM      2  C   UNL     1       1.662  11.785  19.340  0.00  0.00    +0.000 A 
ATOM      3  S   UNL     1       0.790  13.187  18.871  0.00  0.00    +0.000 S 
ATOM      4  C   UNL     1      -0.576  12.205  18.500  0.00  0.00    +0.000 A 
ATOM      5  N   UNL     1      -1.735  12.752  18.070  0.00  0.00    +0.000 N 
ATOM      6  N   UNL     1      -0.371  10.918  18.650  0.00  0.00    +0.000 NA
ATOM      7  H   UNL     1      -1.735  13.710  17.745  0.00  0.00    +0.000 HD
ENDROOT
BRANCH   1  15
ATOM      8  C   UNL     1       3.838   5.715  17.926  0.00  0.00    +0.000 C 
ATOM      9  O   UNL     1       4.206   6.573  17.127  0.00  0.00    +0.000 OA
ATOM     10  N   UNL     1       3.001   5.894  19.003  0.00  0.00    +0.000 N 
ATOM     11  C   UNL     1       2.339   7.057  19.308  0.00  0.00    +0.000 A 
ATOM     12  N   UNL     1       1.795   7.261  20.483  0.00  0.00    +0.000 NA
ATOM     13  C   UNL     1       1.253   8.547  20.530  0.00  0.00    +0.000 A 
ATOM     14  C   UNL     1       0.649   9.002  21.814  0.00  0.00    +0.000 C 
ATOM     15  C   UNL     1       1.357   9.256  19.342  0.00  0.00    +0.000 A 
ATOM     16  S   UNL     1       2.100   8.283  18.155  0.00  0.00    +0.000 S 
ATOM     17  H   UNL     1       2.966   5.203  19.738  0.00  0.00    +0.000 HD
BRANCH   8  18
ATOM     18  C   UNL     1       4.338   4.293  17.779  0.00  0.00    +0.000 C 
BRANCH  18  20
ATOM     19  C   UNL     1       3.349   1.963  18.000  0.00  0.00    +0.000 C 
ATOM     20  C   UNL     1       3.248   3.325  17.327  0.00  0.00    +0.000 C 
ENDBRANCH  18  20
ENDBRANCH   8  18
ENDBRANCH   1  15
BRANCH   5  21
ATOM     21  C   UNL     1      -3.005  12.176  18.248  0.00  0.00    +0.000 A 
ATOM     22  C   UNL     1      -3.740  12.336  19.433  0.00  0.00    +0.000 A 
ATOM     23  C   UNL     1      -4.969  11.700  19.613  0.00  0.00    +0.000 A 
ATOM     24  C   UNL     1      -5.463  10.867  18.617  0.00  0.00    +0.000 A 
ATOM     25 CL   UNL     1      -6.959  10.050  18.851  0.00  0.00    +0.000 Cl
ATOM     26  C   UNL     1      -4.748  10.685  17.436  0.00  0.00    +0.000 A 
ATOM     27  C   UNL     1      -3.527  11.342  17.252  0.00  0.00    +0.000 A 
ENDBRANCH   5  21
TORSDOF 4
ENDMDL
