MODEL 1
REMARK VINA RESULT:      -7.8      0.000      0.000
REMARK  Name = 
REMARK  6 active torsions:
REMARK  status: ('A' for Active; 'I' for Inactive)
REMARK    1  A    between atoms: C_1  and  O_2
REMARK    2  A    between atoms: O_2  and  C_3
REMARK    3  A    between atoms: C_6  and  C_7
REMARK    4  A    between atoms: C_7  and  C_8
REMARK    5  A    between atoms: C_7  and  C_17
REMARK    6  A    between atoms: C_18  and  C_19
REMARK                            x       y       z     vdW  Elec       q    Type
REMARK                         _______ _______ _______ _____ _____    ______ ____
ROOT
ATOM      1  C   UNL     1       4.651   5.443  18.283  0.00  0.00    +0.000 C 
ENDROOT
BRANCH   1   2
ATOM      2  C   UNL     1       3.912   4.155  18.667  0.00  0.00    +0.000 A 
ATOM      3  C   UNL     1       4.540   2.926  18.934  0.00  0.00    +0.000 A 
ATOM      4  C   UNL     1       4.830   2.426  20.332  0.00  0.00    +0.000 C 
ATOM      5  N   UNL     1       3.848   2.125  18.048  0.00  0.00    +0.000 N 
ATOM      6  C   UNL     1       2.537   2.347  18.447  0.00  0.00    +0.000 A 
ATOM      7  C   UNL     1       1.468   1.455  18.504  0.00  0.00    +0.000 A 
ATOM      8  C   UNL     1       0.392   1.859  19.276  0.00  0.00    +0.000 A 
ATOM      9  C   UNL     1       0.361   3.146  19.825  0.00  0.00    +0.000 A 
ATOM     10  C   UNL     1       1.380   4.102  19.592  0.00  0.00    +0.000 A 
ATOM     11  C   UNL     1       2.545   3.679  18.923  0.00  0.00    +0.000 A 
ATOM     12  H   UNL     1       4.068   2.021  17.068  0.00  0.00    +0.000 HD
ENDBRANCH   1   2
BRANCH   1  13
ATOM     13  C   UNL     1       3.761   6.704  18.430  0.00  0.00    +0.000 A 
ATOM     14  C   UNL     1       3.404   7.727  17.565  0.00  0.00    +0.000 A 
ATOM     15  C   UNL     1       2.338   8.443  18.140  0.00  0.00    +0.000 A 
ATOM     16  C   UNL     1       1.444   9.437  17.708  0.00  0.00    +0.000 A 
ATOM     17  C   UNL     1       0.516   9.958  18.609  0.00  0.00    +0.000 A 
ATOM     18  C   UNL     1       0.497   9.510  19.928  0.00  0.00    +0.000 A 
ATOM     19  C   UNL     1       1.358   8.494  20.378  0.00  0.00    +0.000 A 
ATOM     20  C   UNL     1       2.236   7.956  19.450  0.00  0.00    +0.000 A 
ATOM     21  O   UNL     1       3.090   6.895  19.619  0.00  0.00    +0.000 OA
ENDBRANCH   1  13
BRANCH   1  25
ATOM     22  C   UNL     1       6.699   4.797  14.498  0.00  0.00    +0.000 A 
ATOM     23  C   UNL     1       5.371   4.451  14.682  0.00  0.00    +0.000 A 
ATOM     24  C   UNL     1       4.722   4.764  15.880  0.00  0.00    +0.000 A 
ATOM     25  C   UNL     1       5.383   5.416  16.944  0.00  0.00    +0.000 A 
ATOM     26  C   UNL     1       6.725   5.764  16.738  0.00  0.00    +0.000 A 
ATOM     27  C   UNL     1       7.380   5.463  15.513  0.00  0.00    +0.000 A 
BRANCH  22  29
ATOM     28  C   UNL     1       6.370   3.648  12.428  0.00  0.00    +0.000 C 
ATOM     29  O   UNL     1       7.237   4.335  13.315  0.00  0.00    +0.000 OA
ENDBRANCH  22  29
ENDBRANCH   1  25
TORSDOF 4
ENDMDL
MODEL 2
REMARK VINA RESULT:      -7.7      4.414      9.638
REMARK  Name = 
REMARK  6 active torsions:
REMARK  status: ('A' for Active; 'I' for Inactive)
REMARK    1  A    between atoms: C_1  and  O_2
REMARK    2  A    between atoms: O_2  and  C_3
REMARK    3  A    between atoms: C_6  and  C_7
REMARK    4  A    between atoms: C_7  and  C_8
REMARK    5  A    between atoms: C_7  and  C_17
REMARK    6  A    between atoms: C_18  and  C_19
REMARK                            x       y       z     vdW  Elec       q    Type
REMARK                         _______ _______ _______ _____ _____    ______ ____
ROOT
ATOM      1  C   UNL     1       0.364  10.988  19.538  0.00  0.00    +0.000 C 
ENDROOT
BRANCH   1   2
ATOM      2  C   UNL     1       1.131  12.280  19.237  0.00  0.00    +0.000 A 
ATOM      3  C   UNL     1       0.808  13.176  18.203  0.00  0.00    +0.000 A 
ATOM      4  C   UNL     1       0.013  14.446  18.419  0.00  0.00    +0.000 C 
ATOM      5  N   UNL     1       2.031  13.233  17.566  0.00  0.00    +0.000 N 
ATOM      6  C   UNL     1       2.862  13.627  18.604  0.00  0.00    +0.000 A 
ATOM      7  C   UNL     1       3.958  14.487  18.581  0.00  0.00    +0.000 A 
ATOM      8  C   UNL     1       4.362  14.976  19.812  0.00  0.00    +0.000 A 
ATOM      9  C   UNL     1       3.774  14.497  20.988  0.00  0.00    +0.000 A 
ATOM     10  C   UNL     1       2.789  13.480  20.992  0.00  0.00    +0.000 A 
ATOM     11  C   UNL     1       2.266  13.059  19.755  0.00  0.00    +0.000 A 
ATOM     12  H   UNL     1       2.357  12.565  16.881  0.00  0.00    +0.000 HD
ENDBRANCH   1   2
BRANCH   1  13
ATOM     13  C   UNL     1       1.119   9.723  19.053  0.00  0.00    +0.000 A 
ATOM     14  C   UNL     1       1.836   9.418  17.907  0.00  0.00    +0.000 A 
ATOM     15  C   UNL     1       2.552   8.229  18.133  0.00  0.00    +0.000 A 
ATOM     16  C   UNL     1       3.561   7.518  17.461  0.00  0.00    +0.000 A 
ATOM     17  C   UNL     1       4.007   6.306  17.986  0.00  0.00    +0.000 A 
ATOM     18  C   UNL     1       3.437   5.800  19.154  0.00  0.00    +0.000 A 
ATOM     19  C   UNL     1       2.450   6.506  19.862  0.00  0.00    +0.000 A 
ATOM     20  C   UNL     1       2.061   7.732  19.348  0.00  0.00    +0.000 A 
ATOM     21  O   UNL     1       1.202   8.645  19.909  0.00  0.00    +0.000 OA
ENDBRANCH   1  13
BRANCH   1  25
ATOM     22  C   UNL     1      -3.635  11.137  17.829  0.00  0.00    +0.000 A 
ATOM     23  C   UNL     1      -2.661  10.282  17.342  0.00  0.00    +0.000 A 
ATOM     24  C   UNL     1      -1.420  10.193  17.980  0.00  0.00    +0.000 A 
ATOM     25  C   UNL     1      -1.103  10.971  19.115  0.00  0.00    +0.000 A 
ATOM     26  C   UNL     1      -2.103  11.826  19.597  0.00  0.00    +0.000 A 
ATOM     27  C   UNL     1      -3.371  11.903  18.960  0.00  0.00    +0.000 A 
BRANCH  22  29
ATOM     28  C   UNL     1      -5.689  12.244  17.303  0.00  0.00    +0.000 C 
ATOM     29  O   UNL     1      -4.766  11.199  17.041  0.00  0.00    +0.000 OA
ENDBRANCH  22  29
ENDBRANCH   1  25
TORSDOF 4
ENDMDL
MODEL 3
REMARK VINA RESULT:      -7.7      2.364      5.711
REMARK  Name = 
REMARK  6 active torsions:
REMARK  status: ('A' for Active; 'I' for Inactive)
REMARK    1  A    between atoms: C_1  and  O_2
REMARK    2  A    between atoms: O_2  and  C_3
REMARK    3  A    between atoms: C_6  and  C_7
REMARK    4  A    between atoms: C_7  and  C_8
REMARK    5  A    between atoms: C_7  and  C_17
REMARK    6  A    between atoms: C_18  and  C_19
REMARK                            x       y       z     vdW  Elec       q    Type
REMARK                         _______ _______ _______ _____ _____    ______ ____
ROOT
ATOM      1  C   UNL     1       4.941   5.748  16.968  0.00  0.00    +0.000 C 
ENDROOT
BRANCH   1   2
ATOM      2  C   UNL     1       4.115   4.817  17.862  0.00  0.00    +0.000 A 
ATOM      3  C   UNL     1       4.420   3.465  18.102  0.00  0.00    +0.000 A 
ATOM      4  C   UNL     1       5.140   2.981  19.341  0.00  0.00    +0.000 C 
ATOM      5  N   UNL     1       3.215   2.897  17.742  0.00  0.00    +0.000 N 
ATOM      6  C   UNL     1       2.334   3.577  18.571  0.00  0.00    +0.000 A 
ATOM      7  C   UNL     1       1.195   3.110  19.224  0.00  0.00    +0.000 A 
ATOM      8  C   UNL     1       0.731   3.903  20.259  0.00  0.00    +0.000 A 
ATOM      9  C   UNL     1       1.309   5.153  20.504  0.00  0.00    +0.000 A 
ATOM     10  C   UNL     1       2.346   5.687  19.701  0.00  0.00    +0.000 A 
ATOM     11  C   UNL     1       2.926   4.853  18.727  0.00  0.00    +0.000 A 
ATOM     12  H   UNL     1       2.943   2.666  16.796  0.00  0.00    +0.000 HD
ENDBRANCH   1   2
BRANCH   1  13
ATOM     13  C   UNL     1       5.482   5.031  15.703  0.00  0.00    +0.000 A 
ATOM     14  C   UNL     1       5.058   3.932  14.974  0.00  0.00    +0.000 A 
ATOM     15  C   UNL     1       5.758   3.911  13.754  0.00  0.00    +0.000 A 
ATOM     16  C   UNL     1       5.664   3.190  12.552  0.00  0.00    +0.000 A 
ATOM     17  C   UNL     1       6.599   3.420  11.543  0.00  0.00    +0.000 A 
ATOM     18  C   UNL     1       7.627   4.340  11.742  0.00  0.00    +0.000 A 
ATOM     19  C   UNL     1       7.725   5.097  12.921  0.00  0.00    +0.000 A 
ATOM     20  C   UNL     1       6.754   4.888  13.888  0.00  0.00    +0.000 A 
ATOM     21  O   UNL     1       6.576   5.573  15.064  0.00  0.00    +0.000 OA
ENDBRANCH   1  13
BRANCH   1  25
ATOM     22  C   UNL     1       8.246   8.157  18.455  0.00  0.00    +0.000 A 
ATOM     23  C   UNL     1       7.232   8.699  17.683  0.00  0.00    +0.000 A 
ATOM     24  C   UNL     1       6.138   7.914  17.308  0.00  0.00    +0.000 A 
ATOM     25  C   UNL     1       6.028   6.555  17.672  0.00  0.00    +0.000 A 
ATOM     26  C   UNL     1       7.061   6.025  18.459  0.00  0.00    +0.000 A 
ATOM     27  C   UNL     1       8.164   6.827  18.857  0.00  0.00    +0.000 A 
BRANCH  22  29
ATOM     28  C   UNL     1       9.084  10.396  18.446  0.00  0.00    +0.000 C 
ATOM     29  O   UNL     1       9.308   9.013  18.661  0.00  0.00    +0.000 OA
ENDBRANCH  22  29
ENDBRANCH   1  25
TORSDOF 4
ENDMDL
MODEL 4
REMARK VINA RESULT:      -7.6      4.317      9.372
REMARK  Name = 
REMARK  6 active torsions:
REMARK  status: ('A' for Active; 'I' for Inactive)
REMARK    1  A    between atoms: C_1  and  O_2
REMARK    2  A    between atoms: O_2  and  C_3
REMARK    3  A    between atoms: C_6  and  C_7
REMARK    4  A    between atoms: C_7  and  C_8
REMARK    5  A    between atoms: C_7  and  C_17
REMARK    6  A    between atoms: C_18  and  C_19
REMARK                            x       y       z     vdW  Elec       q    Type
REMARK                         _______ _______ _______ _____ _____    ______ ____
ROOT
ATOM      1  C   UNL     1       0.106  11.072  19.700  0.00  0.00    +0.000 C 
ENDROOT
BRANCH   1   2
ATOM      2  C   UNL     1       0.936  12.313  19.351  0.00  0.00    +0.000 A 
ATOM      3  C   UNL     1       0.647  13.193  18.294  0.00  0.00    +0.000 A 
ATOM      4  C   UNL     1      -0.079  14.508  18.479  0.00  0.00    +0.000 C 
ATOM      5  N   UNL     1       1.863  13.166  17.642  0.00  0.00    +0.000 N 
ATOM      6  C   UNL     1       2.727  13.548  18.659  0.00  0.00    +0.000 A 
ATOM      7  C   UNL     1       3.865  14.349  18.597  0.00  0.00    +0.000 A 
ATOM      8  C   UNL     1       4.308  14.853  19.808  0.00  0.00    +0.000 A 
ATOM      9  C   UNL     1       3.711  14.442  21.004  0.00  0.00    +0.000 A 
ATOM     10  C   UNL     1       2.675  13.477  21.051  0.00  0.00    +0.000 A 
ATOM     11  C   UNL     1       2.116  13.047  19.833  0.00  0.00    +0.000 A 
ATOM     12  H   UNL     1       2.147  12.462  16.975  0.00  0.00    +0.000 HD
ENDBRANCH   1   2
BRANCH   1  13
ATOM     13  C   UNL     1       0.958   9.776  19.724  0.00  0.00    +0.000 A 
ATOM     14  C   UNL     1       1.101   8.743  20.637  0.00  0.00    +0.000 A 
ATOM     15  C   UNL     1       1.782   7.685  20.008  0.00  0.00    +0.000 A 
ATOM     16  C   UNL     1       2.066   6.345  20.320  0.00  0.00    +0.000 A 
ATOM     17  C   UNL     1       2.836   5.588  19.438  0.00  0.00    +0.000 A 
ATOM     18  C   UNL     1       3.334   6.168  18.272  0.00  0.00    +0.000 A 
ATOM     19  C   UNL     1       3.037   7.496  17.920  0.00  0.00    +0.000 A 
ATOM     20  C   UNL     1       2.227   8.211  18.788  0.00  0.00    +0.000 A 
ATOM     21  O   UNL     1       1.717   9.473  18.613  0.00  0.00    +0.000 OA
ENDBRANCH   1  13
BRANCH   1  25
ATOM     22  C   UNL     1      -3.280  10.746  16.987  0.00  0.00    +0.000 A 
ATOM     23  C   UNL     1      -2.139   9.977  16.832  0.00  0.00    +0.000 A 
ATOM     24  C   UNL     1      -1.114  10.040  17.781  0.00  0.00    +0.000 A 
ATOM     25  C   UNL     1      -1.184  10.889  18.906  0.00  0.00    +0.000 A 
ATOM     26  C   UNL     1      -2.348  11.657  19.049  0.00  0.00    +0.000 A 
ATOM     27  C   UNL     1      -3.399  11.579  18.096  0.00  0.00    +0.000 A 
BRANCH  22  29
ATOM     28  C   UNL     1      -3.634  10.239  14.678  0.00  0.00    +0.000 C 
ATOM     29  O   UNL     1      -4.157  10.662  15.926  0.00  0.00    +0.000 OA
ENDBRANCH  22  29
ENDBRANCH   1  25
TORSDOF 4
ENDMDL
MODEL 5
REMARK VINA RESULT:      -7.5      1.571      2.334
REMARK  Name = 
REMARK  6 active torsions:
REMARK  status: ('A' for Active; 'I' for Inactive)
REMARK    1  A    between atoms: C_1  and  O_2
REMARK    2  A    between atoms: O_2  and  C_3
REMARK    3  A    between atoms: C_6  and  C_7
REMARK    4  A    between atoms: C_7  and  C_8
REMARK    5  A    between atoms: C_7  and  C_17
REMARK    6  A    between atoms: C_18  and  C_19
REMARK                            x       y       z     vdW  Elec       q    Type
REMARK                         _______ _______ _______ _____ _____    ______ ____
ROOT
ATOM      1  C   UNL     1       3.481   6.212  18.696  0.00  0.00    +0.000 C 
ENDROOT
BRANCH   1   2
ATOM      2  C   UNL     1       2.766   4.992  19.288  0.00  0.00    +0.000 A 
ATOM      3  C   UNL     1       1.434   4.638  19.011  0.00  0.00    +0.000 A 
ATOM      4  C   UNL     1       1.047   3.581  17.998  0.00  0.00    +0.000 C 
ATOM      5  N   UNL     1       0.950   4.562  20.301  0.00  0.00    +0.000 N 
ATOM      6  C   UNL     1       1.820   3.640  20.866  0.00  0.00    +0.000 A 
ATOM      7  C   UNL     1       1.562   2.637  21.798  0.00  0.00    +0.000 A 
ATOM      8  C   UNL     1       2.529   1.651  21.899  0.00  0.00    +0.000 A 
ATOM      9  C   UNL     1       3.734   1.771  21.200  0.00  0.00    +0.000 A 
ATOM     10  C   UNL     1       4.049   2.900  20.403  0.00  0.00    +0.000 A 
ATOM     11  C   UNL     1       3.038   3.853  20.177  0.00  0.00    +0.000 A 
ATOM     12  H   UNL     1       0.624   5.349  20.844  0.00  0.00    +0.000 HD
ENDBRANCH   1   2
BRANCH   1  13
ATOM     13  C   UNL     1       2.597   7.486  18.714  0.00  0.00    +0.000 A 
ATOM     14  C   UNL     1       2.076   8.301  17.722  0.00  0.00    +0.000 A 
ATOM     15  C   UNL     1       1.103   9.138  18.299  0.00  0.00    +0.000 A 
ATOM     16  C   UNL     1       0.126  10.025  17.818  0.00  0.00    +0.000 A 
ATOM     17  C   UNL     1      -0.653  10.740  18.728  0.00  0.00    +0.000 A 
ATOM     18  C   UNL     1      -0.442  10.588  20.098  0.00  0.00    +0.000 A 
ATOM     19  C   UNL     1       0.506   9.683  20.605  0.00  0.00    +0.000 A 
ATOM     20  C   UNL     1       1.231   8.947  19.681  0.00  0.00    +0.000 A 
ATOM     21  O   UNL     1       2.127   7.937  19.929  0.00  0.00    +0.000 OA
ENDBRANCH   1  13
BRANCH   1  25
ATOM     22  C   UNL     1       5.765   5.305  15.105  0.00  0.00    +0.000 A 
ATOM     23  C   UNL     1       5.129   4.318  15.838  0.00  0.00    +0.000 A 
ATOM     24  C   UNL     1       4.324   4.661  16.929  0.00  0.00    +0.000 A 
ATOM     25  C   UNL     1       4.144   6.000  17.338  0.00  0.00    +0.000 A 
ATOM     26  C   UNL     1       4.791   6.986  16.580  0.00  0.00    +0.000 A 
ATOM     27  C   UNL     1       5.593   6.640  15.459  0.00  0.00    +0.000 A 
BRANCH  22  29
ATOM     28  C   UNL     1       6.122   3.760  13.315  0.00  0.00    +0.000 C 
ATOM     29  O   UNL     1       6.606   4.817  14.126  0.00  0.00    +0.000 OA
ENDBRANCH  22  29
ENDBRANCH   1  25
TORSDOF 4
ENDMDL
MODEL 6
REMARK VINA RESULT:      -7.5      1.296      1.612
REMARK  Name = 
REMARK  6 active torsions:
REMARK  status: ('A' for Active; 'I' for Inactive)
REMARK    1  A    between atoms: C_1  and  O_2
REMARK    2  A    between atoms: O_2  and  C_3
REMARK    3  A    between atoms: C_6  and  C_7
REMARK    4  A    between atoms: C_7  and  C_8
REMARK    5  A    between atoms: C_7  and  C_17
REMARK    6  A    between atoms: C_18  and  C_19
REMARK                            x       y       z     vdW  Elec       q    Type
REMARK                         _______ _______ _______ _____ _____    ______ ____
ROOT
ATOM      1  C   UNL     1       3.972   6.202  18.869  0.00  0.00    +0.000 C 
ENDROOT
BRANCH   1   2
ATOM      2  C   UNL     1       3.224   4.873  19.029  0.00  0.00    +0.000 A 
ATOM      3  C   UNL     1       3.075   3.916  18.011  0.00  0.00    +0.000 A 
ATOM      4  C   UNL     1       3.946   2.684  17.891  0.00  0.00    +0.000 C 
ATOM      5  N   UNL     1       1.701   3.786  18.026  0.00  0.00    +0.000 N 
ATOM      6  C   UNL     1       1.474   3.444  19.352  0.00  0.00    +0.000 A 
ATOM      7  C   UNL     1       0.542   2.558  19.889  0.00  0.00    +0.000 A 
ATOM      8  C   UNL     1       0.787   2.146  21.187  0.00  0.00    +0.000 A 
ATOM      9  C   UNL     1       1.829   2.719  21.924  0.00  0.00    +0.000 A 
ATOM     10  C   UNL     1       2.646   3.759  21.415  0.00  0.00    +0.000 A 
ATOM     11  C   UNL     1       2.507   4.105  20.057  0.00  0.00    +0.000 A 
ATOM     12  H   UNL     1       1.057   4.396  17.543  0.00  0.00    +0.000 HD
ENDBRANCH   1   2
BRANCH   1  13
ATOM     13  C   UNL     1       3.014   7.420  18.812  0.00  0.00    +0.000 A 
ATOM     14  C   UNL     1       2.609   8.270  17.796  0.00  0.00    +0.000 A 
ATOM     15  C   UNL     1       1.501   9.009  18.248  0.00  0.00    +0.000 A 
ATOM     16  C   UNL     1       0.558   9.870  17.662  0.00  0.00    +0.000 A 
ATOM     17  C   UNL     1      -0.405  10.477  18.468  0.00  0.00    +0.000 A 
ATOM     18  C   UNL     1      -0.411  10.245  19.843  0.00  0.00    +0.000 A 
ATOM     19  C   UNL     1       0.500   9.363  20.449  0.00  0.00    +0.000 A 
ATOM     20  C   UNL     1       1.414   8.733  19.619  0.00  0.00    +0.000 A 
ATOM     21  O   UNL     1       2.323   7.761  19.956  0.00  0.00    +0.000 OA
ENDBRANCH   1  13
BRANCH   1  25
ATOM     22  C   UNL     1       6.786   5.801  15.574  0.00  0.00    +0.000 A 
ATOM     23  C   UNL     1       5.416   5.794  15.374  0.00  0.00    +0.000 A 
ATOM     24  C   UNL     1       4.547   6.024  16.445  0.00  0.00    +0.000 A 
ATOM     25  C   UNL     1       5.016   6.248  17.758  0.00  0.00    +0.000 A 
ATOM     26  C   UNL     1       6.406   6.257  17.940  0.00  0.00    +0.000 A 
ATOM     27  C   UNL     1       7.290   6.043  16.848  0.00  0.00    +0.000 A 
BRANCH  22  29
ATOM     28  C   UNL     1       6.958   4.483  13.587  0.00  0.00    +0.000 C 
ATOM     29  O   UNL     1       7.514   5.457  14.454  0.00  0.00    +0.000 OA
ENDBRANCH  22  29
ENDBRANCH   1  25
TORSDOF 4
ENDMDL
MODEL 7
REMARK VINA RESULT:      -7.5      4.679      9.710
REMARK  Name = 
REMARK  6 active torsions:
REMARK  status: ('A' for Active; 'I' for Inactive)
REMARK    1  A    between atoms: C_1  and  O_2
REMARK    2  A    between atoms: O_2  and  C_3
REMARK    3  A    between atoms: C_6  and  C_7
REMARK    4  A    between atoms: C_7  and  C_8
REMARK    5  A    between atoms: C_7  and  C_17
REMARK    6  A    between atoms: C_18  and  C_19
REMARK                            x       y       z     vdW  Elec       q    Type
REMARK                         _______ _______ _______ _____ _____    ______ ____
ROOT
ATOM      1  C   UNL     1      -0.816  11.160  19.726  0.00  0.00    +0.000 C 
ENDROOT
BRANCH   1   2
ATOM      2  C   UNL     1      -0.240  12.579  19.785  0.00  0.00    +0.000 A 
ATOM      3  C   UNL     1      -0.709  13.594  20.637  0.00  0.00    +0.000 A 
ATOM      4  C   UNL     1      -0.047  13.951  21.951  0.00  0.00    +0.000 C 
ATOM      5  N   UNL     1      -0.949  14.579  19.700  0.00  0.00    +0.000 N 
ATOM      6  C   UNL     1       0.294  14.688  19.093  0.00  0.00    +0.000 A 
ATOM      7  C   UNL     1       0.949  15.823  18.619  0.00  0.00    +0.000 A 
ATOM      8  C   UNL     1       2.309  15.682  18.403  0.00  0.00    +0.000 A 
ATOM      9  C   UNL     1       2.917  14.428  18.525  0.00  0.00    +0.000 A 
ATOM     10  C   UNL     1       2.188  13.250  18.824  0.00  0.00    +0.000 A 
ATOM     11  C   UNL     1       0.832  13.382  19.178  0.00  0.00    +0.000 A 
ATOM     12  H   UNL     1      -1.791  14.658  19.147  0.00  0.00    +0.000 HD
ENDBRANCH   1   2
BRANCH   1  13
ATOM     13  C   UNL     1       0.289  10.072  19.680  0.00  0.00    +0.000 A 
ATOM     14  C   UNL     1       0.708   9.098  20.572  0.00  0.00    +0.000 A 
ATOM     15  C   UNL     1       1.550   8.202  19.889  0.00  0.00    +0.000 A 
ATOM     16  C   UNL     1       2.131   6.954  20.169  0.00  0.00    +0.000 A 
ATOM     17  C   UNL     1       2.980   6.370  19.229  0.00  0.00    +0.000 A 
ATOM     18  C   UNL     1       3.262   7.034  18.037  0.00  0.00    +0.000 A 
ATOM     19  C   UNL     1       2.670   8.267  17.717  0.00  0.00    +0.000 A 
ATOM     20  C   UNL     1       1.790   8.803  18.645  0.00  0.00    +0.000 A 
ATOM     21  O   UNL     1       1.015   9.928  18.516  0.00  0.00    +0.000 OA
ENDBRANCH   1  13
BRANCH   1  25
ATOM     22  C   UNL     1      -3.507  10.689  16.339  0.00  0.00    +0.000 A 
ATOM     23  C   UNL     1      -2.331   9.967  16.447  0.00  0.00    +0.000 A 
ATOM     24  C   UNL     1      -1.543  10.074  17.597  0.00  0.00    +0.000 A 
ATOM     25  C   UNL     1      -1.892  10.922  18.670  0.00  0.00    +0.000 A 
ATOM     26  C   UNL     1      -3.088  11.642  18.545  0.00  0.00    +0.000 A 
ATOM     27  C   UNL     1      -3.900  11.518  17.385  0.00  0.00    +0.000 A 
BRANCH  22  29
ATOM     28  C   UNL     1      -3.358  10.036  14.043  0.00  0.00    +0.000 C 
ATOM     29  O   UNL     1      -4.125  10.566  15.111  0.00  0.00    +0.000 OA
ENDBRANCH  22  29
ENDBRANCH   1  25
TORSDOF 4
ENDMDL
MODEL 8
REMARK VINA RESULT:      -7.4      5.600     10.985
REMARK  Name = 
REMARK  6 active torsions:
REMARK  status: ('A' for Active; 'I' for Inactive)
REMARK    1  A    between atoms: C_1  and  O_2
REMARK    2  A    between atoms: O_2  and  C_3
REMARK    3  A    between atoms: C_6  and  C_7
REMARK    4  A    between atoms: C_7  and  C_8
REMARK    5  A    between atoms: C_7  and  C_17
REMARK    6  A    between atoms: C_18  and  C_19
REMARK                            x       y       z     vdW  Elec       q    Type
REMARK                         _______ _______ _______ _____ _____    ______ ____
ROOT
ATOM      1  C   UNL     1      -1.648  12.398  19.638  0.00  0.00    +0.000 C 
ENDROOT
BRANCH   1   2
ATOM      2  C   UNL     1      -2.917  11.922  18.921  0.00  0.00    +0.000 A 
ATOM      3  C   UNL     1      -2.926  11.094  17.785  0.00  0.00    +0.000 A 
ATOM      4  C   UNL     1      -3.160   9.600  17.844  0.00  0.00    +0.000 C 
ATOM      5  N   UNL     1      -3.694  11.877  16.945  0.00  0.00    +0.000 N 
ATOM      6  C   UNL     1      -4.844  12.044  17.704  0.00  0.00    +0.000 A 
ATOM      7  C   UNL     1      -6.174  12.091  17.292  0.00  0.00    +0.000 A 
ATOM      8  C   UNL     1      -7.116  11.900  18.289  0.00  0.00    +0.000 A 
ATOM      9  C   UNL     1      -6.719  11.815  19.628  0.00  0.00    +0.000 A 
ATOM     10  C   UNL     1      -5.370  11.960  20.037  0.00  0.00    +0.000 A 
ATOM     11  C   UNL     1      -4.379  12.023  19.040  0.00  0.00    +0.000 A 
ATOM     12  H   UNL     1      -3.343  12.639  16.384  0.00  0.00    +0.000 HD
ENDBRANCH   1   2
BRANCH   1  13
ATOM     13  C   UNL     1      -0.541  11.312  19.670  0.00  0.00    +0.000 A 
ATOM     14  C   UNL     1      -0.080  10.447  20.650  0.00  0.00    +0.000 A 
ATOM     15  C   UNL     1       0.737   9.478  20.038  0.00  0.00    +0.000 A 
ATOM     16  C   UNL     1       1.335   8.271  20.436  0.00  0.00    +0.000 A 
ATOM     17  C   UNL     1       2.145   7.582  19.534  0.00  0.00    +0.000 A 
ATOM     18  C   UNL     1       2.374   8.104  18.261  0.00  0.00    +0.000 A 
ATOM     19  C   UNL     1       1.762   9.293  17.828  0.00  0.00    +0.000 A 
ATOM     20  C   UNL     1       0.920   9.931  18.725  0.00  0.00    +0.000 A 
ATOM     21  O   UNL     1       0.135  11.035  18.501  0.00  0.00    +0.000 OA
ENDBRANCH   1  13
BRANCH   1  25
ATOM     22  C   UNL     1      -1.683  14.175  23.610  0.00  0.00    +0.000 A 
ATOM     23  C   UNL     1      -1.066  14.793  22.535  0.00  0.00    +0.000 A 
ATOM     24  C   UNL     1      -1.161  14.238  21.255  0.00  0.00    +0.000 A 
ATOM     25  C   UNL     1      -1.858  13.036  21.008  0.00  0.00    +0.000 A 
ATOM     26  C   UNL     1      -2.482  12.428  22.107  0.00  0.00    +0.000 A 
ATOM     27  C   UNL     1      -2.402  13.001  23.404  0.00  0.00    +0.000 A 
BRANCH  22  29
ATOM     28  C   UNL     1      -2.410  15.634  25.359  0.00  0.00    +0.000 C 
ATOM     29  O   UNL     1      -1.418  14.774  24.824  0.00  0.00    +0.000 OA
ENDBRANCH  22  29
ENDBRANCH   1  25
TORSDOF 4
ENDMDL
MODEL 9
REMARK VINA RESULT:      -7.2      8.220     10.233
REMARK  Name = 
REMARK  6 active torsions:
REMARK  status: ('A' for Active; 'I' for Inactive)
REMARK    1  A    between atoms: C_1  and  O_2
REMARK    2  A    between atoms: O_2  and  C_3
REMARK    3  A    between atoms: C_6  and  C_7
REMARK    4  A    between atoms: C_7  and  C_8
REMARK    5  A    between atoms: C_7  and  C_17
REMARK    6  A    between atoms: C_18  and  C_19
REMARK                            x       y       z     vdW  Elec       q    Type
REMARK                         _______ _______ _______ _____ _____    ______ ____
ROOT
ATOM      1  C   UNL     1      -1.031  11.921  19.876  0.00  0.00    +0.000 C 
ENDROOT
BRANCH   1   2
ATOM      2  C   UNL     1      -1.654  12.348  21.210  0.00  0.00    +0.000 A 
ATOM      3  C   UNL     1      -0.920  12.668  22.366  0.00  0.00    +0.000 A 
ATOM      4  C   UNL     1      -0.603  14.087  22.784  0.00  0.00    +0.000 C 
ATOM      5  N   UNL     1      -1.526  11.808  23.260  0.00  0.00    +0.000 N 
ATOM      6  C   UNL     1      -2.856  12.186  23.144  0.00  0.00    +0.000 A 
ATOM      7  C   UNL     1      -3.840  12.268  24.127  0.00  0.00    +0.000 A 
ATOM      8  C   UNL     1      -4.957  13.015  23.794  0.00  0.00    +0.000 A 
ATOM      9  C   UNL     1      -5.112  13.513  22.496  0.00  0.00    +0.000 A 
ATOM     10  C   UNL     1      -4.182  13.252  21.460  0.00  0.00    +0.000 A 
ATOM     11  C   UNL     1      -2.976  12.610  21.800  0.00  0.00    +0.000 A 
ATOM     12  H   UNL     1      -1.285  10.834  23.380  0.00  0.00    +0.000 HD
ENDBRANCH   1   2
BRANCH   1  13
ATOM     13  C   UNL     1      -0.110  13.015  19.274  0.00  0.00    +0.000 A 
ATOM     14  C   UNL     1      -0.266  14.372  19.040  0.00  0.00    +0.000 A 
ATOM     15  C   UNL     1       0.996  14.922  18.752  0.00  0.00    +0.000 A 
ATOM     16  C   UNL     1       1.521  16.217  18.608  0.00  0.00    +0.000 A 
ATOM     17  C   UNL     1       2.862  16.375  18.261  0.00  0.00    +0.000 A 
ATOM     18  C   UNL     1       3.662  15.255  18.038  0.00  0.00    +0.000 A 
ATOM     19  C   UNL     1       3.171  13.949  18.207  0.00  0.00    +0.000 A 
ATOM     20  C   UNL     1       1.848  13.820  18.603  0.00  0.00    +0.000 A 
ATOM     21  O   UNL     1       1.179  12.667  18.932  0.00  0.00    +0.000 OA
ENDBRANCH   1  13
BRANCH   1  25
ATOM     22  C   UNL     1      -3.425  10.511  16.528  0.00  0.00    +0.000 A 
ATOM     23  C   UNL     1      -2.171   9.993  16.803  0.00  0.00    +0.000 A 
ATOM     24  C   UNL     1      -1.475  10.402  17.944  0.00  0.00    +0.000 A 
ATOM     25  C   UNL     1      -1.999  11.360  18.839  0.00  0.00    +0.000 A 
ATOM     26  C   UNL     1      -3.272  11.869  18.548  0.00  0.00    +0.000 A 
ATOM     27  C   UNL     1      -3.988  11.439  17.398  0.00  0.00    +0.000 A 
BRANCH  22  29
ATOM     28  C   UNL     1      -3.062  10.044  14.211  0.00  0.00    +0.000 C 
ATOM     29  O   UNL     1      -3.946  10.098  15.319  0.00  0.00    +0.000 OA
ENDBRANCH  22  29
ENDBRANCH   1  25
TORSDOF 4
ENDMDL
