MODEL 1
REMARK VINA RESULT:      -7.4      0.000      0.000
REMARK  Name = 
REMARK  8 active torsions:
REMARK  status: ('A' for Active; 'I' for Inactive)
REMARK    1  A    between atoms: C_1  and  C_2
REMARK    2  A    between atoms: C_2  and  N_3
REMARK    3  A    between atoms: C_6  and  C_7
REMARK    4  A    between atoms: N_9  and  C_10
REMARK    5  A    between atoms: C_10  and  C_11
REMARK    6  A    between atoms: C_11  and  C_12
REMARK    7  A    between atoms: C_14  and  C_15
REMARK    8  A    between atoms: C_23  and  C_24
REMARK                            x       y       z     vdW  Elec       q    Type
REMARK                         _______ _______ _______ _____ _____    ______ ____
ROOT
ATOM      1  C   UNL     1       7.164   4.902  17.108  0.00  0.00    +0.000 C 
ENDROOT
BRANCH   1   4
ATOM      2  C   UNL     1       4.926   3.888  17.209  0.00  0.00    +0.000 C 
ATOM      3  O   UNL     1       4.822   3.989  15.986  0.00  0.00    +0.000 OA
ATOM      4  N   UNL     1       6.056   4.333  17.860  0.00  0.00    +0.000 N 
ATOM      5  H   UNL     1       6.181   4.156  18.847  0.00  0.00    +0.000 HD
BRANCH   2   9
ATOM      6  N   UNL     1       2.197   3.079  19.455  0.00  0.00    +0.000 N 
ATOM      7  N   UNL     1       2.437   1.826  19.028  0.00  0.00    +0.000 NA
ATOM      8  C   UNL     1       3.451   1.971  18.174  0.00  0.00    +0.000 A 
ATOM      9  C   UNL     1       3.875   3.311  18.034  0.00  0.00    +0.000 A 
ATOM     10  C   UNL     1       3.043   4.011  18.903  0.00  0.00    +0.000 A 
ATOM     11  C   UNL     1       2.967   5.456  19.254  0.00  0.00    +0.000 C 
BRANCH   6  13
ATOM     12  C   UNL     1       1.393   2.658  21.748  0.00  0.00    +0.000 C 
ATOM     13  C   UNL     1       1.121   3.311  20.403  0.00  0.00    +0.000 C 
ENDBRANCH   6  13
ENDBRANCH   2   9
ENDBRANCH   1   4
BRANCH   1  14
ATOM     14  C   UNL     1       6.883   6.332  16.630  0.00  0.00    +0.000 C 
BRANCH  14  15
ATOM     15  C   UNL     1       7.572   7.340  17.469  0.00  0.00    +0.000 A 
ATOM     16  N   UNL     1       7.735   8.619  17.225  0.00  0.00    +0.000 NA
ATOM     17  C   UNL     1       8.490   9.067  18.288  0.00  0.00    +0.000 A 
ATOM     18  N   UNL     1       8.785   8.109  19.182  0.00  0.00    +0.000 NA
ATOM     19  N   UNL     1       8.189   7.032  18.648  0.00  0.00    +0.000 N 
ATOM     20  H   UNL     1       8.255   6.139  19.123  0.00  0.00    +0.000 HD
BRANCH  17  21
ATOM     21  C   UNL     1       8.921  10.454  18.402  0.00  0.00    +0.000 A 
ATOM     22  C   UNL     1       8.259  11.456  17.689  0.00  0.00    +0.000 A 
ATOM     23  C   UNL     1       8.696  12.761  17.827  0.00  0.00    +0.000 A 
ATOM     24  N   UNL     1       9.733  13.127  18.610  0.00  0.00    +0.000 NA
ATOM     25  C   UNL     1      10.360  12.141  19.287  0.00  0.00    +0.000 A 
ATOM     26  C   UNL     1       9.996  10.807  19.219  0.00  0.00    +0.000 A 
ENDBRANCH  17  21
ENDBRANCH  14  15
ENDBRANCH   1  14
TORSDOF 6
ENDMDL
MODEL 2
REMARK VINA RESULT:      -7.4      4.055      7.002
REMARK  Name = 
REMARK  8 active torsions:
REMARK  status: ('A' for Active; 'I' for Inactive)
REMARK    1  A    between atoms: C_1  and  C_2
REMARK    2  A    between atoms: C_2  and  N_3
REMARK    3  A    between atoms: C_6  and  C_7
REMARK    4  A    between atoms: N_9  and  C_10
REMARK    5  A    between atoms: C_10  and  C_11
REMARK    6  A    between atoms: C_11  and  C_12
REMARK    7  A    between atoms: C_14  and  C_15
REMARK    8  A    between atoms: C_23  and  C_24
REMARK                            x       y       z     vdW  Elec       q    Type
REMARK                         _______ _______ _______ _____ _____    ______ ____
ROOT
ATOM      1  C   UNL     1       0.940   3.330  20.365  0.00  0.00    +0.000 C 
ENDROOT
BRANCH   1   4
ATOM      2  C   UNL     1       1.807   5.619  20.598  0.00  0.00    +0.000 C 
ATOM      3  O   UNL     1       2.898   5.173  20.954  0.00  0.00    +0.000 OA
ATOM      4  N   UNL     1       0.762   4.773  20.298  0.00  0.00    +0.000 N 
ATOM      5  H   UNL     1      -0.097   5.137  19.910  0.00  0.00    +0.000 HD
BRANCH   2   9
ATOM      6  N   UNL     1       1.403   9.108  19.695  0.00  0.00    +0.000 N 
ATOM      7  N   UNL     1       0.907   9.201  20.941  0.00  0.00    +0.000 NA
ATOM      8  C   UNL     1       1.001   7.958  21.414  0.00  0.00    +0.000 A 
ATOM      9  C   UNL     1       1.550   7.048  20.483  0.00  0.00    +0.000 A 
ATOM     10  C   UNL     1       1.820   7.839  19.370  0.00  0.00    +0.000 A 
ATOM     11  C   UNL     1       2.421   7.516  18.047  0.00  0.00    +0.000 C 
BRANCH   6  13
ATOM     12  C   UNL     1       0.058  10.870  18.615  0.00  0.00    +0.000 C 
ATOM     13  C   UNL     1       1.442  10.294  18.857  0.00  0.00    +0.000 C 
ENDBRANCH   6  13
ENDBRANCH   2   9
ENDBRANCH   1   4
BRANCH   1  14
ATOM     14  C   UNL     1       0.951   2.671  18.981  0.00  0.00    +0.000 C 
BRANCH  14  15
ATOM     15  C   UNL     1       2.292   2.728  18.353  0.00  0.00    +0.000 A 
ATOM     16  N   UNL     1       2.961   3.791  17.971  0.00  0.00    +0.000 NA
ATOM     17  C   UNL     1       4.106   3.276  17.402  0.00  0.00    +0.000 A 
ATOM     18  N   UNL     1       4.168   1.935  17.433  0.00  0.00    +0.000 NA
ATOM     19  N   UNL     1       3.017   1.614  18.045  0.00  0.00    +0.000 N 
ATOM     20  H   UNL     1       2.791   0.638  18.201  0.00  0.00    +0.000 HD
BRANCH  17  21
ATOM     21  C   UNL     1       5.133   4.130  16.822  0.00  0.00    +0.000 A 
ATOM     22  C   UNL     1       5.818   3.726  15.673  0.00  0.00    +0.000 A 
ATOM     23  C   UNL     1       6.784   4.567  15.151  0.00  0.00    +0.000 A 
ATOM     24  N   UNL     1       7.110   5.761  15.689  0.00  0.00    +0.000 NA
ATOM     25  C   UNL     1       6.438   6.129  16.801  0.00  0.00    +0.000 A 
ATOM     26  C   UNL     1       5.453   5.361  17.397  0.00  0.00    +0.000 A 
ENDBRANCH  17  21
ENDBRANCH  14  15
ENDBRANCH   1  14
TORSDOF 6
ENDMDL
MODEL 3
REMARK VINA RESULT:      -7.3      1.385      1.721
REMARK  Name = 
REMARK  8 active torsions:
REMARK  status: ('A' for Active; 'I' for Inactive)
REMARK    1  A    between atoms: C_1  and  C_2
REMARK    2  A    between atoms: C_2  and  N_3
REMARK    3  A    between atoms: C_6  and  C_7
REMARK    4  A    between atoms: N_9  and  C_10
REMARK    5  A    between atoms: C_10  and  C_11
REMARK    6  A    between atoms: C_11  and  C_12
REMARK    7  A    between atoms: C_14  and  C_15
REMARK    8  A    between atoms: C_23  and  C_24
REMARK                            x       y       z     vdW  Elec       q    Type
REMARK                         _______ _______ _______ _____ _____    ______ ____
ROOT
ATOM      1  C   UNL     1       7.598   6.306  18.031  0.00  0.00    +0.000 C 
ENDROOT
BRANCH   1   4
ATOM      2  C   UNL     1       5.775   4.655  18.040  0.00  0.00    +0.000 C 
ATOM      3  O   UNL     1       6.045   4.346  16.880  0.00  0.00    +0.000 OA
ATOM      4  N   UNL     1       6.487   5.637  18.693  0.00  0.00    +0.000 N 
ATOM      5  H   UNL     1       6.331   5.817  19.675  0.00  0.00    +0.000 HD
BRANCH   2   9
ATOM      6  N   UNL     1       2.692   3.490  19.552  0.00  0.00    +0.000 N 
ATOM      7  N   UNL     1       3.520   2.655  20.202  0.00  0.00    +0.000 NA
ATOM      8  C   UNL     1       4.728   2.980  19.739  0.00  0.00    +0.000 A 
ATOM      9  C   UNL     1       4.695   4.022  18.784  0.00  0.00    +0.000 A 
ATOM     10  C   UNL     1       3.344   4.346  18.698  0.00  0.00    +0.000 A 
ATOM     11  C   UNL     1       2.620   5.369  17.893  0.00  0.00    +0.000 C 
BRANCH   6  13
ATOM     12  C   UNL     1       0.568   2.464  18.832  0.00  0.00    +0.000 C 
ATOM     13  C   UNL     1       1.263   3.406  19.800  0.00  0.00    +0.000 C 
ENDBRANCH   6  13
ENDBRANCH   2   9
ENDBRANCH   1   4
BRANCH   1  14
ATOM     14  C   UNL     1       7.197   7.653  17.419  0.00  0.00    +0.000 C 
BRANCH  14  15
ATOM     15  C   UNL     1       8.024   8.765  17.944  0.00  0.00    +0.000 A 
ATOM     16  N   UNL     1       8.209   9.953  17.416  0.00  0.00    +0.000 NA
ATOM     17  C   UNL     1       9.105  10.559  18.271  0.00  0.00    +0.000 A 
ATOM     18  N   UNL     1       9.466   9.789  19.309  0.00  0.00    +0.000 NA
ATOM     19  N   UNL     1       8.766   8.667  19.085  0.00  0.00    +0.000 N 
ATOM     20  H   UNL     1       8.852   7.888  19.729  0.00  0.00    +0.000 HD
BRANCH  17  21
ATOM     21  C   UNL     1       9.603  11.909  18.039  0.00  0.00    +0.000 A 
ATOM     22  C   UNL     1       8.746  13.005  18.161  0.00  0.00    +0.000 A 
ATOM     23  C   UNL     1       9.258  14.270  17.936  0.00  0.00    +0.000 A 
ATOM     24  N   UNL     1      10.543  14.511  17.600  0.00  0.00    +0.000 NA
ATOM     25  C   UNL     1      11.352  13.436  17.485  0.00  0.00    +0.000 A 
ATOM     26  C   UNL     1      10.937  12.132  17.693  0.00  0.00    +0.000 A 
ENDBRANCH  17  21
ENDBRANCH  14  15
ENDBRANCH   1  14
TORSDOF 6
ENDMDL
MODEL 4
REMARK VINA RESULT:      -7.3      4.775      6.763
REMARK  Name = 
REMARK  8 active torsions:
REMARK  status: ('A' for Active; 'I' for Inactive)
REMARK    1  A    between atoms: C_1  and  C_2
REMARK    2  A    between atoms: C_2  and  N_3
REMARK    3  A    between atoms: C_6  and  C_7
REMARK    4  A    between atoms: N_9  and  C_10
REMARK    5  A    between atoms: C_10  and  C_11
REMARK    6  A    between atoms: C_11  and  C_12
REMARK    7  A    between atoms: C_14  and  C_15
REMARK    8  A    between atoms: C_23  and  C_24
REMARK                            x       y       z     vdW  Elec       q    Type
REMARK                         _______ _______ _______ _____ _____    ______ ____
ROOT
ATOM      1  C   UNL     1       3.348   4.134  18.674  0.00  0.00    +0.000 C 
ENDROOT
BRANCH   1   4
ATOM      2  C   UNL     1       2.459   6.342  19.295  0.00  0.00    +0.000 C 
ATOM      3  O   UNL     1       2.276   5.947  20.447  0.00  0.00    +0.000 OA
ATOM      4  N   UNL     1       2.975   5.500  18.334  0.00  0.00    +0.000 N 
ATOM      5  H   UNL     1       3.218   5.855  17.419  0.00  0.00    +0.000 HD
BRANCH   2   9
ATOM      6  N   UNL     1       1.411   9.786  18.867  0.00  0.00    +0.000 N 
ATOM      7  N   UNL     1       1.932   9.618  17.638  0.00  0.00    +0.000 NA
ATOM      8  C   UNL     1       2.364   8.357  17.647  0.00  0.00    +0.000 A 
ATOM      9  C   UNL     1       2.135   7.697  18.876  0.00  0.00    +0.000 A 
ATOM     10  C   UNL     1       1.491   8.659  19.649  0.00  0.00    +0.000 A 
ATOM     11  C   UNL     1       0.955   8.618  21.038  0.00  0.00    +0.000 C 
BRANCH   6  13
ATOM     12  C   UNL     1      -0.585  11.230  18.753  0.00  0.00    +0.000 C 
ATOM     13  C   UNL     1       0.849  11.077  19.228  0.00  0.00    +0.000 C 
ENDBRANCH   6  13
ENDBRANCH   2   9
ENDBRANCH   1   4
BRANCH   1  14
ATOM     14  C   UNL     1       4.811   4.012  19.112  0.00  0.00    +0.000 C 
BRANCH  14  15
ATOM     15  C   UNL     1       5.745   4.193  17.976  0.00  0.00    +0.000 A 
ATOM     16  N   UNL     1       5.463   4.207  16.693  0.00  0.00    +0.000 NA
ATOM     17  C   UNL     1       6.693   4.344  16.085  0.00  0.00    +0.000 A 
ATOM     18  N   UNL     1       7.717   4.428  16.950  0.00  0.00    +0.000 NA
ATOM     19  N   UNL     1       7.092   4.339  18.135  0.00  0.00    +0.000 N 
ATOM     20  H   UNL     1       7.638   4.369  18.989  0.00  0.00    +0.000 HD
BRANCH  17  21
ATOM     21  C   UNL     1       6.840   4.384  14.637  0.00  0.00    +0.000 A 
ATOM     22  C   UNL     1       6.129   3.489  13.833  0.00  0.00    +0.000 A 
ATOM     23  C   UNL     1       6.293   3.560  12.462  0.00  0.00    +0.000 A 
ATOM     24  N   UNL     1       7.106   4.447  11.848  0.00  0.00    +0.000 NA
ATOM     25  C   UNL     1       7.786   5.299  12.645  0.00  0.00    +0.000 A 
ATOM     26  C   UNL     1       7.687   5.309  14.025  0.00  0.00    +0.000 A 
ENDBRANCH  17  21
ENDBRANCH  14  15
ENDBRANCH   1  14
TORSDOF 6
ENDMDL
MODEL 5
REMARK VINA RESULT:      -7.3      2.362      6.812
REMARK  Name = 
REMARK  8 active torsions:
REMARK  status: ('A' for Active; 'I' for Inactive)
REMARK    1  A    between atoms: C_1  and  C_2
REMARK    2  A    between atoms: C_2  and  N_3
REMARK    3  A    between atoms: C_6  and  C_7
REMARK    4  A    between atoms: N_9  and  C_10
REMARK    5  A    between atoms: C_10  and  C_11
REMARK    6  A    between atoms: C_11  and  C_12
REMARK    7  A    between atoms: C_14  and  C_15
REMARK    8  A    between atoms: C_23  and  C_24
REMARK                            x       y       z     vdW  Elec       q    Type
REMARK                         _______ _______ _______ _____ _____    ______ ____
ROOT
ATOM      1  C   UNL     1       3.794   2.005  17.928  0.00  0.00    +0.000 C 
ENDROOT
BRANCH   1   4
ATOM      2  C   UNL     1       5.178   3.884  17.152  0.00  0.00    +0.000 C 
ATOM      3  O   UNL     1       4.853   3.646  15.989  0.00  0.00    +0.000 OA
ATOM      4  N   UNL     1       4.710   3.106  18.188  0.00  0.00    +0.000 N 
ATOM      5  H   UNL     1       4.896   3.365  19.148  0.00  0.00    +0.000 HD
BRANCH   2   9
ATOM      6  N   UNL     1       7.003   6.978  17.647  0.00  0.00    +0.000 N 
ATOM      7  N   UNL     1       7.778   6.203  18.426  0.00  0.00    +0.000 NA
ATOM      8  C   UNL     1       7.214   4.997  18.335  0.00  0.00    +0.000 A 
ATOM      9  C   UNL     1       6.072   4.978  17.503  0.00  0.00    +0.000 A 
ATOM     10  C   UNL     1       5.972   6.291  17.053  0.00  0.00    +0.000 A 
ATOM     11  C   UNL     1       5.005   6.952  16.132  0.00  0.00    +0.000 C 
BRANCH   6  13
ATOM     12  C   UNL     1       8.561   8.775  18.298  0.00  0.00    +0.000 C 
ATOM     13  C   UNL     1       7.315   8.391  17.520  0.00  0.00    +0.000 C 
ENDBRANCH   6  13
ENDBRANCH   2   9
ENDBRANCH   1   4
BRANCH   1  14
ATOM     14  C   UNL     1       2.599   1.991  18.889  0.00  0.00    +0.000 C 
BRANCH  14  15
ATOM     15  C   UNL     1       2.396   3.308  19.536  0.00  0.00    +0.000 A 
ATOM     16  N   UNL     1       2.146   4.462  18.960  0.00  0.00    +0.000 NA
ATOM     17  C   UNL     1       2.111   5.356  20.009  0.00  0.00    +0.000 A 
ATOM     18  N   UNL     1       2.319   4.789  21.208  0.00  0.00    +0.000 NA
ATOM     19  N   UNL     1       2.488   3.498  20.885  0.00  0.00    +0.000 N 
ATOM     20  H   UNL     1       2.672   2.821  21.616  0.00  0.00    +0.000 HD
BRANCH  17  21
ATOM     21  C   UNL     1       1.876   6.779  19.805  0.00  0.00    +0.000 A 
ATOM     22  C   UNL     1       1.329   7.555  20.828  0.00  0.00    +0.000 A 
ATOM     23  C   UNL     1       1.124   8.903  20.596  0.00  0.00    +0.000 A 
ATOM     24  N   UNL     1       1.420   9.518  19.431  0.00  0.00    +0.000 NA
ATOM     25  C   UNL     1       1.945   8.747  18.454  0.00  0.00    +0.000 A 
ATOM     26  C   UNL     1       2.190   7.391  18.590  0.00  0.00    +0.000 A 
ENDBRANCH  17  21
ENDBRANCH  14  15
ENDBRANCH   1  14
TORSDOF 6
ENDMDL
MODEL 6
REMARK VINA RESULT:      -7.3      2.519      9.987
REMARK  Name = 
REMARK  8 active torsions:
REMARK  status: ('A' for Active; 'I' for Inactive)
REMARK    1  A    between atoms: C_1  and  C_2
REMARK    2  A    between atoms: C_2  and  N_3
REMARK    3  A    between atoms: C_6  and  C_7
REMARK    4  A    between atoms: N_9  and  C_10
REMARK    5  A    between atoms: C_10  and  C_11
REMARK    6  A    between atoms: C_11  and  C_12
REMARK    7  A    between atoms: C_14  and  C_15
REMARK    8  A    between atoms: C_23  and  C_24
REMARK                            x       y       z     vdW  Elec       q    Type
REMARK                         _______ _______ _______ _____ _____    ______ ____
ROOT
ATOM      1  C   UNL     1       8.411   8.677  18.495  0.00  0.00    +0.000 C 
ENDROOT
BRANCH   1   4
ATOM      2  C   UNL     1       9.193  10.946  19.031  0.00  0.00    +0.000 C 
ATOM      3  O   UNL     1       9.398  10.604  20.196  0.00  0.00    +0.000 OA
ATOM      4  N   UNL     1       8.685  10.054  18.113  0.00  0.00    +0.000 N 
ATOM      5  H   UNL     1       8.615  10.309  17.137  0.00  0.00    +0.000 HD
BRANCH   2   9
ATOM      6  N   UNL     1      10.473  14.084  17.742  0.00  0.00    +0.000 N 
ATOM      7  N   UNL     1       9.212  14.497  17.959  0.00  0.00    +0.000 NA
ATOM      8  C   UNL     1       8.605  13.417  18.454  0.00  0.00    +0.000 A 
ATOM      9  C   UNL     1       9.460  12.297  18.559  0.00  0.00    +0.000 A 
ATOM     10  C   UNL     1      10.685  12.775  18.099  0.00  0.00    +0.000 A 
ATOM     11  C   UNL     1      12.015  12.120  17.963  0.00  0.00    +0.000 C 
BRANCH   6  13
ATOM     12  C   UNL     1      10.801  16.345  16.812  0.00  0.00    +0.000 C 
ATOM     13  C   UNL     1      11.436  15.014  17.176  0.00  0.00    +0.000 C 
ENDBRANCH   6  13
ENDBRANCH   2   9
ENDBRANCH   1   4
BRANCH   1  14
ATOM     14  C   UNL     1       7.816   7.852  17.348  0.00  0.00    +0.000 C 
BRANCH  14  15
ATOM     15  C   UNL     1       7.111   6.647  17.844  0.00  0.00    +0.000 A 
ATOM     16  N   UNL     1       5.879   6.270  17.588  0.00  0.00    +0.000 NA
ATOM     17  C   UNL     1       5.719   5.128  18.344  0.00  0.00    +0.000 A 
ATOM     18  N   UNL     1       6.812   4.785  19.043  0.00  0.00    +0.000 NA
ATOM     19  N   UNL     1       7.678   5.753  18.705  0.00  0.00    +0.000 N 
ATOM     20  H   UNL     1       8.611   5.749  19.102  0.00  0.00    +0.000 HD
BRANCH  17  21
ATOM     21  C   UNL     1       4.465   4.386  18.368  0.00  0.00    +0.000 A 
ATOM     22  C   UNL     1       3.866   3.979  17.174  0.00  0.00    +0.000 A 
ATOM     23  C   UNL     1       2.678   3.274  17.239  0.00  0.00    +0.000 A 
ATOM     24  N   UNL     1       2.056   2.956  18.394  0.00  0.00    +0.000 NA
ATOM     25  C   UNL     1       2.651   3.364  19.536  0.00  0.00    +0.000 A 
ATOM     26  C   UNL     1       3.841   4.070  19.576  0.00  0.00    +0.000 A 
ENDBRANCH  17  21
ENDBRANCH  14  15
ENDBRANCH   1  14
TORSDOF 6
ENDMDL
MODEL 7
REMARK VINA RESULT:      -7.3      2.096      9.580
REMARK  Name = 
REMARK  8 active torsions:
REMARK  status: ('A' for Active; 'I' for Inactive)
REMARK    1  A    between atoms: C_1  and  C_2
REMARK    2  A    between atoms: C_2  and  N_3
REMARK    3  A    between atoms: C_6  and  C_7
REMARK    4  A    between atoms: N_9  and  C_10
REMARK    5  A    between atoms: C_10  and  C_11
REMARK    6  A    between atoms: C_11  and  C_12
REMARK    7  A    between atoms: C_14  and  C_15
REMARK    8  A    between atoms: C_23  and  C_24
REMARK                            x       y       z     vdW  Elec       q    Type
REMARK                         _______ _______ _______ _____ _____    ______ ____
ROOT
ATOM      1  C   UNL     1       7.969   7.289  18.060  0.00  0.00    +0.000 C 
ENDROOT
BRANCH   1   4
ATOM      2  C   UNL     1       8.584   9.628  18.505  0.00  0.00    +0.000 C 
ATOM      3  O   UNL     1       7.855   9.999  17.585  0.00  0.00    +0.000 OA
ATOM      4  N   UNL     1       8.718   8.291  18.806  0.00  0.00    +0.000 N 
ATOM      5  H   UNL     1       9.235   7.998  19.623  0.00  0.00    +0.000 HD
BRANCH   2   9
ATOM      6  N   UNL     1      10.792  12.115  19.952  0.00  0.00    +0.000 N 
ATOM      7  N   UNL     1      10.146  11.788  21.085  0.00  0.00    +0.000 NA
ATOM      8  C   UNL     1       9.281  10.851  20.698  0.00  0.00    +0.000 A 
ATOM      9  C   UNL     1       9.351  10.564  19.316  0.00  0.00    +0.000 A 
ATOM     10  C   UNL     1      10.367  11.399  18.859  0.00  0.00    +0.000 A 
ATOM     11  C   UNL     1      10.962  11.586  17.507  0.00  0.00    +0.000 C 
BRANCH   6  13
ATOM     12  C   UNL     1      11.232  14.541  19.930  0.00  0.00    +0.000 C 
ATOM     13  C   UNL     1      11.819  13.142  19.991  0.00  0.00    +0.000 C 
ENDBRANCH   6  13
ENDBRANCH   2   9
ENDBRANCH   1   4
BRANCH   1  14
ATOM     14  C   UNL     1       7.588   6.076  18.916  0.00  0.00    +0.000 C 
BRANCH  14  15
ATOM     15  C   UNL     1       6.257   5.539  18.551  0.00  0.00    +0.000 A 
ATOM     16  N   UNL     1       5.295   5.148  19.355  0.00  0.00    +0.000 NA
ATOM     17  C   UNL     1       4.317   4.686  18.500  0.00  0.00    +0.000 A 
ATOM     18  N   UNL     1       4.640   4.791  17.201  0.00  0.00    +0.000 NA
ATOM     19  N   UNL     1       5.864   5.339  17.259  0.00  0.00    +0.000 N 
ATOM     20  H   UNL     1       6.366   5.531  16.399  0.00  0.00    +0.000 HD
BRANCH  17  21
ATOM     21  C   UNL     1       3.061   4.132  18.989  0.00  0.00    +0.000 A 
ATOM     22  C   UNL     1       2.414   4.715  20.081  0.00  0.00    +0.000 A 
ATOM     23  C   UNL     1       1.222   4.162  20.513  0.00  0.00    +0.000 A 
ATOM     24  N   UNL     1       0.644   3.083  19.942  0.00  0.00    +0.000 NA
ATOM     25  C   UNL     1       1.290   2.534  18.891  0.00  0.00    +0.000 A 
ATOM     26  C   UNL     1       2.484   3.016  18.382  0.00  0.00    +0.000 A 
ENDBRANCH  17  21
ENDBRANCH  14  15
ENDBRANCH   1  14
TORSDOF 6
ENDMDL
MODEL 8
REMARK VINA RESULT:      -7.2      9.883     11.720
REMARK  Name = 
REMARK  8 active torsions:
REMARK  status: ('A' for Active; 'I' for Inactive)
REMARK    1  A    between atoms: C_1  and  C_2
REMARK    2  A    between atoms: C_2  and  N_3
REMARK    3  A    between atoms: C_6  and  C_7
REMARK    4  A    between atoms: N_9  and  C_10
REMARK    5  A    between atoms: C_10  and  C_11
REMARK    6  A    between atoms: C_11  and  C_12
REMARK    7  A    between atoms: C_14  and  C_15
REMARK    8  A    between atoms: C_23  and  C_24
REMARK                            x       y       z     vdW  Elec       q    Type
REMARK                         _______ _______ _______ _____ _____    ______ ____
ROOT
ATOM      1  C   UNL     1      -4.368  11.313  16.697  0.00  0.00    +0.000 C 
ENDROOT
BRANCH   1   4
ATOM      2  C   UNL     1      -5.524  12.343  18.608  0.00  0.00    +0.000 C 
ATOM      3  O   UNL     1      -6.164  13.060  17.839  0.00  0.00    +0.000 OA
ATOM      4  N   UNL     1      -4.591  11.450  18.129  0.00  0.00    +0.000 N 
ATOM      5  H   UNL     1      -4.142  10.793  18.754  0.00  0.00    +0.000 HD
BRANCH   2   9
ATOM      6  N   UNL     1      -5.408  12.849  22.197  0.00  0.00    +0.000 N 
ATOM      7  N   UNL     1      -6.541  12.125  22.169  0.00  0.00    +0.000 NA
ATOM      8  C   UNL     1      -6.711  11.853  20.874  0.00  0.00    +0.000 A 
ATOM      9  C   UNL     1      -5.700  12.399  20.052  0.00  0.00    +0.000 A 
ATOM     10  C   UNL     1      -4.850  13.032  20.955  0.00  0.00    +0.000 A 
ATOM     11  C   UNL     1      -3.581  13.787  20.758  0.00  0.00    +0.000 C 
BRANCH   6  13
ATOM     12  C   UNL     1      -3.998  12.348  24.157  0.00  0.00    +0.000 C 
ATOM     13  C   UNL     1      -4.915  13.345  23.470  0.00  0.00    +0.000 C 
ENDBRANCH   6  13
ENDBRANCH   2   9
ENDBRANCH   1   4
BRANCH   1  14
ATOM     14  C   UNL     1      -2.886  11.144  16.343  0.00  0.00    +0.000 C 
BRANCH  14  15
ATOM     15  C   UNL     1      -2.009  11.376  17.514  0.00  0.00    +0.000 A 
ATOM     16  N   UNL     1      -1.851  10.611  18.570  0.00  0.00    +0.000 NA
ATOM     17  C   UNL     1      -0.979  11.322  19.367  0.00  0.00    +0.000 A 
ATOM     18  N   UNL     1      -0.588  12.489  18.832  0.00  0.00    +0.000 NA
ATOM     19  N   UNL     1      -1.244  12.497  17.662  0.00  0.00    +0.000 N 
ATOM     20  H   UNL     1      -1.136  13.287  17.035  0.00  0.00    +0.000 HD
BRANCH  17  21
ATOM     21  C   UNL     1      -0.546  10.831  20.669  0.00  0.00    +0.000 A 
ATOM     22  C   UNL     1      -1.183  11.268  21.832  0.00  0.00    +0.000 A 
ATOM     23  C   UNL     1      -0.744  10.776  23.049  0.00  0.00    +0.000 A 
ATOM     24  N   UNL     1       0.271   9.895  23.180  0.00  0.00    +0.000 NA
ATOM     25  C   UNL     1       0.874   9.490  22.042  0.00  0.00    +0.000 A 
ATOM     26  C   UNL     1       0.506   9.921  20.779  0.00  0.00    +0.000 A 
ENDBRANCH  17  21
ENDBRANCH  14  15
ENDBRANCH   1  14
TORSDOF 6
ENDMDL
MODEL 9
REMARK VINA RESULT:      -7.2      2.493     10.027
REMARK  Name = 
REMARK  8 active torsions:
REMARK  status: ('A' for Active; 'I' for Inactive)
REMARK    1  A    between atoms: C_1  and  C_2
REMARK    2  A    between atoms: C_2  and  N_3
REMARK    3  A    between atoms: C_6  and  C_7
REMARK    4  A    between atoms: N_9  and  C_10
REMARK    5  A    between atoms: C_10  and  C_11
REMARK    6  A    between atoms: C_11  and  C_12
REMARK    7  A    between atoms: C_14  and  C_15
REMARK    8  A    between atoms: C_23  and  C_24
REMARK                            x       y       z     vdW  Elec       q    Type
REMARK                         _______ _______ _______ _____ _____    ______ ____
ROOT
ATOM      1  C   UNL     1       8.310   8.635  18.434  0.00  0.00    +0.000 C 
ENDROOT
BRANCH   1   4
ATOM      2  C   UNL     1       9.546  10.696  18.954  0.00  0.00    +0.000 C 
ATOM      3  O   UNL     1       9.356  10.511  20.156  0.00  0.00    +0.000 OA
ATOM      4  N   UNL     1       9.046   9.819  18.017  0.00  0.00    +0.000 N 
ATOM      5  H   UNL     1       9.290   9.919  17.041  0.00  0.00    +0.000 HD
BRANCH   2   9
ATOM      6  N   UNL     1      10.806  13.852  17.687  0.00  0.00    +0.000 N 
ATOM      7  N   UNL     1      11.989  13.217  17.756  0.00  0.00    +0.000 NA
ATOM      8  C   UNL     1      11.673  12.005  18.214  0.00  0.00    +0.000 A 
ATOM      9  C   UNL     1      10.290  11.842  18.451  0.00  0.00    +0.000 A 
ATOM     10  C   UNL     1       9.746  13.068  18.077  0.00  0.00    +0.000 A 
ATOM     11  C   UNL     1       8.343  13.566  18.059  0.00  0.00    +0.000 C 
BRANCH   6  13
ATOM     12  C   UNL     1      11.679  16.129  18.053  0.00  0.00    +0.000 C 
ATOM     13  C   UNL     1      10.767  15.232  17.235  0.00  0.00    +0.000 C 
ENDBRANCH   6  13
ENDBRANCH   2   9
ENDBRANCH   1   4
BRANCH   1  14
ATOM     14  C   UNL     1       7.421   8.069  17.321  0.00  0.00    +0.000 C 
BRANCH  14  15
ATOM     15  C   UNL     1       6.968   6.691  17.624  0.00  0.00    +0.000 A 
ATOM     16  N   UNL     1       5.738   6.232  17.652  0.00  0.00    +0.000 NA
ATOM     17  C   UNL     1       5.883   4.918  18.044  0.00  0.00    +0.000 A 
ATOM     18  N   UNL     1       7.159   4.552  18.244  0.00  0.00    +0.000 NA
ATOM     19  N   UNL     1       7.824   5.684  17.965  0.00  0.00    +0.000 N 
ATOM     20  H   UNL     1       8.835   5.700  18.041  0.00  0.00    +0.000 HD
BRANCH  17  21
ATOM     21  C   UNL     1       4.740   4.034  18.224  0.00  0.00    +0.000 A 
ATOM     22  C   UNL     1       4.580   3.324  19.416  0.00  0.00    +0.000 A 
ATOM     23  C   UNL     1       3.479   2.497  19.549  0.00  0.00    +0.000 A 
ATOM     24  N   UNL     1       2.544   2.331  18.589  0.00  0.00    +0.000 NA
ATOM     25  C   UNL     1       2.721   3.025  17.444  0.00  0.00    +0.000 A 
ATOM     26  C   UNL     1       3.786   3.879  17.216  0.00  0.00    +0.000 A 
ENDBRANCH  17  21
ENDBRANCH  14  15
ENDBRANCH   1  14
TORSDOF 6
ENDMDL
