MODEL 1
REMARK VINA RESULT:      -8.2      0.000      0.000
REMARK  Name = 
REMARK  7 active torsions:
REMARK  status: ('A' for Active; 'I' for Inactive)
REMARK    1  A    between atoms: C_1  and  C_2
REMARK    2  A    between atoms: C_3  and  C_4
REMARK    3  A    between atoms: C_4  and  N_5
REMARK    4  A    between atoms: C_16  and  S_17
REMARK    5  A    between atoms: S_17  and  C_18
REMARK    6  A    between atoms: C_18  and  C_19
REMARK    7  A    between atoms: C_19  and  C_21
REMARK                            x       y       z     vdW  Elec       q    Type
REMARK                         _______ _______ _______ _____ _____    ______ ____
ROOT
ATOM      1  C   UNL     1       5.883   4.105  19.178  0.00  0.00    +0.000 C 
ATOM      2  C   UNL     1       6.284   5.470  18.722  0.00  0.00    +0.000 A 
ATOM      3  C   UNL     1       5.604   6.343  17.936  0.00  0.00    +0.000 A 
ATOM      4  N   UNL     1       6.176   7.589  17.604  0.00  0.00    +0.000 NA
ATOM      5  C   UNL     1       7.354   7.890  18.078  0.00  0.00    +0.000 A 
ATOM      6  N   UNL     1       8.087   7.078  18.864  0.00  0.00    +0.000 N 
ATOM      7  C   UNL     1       7.670   5.828  19.161  0.00  0.00    +0.000 A 
ATOM      8  O   UNL     1       8.410   5.022  19.716  0.00  0.00    +0.000 OA
ATOM      9  H   UNL     1       9.046   7.323  19.099  0.00  0.00    +0.000 HD
ENDROOT
BRANCH   3  10
ATOM     10  C   UNL     1       4.304   5.841  17.131  0.00  0.00    +0.000 C 
BRANCH  10  11
ATOM     11  N   UNL     1       2.937   5.814  17.746  0.00  0.00    +0.000 N 
ATOM     12  C   UNL     1       2.313   7.098  18.031  0.00  0.00    +0.000 C 
ATOM     13  C   UNL     1       2.517   7.442  19.502  0.00  0.00    +0.000 C 
ATOM     14  C   UNL     1       1.868   6.371  20.352  0.00  0.00    +0.000 C 
ATOM     15  C   UNL     1       2.412   4.990  19.983  0.00  0.00    +0.000 A 
ATOM     16  C   UNL     1       2.061   3.978  20.897  0.00  0.00    +0.000 A 
ATOM     17  C   UNL     1       1.254   2.952  20.445  0.00  0.00    +0.000 A 
ATOM     18  C   UNL     1       0.923   2.923  19.093  0.00  0.00    +0.000 A 
ATOM     19  C   UNL     1       1.571   3.788  18.168  0.00  0.00    +0.000 A 
ATOM     20  C   UNL     1       2.466   4.787  18.592  0.00  0.00    +0.000 A 
ENDBRANCH  10  11
ENDBRANCH   3  10
BRANCH   5  21
ATOM     21  S   UNL     1       8.240   9.330  17.618  0.00  0.00    +0.000 S 
BRANCH  21  22
ATOM     22  C   UNL     1       9.421   9.696  18.964  0.00  0.00    +0.000 C 
BRANCH  22  23
ATOM     23  C   UNL     1       9.333  11.074  19.619  0.00  0.00    +0.000 C 
ATOM     24  O   UNL     1       8.867  11.240  20.747  0.00  0.00    +0.000 OA
BRANCH  23  25
ATOM     25  C   UNL     1       9.810  12.291  18.832  0.00  0.00    +0.000 A 
ATOM     26  C   UNL     1      10.636  12.200  17.699  0.00  0.00    +0.000 A 
ATOM     27  C   UNL     1      11.032  13.346  17.005  0.00  0.00    +0.000 A 
ATOM     28  C   UNL     1      10.607  14.622  17.428  0.00  0.00    +0.000 A 
ATOM     29 CL   UNL     1      11.112  16.019  16.568  0.00  0.00    +0.000 Cl
ATOM     30  C   UNL     1       9.794  14.733  18.559  0.00  0.00    +0.000 A 
ATOM     31  C   UNL     1       9.406  13.577  19.250  0.00  0.00    +0.000 A 
ENDBRANCH  23  25
ENDBRANCH  22  23
ENDBRANCH  21  22
ENDBRANCH   5  21
TORSDOF 6
ENDMDL
MODEL 2
REMARK VINA RESULT:      -8.1      1.621      1.999
REMARK  Name = 
REMARK  7 active torsions:
REMARK  status: ('A' for Active; 'I' for Inactive)
REMARK    1  A    between atoms: C_1  and  C_2
REMARK    2  A    between atoms: C_3  and  C_4
REMARK    3  A    between atoms: C_4  and  N_5
REMARK    4  A    between atoms: C_16  and  S_17
REMARK    5  A    between atoms: S_17  and  C_18
REMARK    6  A    between atoms: C_18  and  C_19
REMARK    7  A    between atoms: C_19  and  C_21
REMARK                            x       y       z     vdW  Elec       q    Type
REMARK                         _______ _______ _______ _____ _____    ______ ____
ROOT
ATOM      1  C   UNL     1       5.880   4.080  19.236  0.00  0.00    +0.000 C 
ATOM      2  C   UNL     1       6.288   5.418  18.711  0.00  0.00    +0.000 A 
ATOM      3  C   UNL     1       5.615   6.252  17.878  0.00  0.00    +0.000 A 
ATOM      4  N   UNL     1       6.192   7.477  17.484  0.00  0.00    +0.000 NA
ATOM      5  C   UNL     1       7.370   7.798  17.947  0.00  0.00    +0.000 A 
ATOM      6  N   UNL     1       8.097   7.026  18.777  0.00  0.00    +0.000 N 
ATOM      7  C   UNL     1       7.673   5.794  19.137  0.00  0.00    +0.000 A 
ATOM      8  O   UNL     1       8.408   5.015  19.736  0.00  0.00    +0.000 OA
ATOM      9  H   UNL     1       9.055   7.279  19.003  0.00  0.00    +0.000 HD
ENDROOT
BRANCH   3  10
ATOM     10  C   UNL     1       4.315   5.714  17.094  0.00  0.00    +0.000 C 
BRANCH  10  11
ATOM     11  N   UNL     1       2.947   5.716  17.708  0.00  0.00    +0.000 N 
ATOM     12  C   UNL     1       2.370   7.012  18.035  0.00  0.00    +0.000 C 
ATOM     13  C   UNL     1       2.583   7.298  19.516  0.00  0.00    +0.000 C 
ATOM     14  C   UNL     1       1.894   6.224  20.330  0.00  0.00    +0.000 C 
ATOM     15  C   UNL     1       2.389   4.837  19.916  0.00  0.00    +0.000 A 
ATOM     16  C   UNL     1       2.000   3.809  20.795  0.00  0.00    +0.000 A 
ATOM     17  C   UNL     1       1.157   2.829  20.310  0.00  0.00    +0.000 A 
ATOM     18  C   UNL     1       0.828   2.857  18.957  0.00  0.00    +0.000 A 
ATOM     19  C   UNL     1       1.509   3.727  18.061  0.00  0.00    +0.000 A 
ATOM     20  C   UNL     1       2.438   4.678  18.519  0.00  0.00    +0.000 A 
ENDBRANCH  10  11
ENDBRANCH   3  10
BRANCH   5  21
ATOM     21  S   UNL     1       8.263   9.209  17.417  0.00  0.00    +0.000 S 
BRANCH  21  22
ATOM     22  C   UNL     1       8.925  10.027  18.911  0.00  0.00    +0.000 C 
BRANCH  22  23
ATOM     23  C   UNL     1       9.879  11.202  18.703  0.00  0.00    +0.000 C 
ATOM     24  O   UNL     1      10.623  11.283  17.725  0.00  0.00    +0.000 OA
BRANCH  23  25
ATOM     25  C   UNL     1       9.934  12.298  19.764  0.00  0.00    +0.000 A 
ATOM     26  C   UNL     1       9.271  12.209  20.998  0.00  0.00    +0.000 A 
ATOM     27  C   UNL     1       9.367  13.235  21.942  0.00  0.00    +0.000 A 
ATOM     28  C   UNL     1      10.138  14.384  21.673  0.00  0.00    +0.000 A 
ATOM     29 CL   UNL     1      10.236  15.638  22.841  0.00  0.00    +0.000 Cl
ATOM     30  C   UNL     1      10.797  14.495  20.446  0.00  0.00    +0.000 A 
ATOM     31  C   UNL     1      10.691  13.462  19.506  0.00  0.00    +0.000 A 
ENDBRANCH  23  25
ENDBRANCH  22  23
ENDBRANCH  21  22
ENDBRANCH   5  21
TORSDOF 6
ENDMDL
MODEL 3
REMARK VINA RESULT:      -7.9      5.203      8.141
REMARK  Name = 
REMARK  7 active torsions:
REMARK  status: ('A' for Active; 'I' for Inactive)
REMARK    1  A    between atoms: C_1  and  C_2
REMARK    2  A    between atoms: C_3  and  C_4
REMARK    3  A    between atoms: C_4  and  N_5
REMARK    4  A    between atoms: C_16  and  S_17
REMARK    5  A    between atoms: S_17  and  C_18
REMARK    6  A    between atoms: C_18  and  C_19
REMARK    7  A    between atoms: C_19  and  C_21
REMARK                            x       y       z     vdW  Elec       q    Type
REMARK                         _______ _______ _______ _____ _____    ______ ____
ROOT
ATOM      1  C   UNL     1       2.840   2.353  19.630  0.00  0.00    +0.000 C 
ATOM      2  C   UNL     1       2.568   3.820  19.539  0.00  0.00    +0.000 A 
ATOM      3  C   UNL     1       2.643   4.638  18.458  0.00  0.00    +0.000 A 
ATOM      4  N   UNL     1       2.361   6.013  18.592  0.00  0.00    +0.000 NA
ATOM      5  C   UNL     1       2.014   6.477  19.761  0.00  0.00    +0.000 A 
ATOM      6  N   UNL     1       1.918   5.729  20.877  0.00  0.00    +0.000 N 
ATOM      7  C   UNL     1       2.257   4.421  20.874  0.00  0.00    +0.000 A 
ATOM      8  O   UNL     1       2.350   3.783  21.918  0.00  0.00    +0.000 OA
ATOM      9  H   UNL     1       1.761   6.173  21.778  0.00  0.00    +0.000 HD
ENDROOT
BRANCH   3  10
ATOM     10  C   UNL     1       3.349   4.112  17.110  0.00  0.00    +0.000 C 
BRANCH  10  11
ATOM     11  N   UNL     1       4.480   4.847  16.454  0.00  0.00    +0.000 N 
ATOM     12  C   UNL     1       4.934   4.348  15.164  0.00  0.00    +0.000 C 
ATOM     13  C   UNL     1       6.166   3.474  15.368  0.00  0.00    +0.000 C 
ATOM     14  C   UNL     1       7.262   4.308  15.996  0.00  0.00    +0.000 C 
ATOM     15  C   UNL     1       6.770   4.952  17.293  0.00  0.00    +0.000 A 
ATOM     16  C   UNL     1       7.796   5.522  18.070  0.00  0.00    +0.000 A 
ATOM     17  C   UNL     1       7.776   6.889  18.264  0.00  0.00    +0.000 A 
ATOM     18  C   UNL     1       6.688   7.606  17.771  0.00  0.00    +0.000 A 
ATOM     19  C   UNL     1       5.535   6.932  17.283  0.00  0.00    +0.000 A 
ATOM     20  C   UNL     1       5.495   5.532  17.155  0.00  0.00    +0.000 A 
ENDBRANCH  10  11
ENDBRANCH   3  10
BRANCH   5  21
ATOM     21  S   UNL     1       1.793   8.183  20.095  0.00  0.00    +0.000 S 
BRANCH  21  22
ATOM     22  C   UNL     1       1.712   9.046  18.487  0.00  0.00    +0.000 C 
BRANCH  22  23
ATOM     23  C   UNL     1       1.187  10.481  18.487  0.00  0.00    +0.000 C 
ATOM     24  O   UNL     1       1.934  11.458  18.554  0.00  0.00    +0.000 OA
BRANCH  23  25
ATOM     25  C   UNL     1      -0.322  10.709  18.435  0.00  0.00    +0.000 A 
ATOM     26  C   UNL     1      -1.188   9.948  17.634  0.00  0.00    +0.000 A 
ATOM     27  C   UNL     1      -2.565  10.189  17.635  0.00  0.00    +0.000 A 
ATOM     28  C   UNL     1      -3.114  11.202  18.447  0.00  0.00    +0.000 A 
ATOM     29 CL   UNL     1      -4.806  11.488  18.428  0.00  0.00    +0.000 Cl
ATOM     30  C   UNL     1      -2.266  11.976  19.243  0.00  0.00    +0.000 A 
ATOM     31  C   UNL     1      -0.887  11.729  19.231  0.00  0.00    +0.000 A 
ENDBRANCH  23  25
ENDBRANCH  22  23
ENDBRANCH  21  22
ENDBRANCH   5  21
TORSDOF 6
ENDMDL
MODEL 4
REMARK VINA RESULT:      -7.8      7.148      9.761
REMARK  Name = 
REMARK  7 active torsions:
REMARK  status: ('A' for Active; 'I' for Inactive)
REMARK    1  A    between atoms: C_1  and  C_2
REMARK    2  A    between atoms: C_3  and  C_4
REMARK    3  A    between atoms: C_4  and  N_5
REMARK    4  A    between atoms: C_16  and  S_17
REMARK    5  A    between atoms: S_17  and  C_18
REMARK    6  A    between atoms: C_18  and  C_19
REMARK    7  A    between atoms: C_19  and  C_21
REMARK                            x       y       z     vdW  Elec       q    Type
REMARK                         _______ _______ _______ _____ _____    ______ ____
ROOT
ATOM      1  C   UNL     1       2.357   8.114  17.885  0.00  0.00    +0.000 C 
ATOM      2  C   UNL     1       1.756   8.440  19.213  0.00  0.00    +0.000 A 
ATOM      3  C   UNL     1       1.897   7.794  20.398  0.00  0.00    +0.000 A 
ATOM      4  N   UNL     1       1.219   8.261  21.543  0.00  0.00    +0.000 NA
ATOM      5  C   UNL     1       0.473   9.328  21.446  0.00  0.00    +0.000 A 
ATOM      6  N   UNL     1       0.285  10.022  20.307  0.00  0.00    +0.000 N 
ATOM      7  C   UNL     1       0.814   9.602  19.137  0.00  0.00    +0.000 A 
ATOM      8  O   UNL     1       0.498  10.119  18.070  0.00  0.00    +0.000 OA
ATOM      9  H   UNL     1      -0.402  10.770  20.272  0.00  0.00    +0.000 HD
ENDROOT
BRANCH   3  10
ATOM     10  C   UNL     1       2.572   6.333  20.432  0.00  0.00    +0.000 C 
BRANCH  10  11
ATOM     11  N   UNL     1       1.911   5.127  19.835  0.00  0.00    +0.000 N 
ATOM     12  C   UNL     1       0.809   4.538  20.581  0.00  0.00    +0.000 C 
ATOM     13  C   UNL     1       1.323   3.348  21.383  0.00  0.00    +0.000 C 
ATOM     14  C   UNL     1       1.887   2.318  20.429  0.00  0.00    +0.000 C 
ATOM     15  C   UNL     1       2.963   2.944  19.539  0.00  0.00    +0.000 A 
ATOM     16  C   UNL     1       3.718   2.003  18.814  0.00  0.00    +0.000 A 
ATOM     17  C   UNL     1       3.627   2.027  17.436  0.00  0.00    +0.000 A 
ATOM     18  C   UNL     1       2.880   3.042  16.844  0.00  0.00    +0.000 A 
ATOM     19  C   UNL     1       2.413   4.143  17.614  0.00  0.00    +0.000 A 
ATOM     20  C   UNL     1       2.568   4.187  19.012  0.00  0.00    +0.000 A 
ENDBRANCH  10  11
ENDBRANCH   3  10
BRANCH   5  21
ATOM     21  S   UNL     1      -0.542   9.918  22.746  0.00  0.00    +0.000 S 
BRANCH  21  22
ATOM     22  C   UNL     1      -0.749  11.717  22.501  0.00  0.00    +0.000 C 
BRANCH  22  23
ATOM     23  C   UNL     1      -1.904  12.176  21.613  0.00  0.00    +0.000 C 
ATOM     24  O   UNL     1      -1.778  12.340  20.399  0.00  0.00    +0.000 OA
BRANCH  23  25
ATOM     25  C   UNL     1      -3.253  12.475  22.261  0.00  0.00    +0.000 A 
ATOM     26  C   UNL     1      -4.415  12.758  21.526  0.00  0.00    +0.000 A 
ATOM     27  C   UNL     1      -5.630  13.010  22.170  0.00  0.00    +0.000 A 
ATOM     28  C   UNL     1      -5.713  12.981  23.577  0.00  0.00    +0.000 A 
ATOM     29 CL   UNL     1      -7.212  13.302  24.350  0.00  0.00    +0.000 Cl
ATOM     30  C   UNL     1      -4.565  12.711  24.325  0.00  0.00    +0.000 A 
ATOM     31  C   UNL     1      -3.352  12.464  23.670  0.00  0.00    +0.000 A 
ENDBRANCH  23  25
ENDBRANCH  22  23
ENDBRANCH  21  22
ENDBRANCH   5  21
TORSDOF 6
ENDMDL
MODEL 5
REMARK VINA RESULT:      -7.8      5.237      8.159
REMARK  Name = 
REMARK  7 active torsions:
REMARK  status: ('A' for Active; 'I' for Inactive)
REMARK    1  A    between atoms: C_1  and  C_2
REMARK    2  A    between atoms: C_3  and  C_4
REMARK    3  A    between atoms: C_4  and  N_5
REMARK    4  A    between atoms: C_16  and  S_17
REMARK    5  A    between atoms: S_17  and  C_18
REMARK    6  A    between atoms: C_18  and  C_19
REMARK    7  A    between atoms: C_19  and  C_21
REMARK                            x       y       z     vdW  Elec       q    Type
REMARK                         _______ _______ _______ _____ _____    ______ ____
ROOT
ATOM      1  C   UNL     1       3.381   2.201  20.242  0.00  0.00    +0.000 C 
ATOM      2  C   UNL     1       3.182   3.664  20.016  0.00  0.00    +0.000 A 
ATOM      3  C   UNL     1       4.076   4.594  19.591  0.00  0.00    +0.000 A 
ATOM      4  N   UNL     1       3.685   5.942  19.461  0.00  0.00    +0.000 NA
ATOM      5  C   UNL     1       2.454   6.274  19.738  0.00  0.00    +0.000 A 
ATOM      6  N   UNL     1       1.512   5.411  20.163  0.00  0.00    +0.000 N 
ATOM      7  C   UNL     1       1.809   4.116  20.409  0.00  0.00    +0.000 A 
ATOM      8  O   UNL     1       1.011   3.372  20.970  0.00  0.00    +0.000 OA
ATOM      9  H   UNL     1       0.608   5.754  20.477  0.00  0.00    +0.000 HD
ENDROOT
BRANCH   3  10
ATOM     10  C   UNL     1       5.642   4.225  19.540  0.00  0.00    +0.000 C 
BRANCH  10  11
ATOM     11  N   UNL     1       6.501   4.523  18.348  0.00  0.00    +0.000 N 
ATOM     12  C   UNL     1       7.771   5.189  18.597  0.00  0.00    +0.000 C 
ATOM     13  C   UNL     1       7.615   6.683  18.339  0.00  0.00    +0.000 C 
ATOM     14  C   UNL     1       7.213   6.895  16.896  0.00  0.00    +0.000 C 
ATOM     15  C   UNL     1       5.948   6.100  16.569  0.00  0.00    +0.000 A 
ATOM     16  C   UNL     1       5.361   6.446  15.336  0.00  0.00    +0.000 A 
ATOM     17  C   UNL     1       5.319   5.482  14.349  0.00  0.00    +0.000 A 
ATOM     18  C   UNL     1       5.760   4.199  14.664  0.00  0.00    +0.000 A 
ATOM     19  C   UNL     1       6.035   3.836  16.011  0.00  0.00    +0.000 A 
ATOM     20  C   UNL     1       6.001   4.780  17.053  0.00  0.00    +0.000 A 
ENDBRANCH  10  11
ENDBRANCH   3  10
BRANCH   5  21
ATOM     21  S   UNL     1       1.884   7.931  19.769  0.00  0.00    +0.000 S 
BRANCH  21  22
ATOM     22  C   UNL     1       0.756   8.091  21.197  0.00  0.00    +0.000 C 
BRANCH  22  23
ATOM     23  C   UNL     1       0.893   9.343  22.063  0.00  0.00    +0.000 C 
ATOM     24  O   UNL     1       1.847   9.518  22.822  0.00  0.00    +0.000 OA
BRANCH  23  25
ATOM     25  C   UNL     1      -0.209  10.396  22.008  0.00  0.00    +0.000 A 
ATOM     26  C   UNL     1      -0.989  10.754  23.120  0.00  0.00    +0.000 A 
ATOM     27  C   UNL     1      -1.977  11.737  23.019  0.00  0.00    +0.000 A 
ATOM     28  C   UNL     1      -2.209  12.395  21.794  0.00  0.00    +0.000 A 
ATOM     29 CL   UNL     1      -3.433  13.594  21.687  0.00  0.00    +0.000 Cl
ATOM     30  C   UNL     1      -1.450  12.045  20.674  0.00  0.00    +0.000 A 
ATOM     31  C   UNL     1      -0.465  11.056  20.786  0.00  0.00    +0.000 A 
ENDBRANCH  23  25
ENDBRANCH  22  23
ENDBRANCH  21  22
ENDBRANCH   5  21
TORSDOF 6
ENDMDL
MODEL 6
REMARK VINA RESULT:      -7.7      5.186      8.225
REMARK  Name = 
REMARK  7 active torsions:
REMARK  status: ('A' for Active; 'I' for Inactive)
REMARK    1  A    between atoms: C_1  and  C_2
REMARK    2  A    between atoms: C_3  and  C_4
REMARK    3  A    between atoms: C_4  and  N_5
REMARK    4  A    between atoms: C_16  and  S_17
REMARK    5  A    between atoms: S_17  and  C_18
REMARK    6  A    between atoms: C_18  and  C_19
REMARK    7  A    between atoms: C_19  and  C_21
REMARK                            x       y       z     vdW  Elec       q    Type
REMARK                         _______ _______ _______ _____ _____    ______ ____
ROOT
ATOM      1  C   UNL     1       3.254   2.233  18.951  0.00  0.00    +0.000 C 
ATOM      2  C   UNL     1       2.861   3.663  19.134  0.00  0.00    +0.000 A 
ATOM      3  C   UNL     1       2.742   4.643  18.202  0.00  0.00    +0.000 A 
ATOM      4  N   UNL     1       2.372   5.947  18.590  0.00  0.00    +0.000 NA
ATOM      5  C   UNL     1       2.132   6.188  19.851  0.00  0.00    +0.000 A 
ATOM      6  N   UNL     1       2.228   5.269  20.831  0.00  0.00    +0.000 N 
ATOM      7  C   UNL     1       2.665   4.017  20.575  0.00  0.00    +0.000 A 
ATOM      8  O   UNL     1       2.932   3.235  21.483  0.00  0.00    +0.000 OA
ATOM      9  H   UNL     1       2.146   5.550  21.804  0.00  0.00    +0.000 HD
ENDROOT
BRANCH   3  10
ATOM     10  C   UNL     1       3.320   4.404  16.719  0.00  0.00    +0.000 C 
BRANCH  10  11
ATOM     11  N   UNL     1       4.591   5.040  16.238  0.00  0.00    +0.000 N 
ATOM     12  C   UNL     1       5.144   4.548  14.984  0.00  0.00    +0.000 C 
ATOM     13  C   UNL     1       6.247   3.540  15.282  0.00  0.00    +0.000 C 
ATOM     14  C   UNL     1       7.339   4.224  16.076  0.00  0.00    +0.000 C 
ATOM     15  C   UNL     1       6.761   4.864  17.340  0.00  0.00    +0.000 A 
ATOM     16  C   UNL     1       7.740   5.287  18.260  0.00  0.00    +0.000 A 
ATOM     17  C   UNL     1       7.835   6.639  18.524  0.00  0.00    +0.000 A 
ATOM     18  C   UNL     1       6.894   7.489  17.948  0.00  0.00    +0.000 A 
ATOM     19  C   UNL     1       5.745   6.964  17.294  0.00  0.00    +0.000 A 
ATOM     20  C   UNL     1       5.579   5.582  17.088  0.00  0.00    +0.000 A 
ENDBRANCH  10  11
ENDBRANCH   3  10
BRANCH   5  21
ATOM     21  S   UNL     1       1.820   7.791  20.485  0.00  0.00    +0.000 S 
BRANCH  21  22
ATOM     22  C   UNL     1       1.392   8.863  19.068  0.00  0.00    +0.000 C 
BRANCH  22  23
ATOM     23  C   UNL     1       0.724  10.202  19.377  0.00  0.00    +0.000 C 
ATOM     24  O   UNL     1       1.227  11.030  20.138  0.00  0.00    +0.000 OA
BRANCH  23  25
ATOM     25  C   UNL     1      -0.631  10.507  18.747  0.00  0.00    +0.000 A 
ATOM     26  C   UNL     1      -1.513  11.478  19.248  0.00  0.00    +0.000 A 
ATOM     27  C   UNL     1      -2.738  11.729  18.623  0.00  0.00    +0.000 A 
ATOM     28  C   UNL     1      -3.112  11.011  17.469  0.00  0.00    +0.000 A 
ATOM     29 CL   UNL     1      -4.624  11.326  16.720  0.00  0.00    +0.000 Cl
ATOM     30  C   UNL     1      -2.252  10.034  16.962  0.00  0.00    +0.000 A 
ATOM     31  C   UNL     1      -1.029   9.788  17.599  0.00  0.00    +0.000 A 
ENDBRANCH  23  25
ENDBRANCH  22  23
ENDBRANCH  21  22
ENDBRANCH   5  21
TORSDOF 6
ENDMDL
MODEL 7
REMARK VINA RESULT:      -7.5      5.594      8.574
REMARK  Name = 
REMARK  7 active torsions:
REMARK  status: ('A' for Active; 'I' for Inactive)
REMARK    1  A    between atoms: C_1  and  C_2
REMARK    2  A    between atoms: C_3  and  C_4
REMARK    3  A    between atoms: C_4  and  N_5
REMARK    4  A    between atoms: C_16  and  S_17
REMARK    5  A    between atoms: S_17  and  C_18
REMARK    6  A    between atoms: C_18  and  C_19
REMARK    7  A    between atoms: C_19  and  C_21
REMARK                            x       y       z     vdW  Elec       q    Type
REMARK                         _______ _______ _______ _____ _____    ______ ____
ROOT
ATOM      1  C   UNL     1       2.178   9.619  17.896  0.00  0.00    +0.000 C 
ATOM      2  C   UNL     1       2.019   8.468  18.836  0.00  0.00    +0.000 A 
ATOM      3  C   UNL     1       1.440   8.440  20.063  0.00  0.00    +0.000 A 
ATOM      4  N   UNL     1       1.411   7.240  20.804  0.00  0.00    +0.000 NA
ATOM      5  C   UNL     1       1.933   6.163  20.283  0.00  0.00    +0.000 A 
ATOM      6  N   UNL     1       2.523   6.113  19.074  0.00  0.00    +0.000 N 
ATOM      7  C   UNL     1       2.685   7.227  18.327  0.00  0.00    +0.000 A 
ATOM      8  O   UNL     1       3.381   7.225  17.317  0.00  0.00    +0.000 OA
ATOM      9  H   UNL     1       3.016   5.273  18.780  0.00  0.00    +0.000 HD
ENDROOT
BRANCH   3  10
ATOM     10  C   UNL     1       1.073   9.823  20.801  0.00  0.00    +0.000 C 
BRANCH  10  11
ATOM     11  N   UNL     1      -0.306  10.412  20.767  0.00  0.00    +0.000 N 
ATOM     12  C   UNL     1      -1.031  10.328  19.508  0.00  0.00    +0.000 C 
ATOM     13  C   UNL     1      -0.896  11.648  18.759  0.00  0.00    +0.000 C 
ATOM     14  C   UNL     1      -1.487  12.756  19.603  0.00  0.00    +0.000 C 
ATOM     15  C   UNL     1      -0.830  12.786  20.985  0.00  0.00    +0.000 A 
ATOM     16  C   UNL     1      -1.130  13.942  21.731  0.00  0.00    +0.000 A 
ATOM     17  C   UNL     1      -1.845  13.786  22.903  0.00  0.00    +0.000 A 
ATOM     18  C   UNL     1      -2.135  12.491  23.328  0.00  0.00    +0.000 A 
ATOM     19  C   UNL     1      -1.527  11.368  22.702  0.00  0.00    +0.000 A 
ATOM     20  C   UNL     1      -0.722  11.506  21.557  0.00  0.00    +0.000 A 
ENDBRANCH  10  11
ENDBRANCH   3  10
BRANCH   5  21
ATOM     21  S   UNL     1       2.103   4.654  21.157  0.00  0.00    +0.000 S 
BRANCH  21  22
ATOM     22  C   UNL     1       2.409   3.342  19.922  0.00  0.00    +0.000 C 
BRANCH  22  23
ATOM     23  C   UNL     1       3.859   2.917  19.695  0.00  0.00    +0.000 C 
ATOM     24  O   UNL     1       4.438   2.124  20.438  0.00  0.00    +0.000 OA
BRANCH  23  25
ATOM     25  C   UNL     1       4.625   3.525  18.524  0.00  0.00    +0.000 A 
ATOM     26  C   UNL     1       4.261   3.331  17.181  0.00  0.00    +0.000 A 
ATOM     27  C   UNL     1       4.989   3.924  16.146  0.00  0.00    +0.000 A 
ATOM     28  C   UNL     1       6.107   4.735  16.430  0.00  0.00    +0.000 A 
ATOM     29 CL   UNL     1       6.994   5.447  15.145  0.00  0.00    +0.000 Cl
ATOM     30  C   UNL     1       6.490   4.931  17.759  0.00  0.00    +0.000 A 
ATOM     31  C   UNL     1       5.756   4.329  18.789  0.00  0.00    +0.000 A 
ENDBRANCH  23  25
ENDBRANCH  22  23
ENDBRANCH  21  22
ENDBRANCH   5  21
TORSDOF 6
ENDMDL
MODEL 8
REMARK VINA RESULT:      -7.5      5.163      7.852
REMARK  Name = 
REMARK  7 active torsions:
REMARK  status: ('A' for Active; 'I' for Inactive)
REMARK    1  A    between atoms: C_1  and  C_2
REMARK    2  A    between atoms: C_3  and  C_4
REMARK    3  A    between atoms: C_4  and  N_5
REMARK    4  A    between atoms: C_16  and  S_17
REMARK    5  A    between atoms: S_17  and  C_18
REMARK    6  A    between atoms: C_18  and  C_19
REMARK    7  A    between atoms: C_19  and  C_21
REMARK                            x       y       z     vdW  Elec       q    Type
REMARK                         _______ _______ _______ _____ _____    ______ ____
ROOT
ATOM      1  C   UNL     1       3.635   2.309  20.339  0.00  0.00    +0.000 C 
ATOM      2  C   UNL     1       3.302   3.750  20.130  0.00  0.00    +0.000 A 
ATOM      3  C   UNL     1       4.111   4.767  19.735  0.00  0.00    +0.000 A 
ATOM      4  N   UNL     1       3.596   6.075  19.617  0.00  0.00    +0.000 NA
ATOM      5  C   UNL     1       2.334   6.284  19.875  0.00  0.00    +0.000 A 
ATOM      6  N   UNL     1       1.471   5.328  20.270  0.00  0.00    +0.000 N 
ATOM      7  C   UNL     1       1.886   4.064  20.503  0.00  0.00    +0.000 A 
ATOM      8  O   UNL     1       1.152   3.239  21.038  0.00  0.00    +0.000 OA
ATOM      9  H   UNL     1       0.533   5.579  20.571  0.00  0.00    +0.000 HD
ENDROOT
BRANCH   3  10
ATOM     10  C   UNL     1       5.705   4.549  19.709  0.00  0.00    +0.000 C 
BRANCH  10  11
ATOM     11  N   UNL     1       6.529   4.774  18.476  0.00  0.00    +0.000 N 
ATOM     12  C   UNL     1       7.804   5.455  18.647  0.00  0.00    +0.000 C 
ATOM     13  C   UNL     1       7.637   6.930  18.303  0.00  0.00    +0.000 C 
ATOM     14  C   UNL     1       7.193   7.054  16.862  0.00  0.00    +0.000 C 
ATOM     15  C   UNL     1       5.920   6.240  16.621  0.00  0.00    +0.000 A 
ATOM     16  C   UNL     1       5.298   6.510  15.388  0.00  0.00    +0.000 A 
ATOM     17  C   UNL     1       5.228   5.487  14.462  0.00  0.00    +0.000 A 
ATOM     18  C   UNL     1       5.681   4.226  14.842  0.00  0.00    +0.000 A 
ATOM     19  C   UNL     1       5.996   3.945  16.200  0.00  0.00    +0.000 A 
ATOM     20  C   UNL     1       5.991   4.952  17.183  0.00  0.00    +0.000 A 
ENDBRANCH  10  11
ENDBRANCH   3  10
BRANCH   5  21
ATOM     21  S   UNL     1       1.610   7.878  19.919  0.00  0.00    +0.000 S 
BRANCH  21  22
ATOM     22  C   UNL     1       1.895   8.651  18.288  0.00  0.00    +0.000 C 
BRANCH  22  23
ATOM     23  C   UNL     1       1.608  10.146  18.159  0.00  0.00    +0.000 C 
ATOM     24  O   UNL     1       2.482  10.963  17.869  0.00  0.00    +0.000 OA
BRANCH  23  25
ATOM     25  C   UNL     1       0.192  10.646  18.434  0.00  0.00    +0.000 A 
ATOM     26  C   UNL     1      -0.955  10.046  17.891  0.00  0.00    +0.000 A 
ATOM     27  C   UNL     1      -2.231  10.535  18.187  0.00  0.00    +0.000 A 
ATOM     28  C   UNL     1      -2.391  11.643  19.043  0.00  0.00    +0.000 A 
ATOM     29 CL   UNL     1      -3.965  12.235  19.388  0.00  0.00    +0.000 Cl
ATOM     30  C   UNL     1      -1.261  12.259  19.584  0.00  0.00    +0.000 A 
ATOM     31  C   UNL     1       0.013  11.764  19.278  0.00  0.00    +0.000 A 
ENDBRANCH  23  25
ENDBRANCH  22  23
ENDBRANCH  21  22
ENDBRANCH   5  21
TORSDOF 6
ENDMDL
MODEL 9
REMARK VINA RESULT:      -7.4      5.621      8.801
REMARK  Name = 
REMARK  7 active torsions:
REMARK  status: ('A' for Active; 'I' for Inactive)
REMARK    1  A    between atoms: C_1  and  C_2
REMARK    2  A    between atoms: C_3  and  C_4
REMARK    3  A    between atoms: C_4  and  N_5
REMARK    4  A    between atoms: C_16  and  S_17
REMARK    5  A    between atoms: S_17  and  C_18
REMARK    6  A    between atoms: C_18  and  C_19
REMARK    7  A    between atoms: C_19  and  C_21
REMARK                            x       y       z     vdW  Elec       q    Type
REMARK                         _______ _______ _______ _____ _____    ______ ____
ROOT
ATOM      1  C   UNL     1       2.071   9.966  18.003  0.00  0.00    +0.000 C 
ATOM      2  C   UNL     1       1.931   8.752  18.863  0.00  0.00    +0.000 A 
ATOM      3  C   UNL     1       1.353   8.631  20.085  0.00  0.00    +0.000 A 
ATOM      4  N   UNL     1       1.344   7.384  20.743  0.00  0.00    +0.000 NA
ATOM      5  C   UNL     1       1.883   6.353  20.151  0.00  0.00    +0.000 A 
ATOM      6  N   UNL     1       2.473   6.394  18.942  0.00  0.00    +0.000 N 
ATOM      7  C   UNL     1       2.617   7.559  18.272  0.00  0.00    +0.000 A 
ATOM      8  O   UNL     1       3.312   7.636  17.265  0.00  0.00    +0.000 OA
ATOM      9  H   UNL     1       2.979   5.585  18.592  0.00  0.00    +0.000 HD
ENDROOT
BRANCH   3  10
ATOM     10  C   UNL     1       0.964   9.955  20.915  0.00  0.00    +0.000 C 
BRANCH  10  11
ATOM     11  N   UNL     1      -0.413  10.549  20.883  0.00  0.00    +0.000 N 
ATOM     12  C   UNL     1      -1.127  10.498  19.616  0.00  0.00    +0.000 C 
ATOM     13  C   UNL     1      -0.982  11.836  18.902  0.00  0.00    +0.000 C 
ATOM     14  C   UNL     1      -1.578  12.924  19.769  0.00  0.00    +0.000 C 
ATOM     15  C   UNL     1      -0.934  12.918  21.156  0.00  0.00    +0.000 A 
ATOM     16  C   UNL     1      -1.237  14.055  21.929  0.00  0.00    +0.000 A 
ATOM     17  C   UNL     1      -1.963  13.871  23.090  0.00  0.00    +0.000 A 
ATOM     18  C   UNL     1      -2.259  12.568  23.480  0.00  0.00    +0.000 A 
ATOM     19  C   UNL     1      -1.649  11.459  22.831  0.00  0.00    +0.000 A 
ATOM     20  C   UNL     1      -0.834  11.623  21.697  0.00  0.00    +0.000 A 
ENDBRANCH  10  11
ENDBRANCH   3  10
BRANCH   5  21
ATOM     21  S   UNL     1       2.078   4.791  20.921  0.00  0.00    +0.000 S 
BRANCH  21  22
ATOM     22  C   UNL     1       1.619   3.518  19.693  0.00  0.00    +0.000 C 
BRANCH  22  23
ATOM     23  C   UNL     1       2.755   2.724  19.048  0.00  0.00    +0.000 C 
ATOM     24  O   UNL     1       2.799   1.494  19.078  0.00  0.00    +0.000 OA
BRANCH  23  25
ATOM     25  C   UNL     1       3.891   3.487  18.373  0.00  0.00    +0.000 A 
ATOM     26  C   UNL     1       5.043   3.914  19.054  0.00  0.00    +0.000 A 
ATOM     27  C   UNL     1       6.062   4.597  18.384  0.00  0.00    +0.000 A 
ATOM     28  C   UNL     1       5.954   4.869  17.005  0.00  0.00    +0.000 A 
ATOM     29 CL   UNL     1       7.212   5.717  16.202  0.00  0.00    +0.000 Cl
ATOM     30  C   UNL     1       4.811   4.461  16.314  0.00  0.00    +0.000 A 
ATOM     31  C   UNL     1       3.794   3.780  16.995  0.00  0.00    +0.000 A 
ENDBRANCH  23  25
ENDBRANCH  22  23
ENDBRANCH  21  22
ENDBRANCH   5  21
TORSDOF 6
ENDMDL
