MODEL 1
REMARK VINA RESULT:      -8.5      0.000      0.000
REMARK  Name = 
REMARK  11 active torsions:
REMARK  status: ('A' for Active; 'I' for Inactive)
REMARK    1  A    between atoms: C_1  and  N_2
REMARK    2  A    between atoms: C_4  and  C_5
REMARK    3  A    between atoms: C_12  and  N_13
REMARK    4  A    between atoms: C_14  and  C_16
REMARK    5  A    between atoms: N_18  and  C_19
REMARK    6  A    between atoms: C_19  and  C_20
REMARK    7  A    between atoms: C_20  and  C_21
REMARK    8  A    between atoms: C_21  and  C_22
REMARK    9  A    between atoms: C_22  and  C_23
REMARK   10  A    between atoms: C_23  and  C_24
REMARK   11  A    between atoms: N_26  and  O_27
REMARK                            x       y       z     vdW  Elec       q    Type
REMARK                         _______ _______ _______ _____ _____    ______ ____
ROOT
ATOM      1  C   UNL     1       0.527  10.524  19.111  0.00  0.00    +0.000 A 
ATOM      2  C   UNL     1      -0.775  10.216  19.254  0.00  0.00    +0.000 A 
ATOM      3  N   UNL     1      -1.776  11.069  19.736  0.00  0.00    +0.000 N 
ATOM      4  C   UNL     1      -1.303  12.002  20.725  0.00  0.00    +0.000 A 
ATOM      5  C   UNL     1      -2.171  12.480  21.716  0.00  0.00    +0.000 A 
ATOM      6  C   UNL     1      -1.715  13.421  22.634  0.00  0.00    +0.000 A 
ATOM      7  C   UNL     1      -0.399  13.889  22.554  0.00  0.00    +0.000 A 
ATOM      8  C   UNL     1       0.476  13.418  21.561  0.00  0.00    +0.000 A 
ATOM      9  C   UNL     1       0.029  12.457  20.656  0.00  0.00    +0.000 A 
ATOM     10  C   UNL     1       0.912  11.868  19.594  0.00  0.00    +0.000 A 
ATOM     11  O   UNL     1       1.914  12.418  19.151  0.00  0.00    +0.000 OA
ENDROOT
BRANCH   1  13
ATOM     12  N   UNL     1       1.715   8.359  19.355  0.00  0.00    +0.000 N 
ATOM     13  C   UNL     1       1.445   9.516  18.537  0.00  0.00    +0.000 C 
ATOM     14  O   UNL     1       1.981   9.667  17.446  0.00  0.00    +0.000 OA
ATOM     15  H   UNL     1       1.281   8.317  20.277  0.00  0.00    +0.000 HD
BRANCH  12  21
ATOM     16  C   UNL     1       1.869   5.461  20.583  0.00  0.00    +0.000 C 
ATOM     17  N   UNL     1       2.545   5.997  19.425  0.00  0.00    +0.000 N 
ATOM     18  N   UNL     1       3.362   5.167  18.763  0.00  0.00    +0.000 NA
ATOM     19  C   UNL     1       3.951   5.915  17.822  0.00  0.00    +0.000 A 
ATOM     20  C   UNL     1       3.450   7.252  17.900  0.00  0.00    +0.000 A 
ATOM     21  C   UNL     1       2.516   7.282  18.924  0.00  0.00    +0.000 A 
BRANCH  19  22
ATOM     22  C   UNL     1       4.958   5.329  16.914  0.00  0.00    +0.000 A 
ATOM     23  C   UNL     1       6.155   6.026  16.655  0.00  0.00    +0.000 A 
ATOM     24  C   UNL     1       7.114   5.521  15.773  0.00  0.00    +0.000 A 
ATOM     25  C   UNL     1       6.896   4.303  15.135  0.00  0.00    +0.000 A 
ATOM     26  C   UNL     1       5.724   3.592  15.390  0.00  0.00    +0.000 A 
ATOM     27  C   UNL     1       4.763   4.098  16.276  0.00  0.00    +0.000 A 
ENDBRANCH  19  22
ENDBRANCH  12  21
ENDBRANCH   1  13
BRANCH   3  28
ATOM     28  C   UNL     1      -2.496  11.937  18.747  0.00  0.00    +0.000 C 
BRANCH  28  29
ATOM     29  C   UNL     1      -3.425  11.165  17.824  0.00  0.00    +0.000 C 
BRANCH  29  30
ATOM     30  C   UNL     1      -3.272  11.560  16.360  0.00  0.00    +0.000 C 
BRANCH  30  31
ATOM     31  C   UNL     1      -2.905  10.318  15.558  0.00  0.00    +0.000 C 
BRANCH  31  32
ATOM     32  C   UNL     1      -3.961   9.965  14.521  0.00  0.00    +0.000 C 
BRANCH  32  33
ATOM     33  C   UNL     1      -3.317   9.783  13.155  0.00  0.00    +0.000 C 
ATOM     34  O   UNL     1      -2.132   9.528  12.964  0.00  0.00    +0.000 OA
ATOM     35  N   UNL     1      -4.203   9.910  12.116  0.00  0.00    +0.000 N 
ATOM     36  H   UNL     1      -5.068  10.428  12.196  0.00  0.00    +0.000 HD
BRANCH  35  37
ATOM     37  O   UNL     1      -3.615   9.860  10.827  0.00  0.00    +0.000 OA
ATOM     38  H   UNL     1      -2.684  10.119  11.011  0.00  0.00    +0.000 HD
ENDBRANCH  35  37
ENDBRANCH  32  33
ENDBRANCH  31  32
ENDBRANCH  30  31
ENDBRANCH  29  30
ENDBRANCH  28  29
ENDBRANCH   3  28
TORSDOF 10
ENDMDL
MODEL 2
REMARK VINA RESULT:      -8.4      0.694      1.102
REMARK  Name = 
REMARK  11 active torsions:
REMARK  status: ('A' for Active; 'I' for Inactive)
REMARK    1  A    between atoms: C_1  and  N_2
REMARK    2  A    between atoms: C_4  and  C_5
REMARK    3  A    between atoms: C_12  and  N_13
REMARK    4  A    between atoms: C_14  and  C_16
REMARK    5  A    between atoms: N_18  and  C_19
REMARK    6  A    between atoms: C_19  and  C_20
REMARK    7  A    between atoms: C_20  and  C_21
REMARK    8  A    between atoms: C_21  and  C_22
REMARK    9  A    between atoms: C_22  and  C_23
REMARK   10  A    between atoms: C_23  and  C_24
REMARK   11  A    between atoms: N_26  and  O_27
REMARK                            x       y       z     vdW  Elec       q    Type
REMARK                         _______ _______ _______ _____ _____    ______ ____
ROOT
ATOM      1  C   UNL     1       0.542  10.602  19.019  0.00  0.00    +0.000 A 
ATOM      2  C   UNL     1      -0.758  10.288  19.159  0.00  0.00    +0.000 A 
ATOM      3  N   UNL     1      -1.766  11.140  19.630  0.00  0.00    +0.000 N 
ATOM      4  C   UNL     1      -1.301  12.085  20.611  0.00  0.00    +0.000 A 
ATOM      5  C   UNL     1      -2.176  12.568  21.595  0.00  0.00    +0.000 A 
ATOM      6  C   UNL     1      -1.728  13.520  22.505  0.00  0.00    +0.000 A 
ATOM      7  C   UNL     1      -0.415  13.994  22.426  0.00  0.00    +0.000 A 
ATOM      8  C   UNL     1       0.466  13.518  21.441  0.00  0.00    +0.000 A 
ATOM      9  C   UNL     1       0.028  12.547  20.543  0.00  0.00    +0.000 A 
ATOM     10  C   UNL     1       0.919  11.953  19.490  0.00  0.00    +0.000 A 
ATOM     11  O   UNL     1       1.919  12.504  19.046  0.00  0.00    +0.000 OA
ENDROOT
BRANCH   1  13
ATOM     12  N   UNL     1       1.667   8.401  19.245  0.00  0.00    +0.000 N 
ATOM     13  C   UNL     1       1.468   9.593  18.457  0.00  0.00    +0.000 C 
ATOM     14  O   UNL     1       2.067   9.771  17.404  0.00  0.00    +0.000 OA
ATOM     15  H   UNL     1       1.182   8.337  20.140  0.00  0.00    +0.000 HD
BRANCH  12  21
ATOM     16  C   UNL     1       1.916   5.550  20.563  0.00  0.00    +0.000 C 
ATOM     17  N   UNL     1       2.536   6.055  19.360  0.00  0.00    +0.000 N 
ATOM     18  N   UNL     1       3.338   5.215  18.693  0.00  0.00    +0.000 NA
ATOM     19  C   UNL     1       3.876   5.938  17.704  0.00  0.00    +0.000 A 
ATOM     20  C   UNL     1       3.357   7.270  17.757  0.00  0.00    +0.000 A 
ATOM     21  C   UNL     1       2.466   7.322  18.817  0.00  0.00    +0.000 A 
BRANCH  19  22
ATOM     22  C   UNL     1       4.854   5.336  16.775  0.00  0.00    +0.000 A 
ATOM     23  C   UNL     1       4.788   3.958  16.487  0.00  0.00    +0.000 A 
ATOM     24  C   UNL     1       5.719   3.346  15.644  0.00  0.00    +0.000 A 
ATOM     25  C   UNL     1       6.733   4.104  15.065  0.00  0.00    +0.000 A 
ATOM     26  C   UNL     1       6.805   5.472  15.325  0.00  0.00    +0.000 A 
ATOM     27  C   UNL     1       5.871   6.086  16.171  0.00  0.00    +0.000 A 
ENDBRANCH  19  22
ENDBRANCH  12  21
ENDBRANCH   1  13
BRANCH   3  28
ATOM     28  C   UNL     1      -2.486  11.995  18.630  0.00  0.00    +0.000 C 
BRANCH  28  29
ATOM     29  C   UNL     1      -3.930  11.578  18.401  0.00  0.00    +0.000 C 
BRANCH  29  30
ATOM     30  C   UNL     1      -4.211  11.169  16.960  0.00  0.00    +0.000 C 
BRANCH  30  31
ATOM     31  C   UNL     1      -2.900  11.191  16.186  0.00  0.00    +0.000 C 
BRANCH  31  32
ATOM     32  C   UNL     1      -2.624   9.874  15.475  0.00  0.00    +0.000 C 
BRANCH  32  33
ATOM     33  C   UNL     1      -3.308   9.857  14.116  0.00  0.00    +0.000 C 
ATOM     34  O   UNL     1      -4.513   9.992  13.932  0.00  0.00    +0.000 OA
ATOM     35  N   UNL     1      -2.434   9.694  13.072  0.00  0.00    +0.000 N 
ATOM     36  H   UNL     1      -1.526   9.261  13.181  0.00  0.00    +0.000 HD
BRANCH  35  37
ATOM     37  O   UNL     1      -3.048   9.559  11.802  0.00  0.00    +0.000 OA
ATOM     38  H   UNL     1      -3.962   9.876  11.976  0.00  0.00    +0.000 HD
ENDBRANCH  35  37
ENDBRANCH  32  33
ENDBRANCH  31  32
ENDBRANCH  30  31
ENDBRANCH  29  30
ENDBRANCH  28  29
ENDBRANCH   3  28
TORSDOF 10
ENDMDL
MODEL 3
REMARK VINA RESULT:      -8.4      3.073      4.905
REMARK  Name = 
REMARK  11 active torsions:
REMARK  status: ('A' for Active; 'I' for Inactive)
REMARK    1  A    between atoms: C_1  and  N_2
REMARK    2  A    between atoms: C_4  and  C_5
REMARK    3  A    between atoms: C_12  and  N_13
REMARK    4  A    between atoms: C_14  and  C_16
REMARK    5  A    between atoms: N_18  and  C_19
REMARK    6  A    between atoms: C_19  and  C_20
REMARK    7  A    between atoms: C_20  and  C_21
REMARK    8  A    between atoms: C_21  and  C_22
REMARK    9  A    between atoms: C_22  and  C_23
REMARK   10  A    between atoms: C_23  and  C_24
REMARK   11  A    between atoms: N_26  and  O_27
REMARK                            x       y       z     vdW  Elec       q    Type
REMARK                         _______ _______ _______ _____ _____    ______ ____
ROOT
ATOM      1  C   UNL     1       0.254  10.516  19.565  0.00  0.00    +0.000 A 
ATOM      2  C   UNL     1      -0.586  11.307  18.873  0.00  0.00    +0.000 A 
ATOM      3  N   UNL     1      -1.339  12.366  19.395  0.00  0.00    +0.000 N 
ATOM      4  C   UNL     1      -1.754  12.154  20.757  0.00  0.00    +0.000 A 
ATOM      5  C   UNL     1      -2.939  12.735  21.231  0.00  0.00    +0.000 A 
ATOM      6  C   UNL     1      -3.301  12.565  22.564  0.00  0.00    +0.000 A 
ATOM      7  C   UNL     1      -2.477  11.827  23.420  0.00  0.00    +0.000 A 
ATOM      8  C   UNL     1      -1.287  11.246  22.953  0.00  0.00    +0.000 A 
ATOM      9  C   UNL     1      -0.934  11.393  21.613  0.00  0.00    +0.000 A 
ATOM     10  C   UNL     1       0.297  10.767  21.023  0.00  0.00    +0.000 A 
ATOM     11  O   UNL     1       1.282  10.441  21.675  0.00  0.00    +0.000 OA
ENDROOT
BRANCH   1  13
ATOM     12  N   UNL     1       1.644   8.463  19.664  0.00  0.00    +0.000 N 
ATOM     13  C   UNL     1       1.014   9.470  18.846  0.00  0.00    +0.000 C 
ATOM     14  O   UNL     1       1.140   9.476  17.628  0.00  0.00    +0.000 OA
ATOM     15  H   UNL     1       1.549   8.545  20.676  0.00  0.00    +0.000 HD
BRANCH  12  21
ATOM     16  C   UNL     1       1.711   5.503  20.742  0.00  0.00    +0.000 C 
ATOM     17  N   UNL     1       2.336   6.058  19.564  0.00  0.00    +0.000 N 
ATOM     18  N   UNL     1       3.055   5.219  18.807  0.00  0.00    +0.000 NA
ATOM     19  C   UNL     1       3.620   5.979  17.862  0.00  0.00    +0.000 A 
ATOM     20  C   UNL     1       3.205   7.336  18.038  0.00  0.00    +0.000 A 
ATOM     21  C   UNL     1       2.349   7.367  19.126  0.00  0.00    +0.000 A 
BRANCH  19  22
ATOM     22  C   UNL     1       4.526   5.385  16.857  0.00  0.00    +0.000 A 
ATOM     23  C   UNL     1       4.743   3.993  16.849  0.00  0.00    +0.000 A 
ATOM     24  C   UNL     1       5.622   3.399  15.939  0.00  0.00    +0.000 A 
ATOM     25  C   UNL     1       6.297   4.189  15.012  0.00  0.00    +0.000 A 
ATOM     26  C   UNL     1       6.082   5.567  14.994  0.00  0.00    +0.000 A 
ATOM     27  C   UNL     1       5.201   6.161  15.906  0.00  0.00    +0.000 A 
ENDBRANCH  19  22
ENDBRANCH  12  21
ENDBRANCH   1  13
BRANCH   3  28
ATOM     28  C   UNL     1      -0.711  13.727  19.425  0.00  0.00    +0.000 C 
BRANCH  28  29
ATOM     29  C   UNL     1       0.617  13.801  18.688  0.00  0.00    +0.000 C 
BRANCH  29  30
ATOM     30  C   UNL     1       1.815  13.885  19.627  0.00  0.00    +0.000 C 
BRANCH  30  31
ATOM     31  C   UNL     1       3.080  14.013  18.789  0.00  0.00    +0.000 C 
BRANCH  31  32
ATOM     32  C   UNL     1       4.055  15.030  19.364  0.00  0.00    +0.000 C 
BRANCH  32  33
ATOM     33  C   UNL     1       4.023  16.311  18.543  0.00  0.00    +0.000 C 
ATOM     34  O   UNL     1       4.804  17.249  18.670  0.00  0.00    +0.000 OA
ATOM     35  N   UNL     1       3.028  16.326  17.600  0.00  0.00    +0.000 N 
ATOM     36  H   UNL     1       2.193  15.760  17.677  0.00  0.00    +0.000 HD
BRANCH  35  37
ATOM     37  O   UNL     1       2.897  17.549  16.896  0.00  0.00    +0.000 OA
ATOM     38  H   UNL     1       3.390  17.366  16.065  0.00  0.00    +0.000 HD
ENDBRANCH  35  37
ENDBRANCH  32  33
ENDBRANCH  31  32
ENDBRANCH  30  31
ENDBRANCH  29  30
ENDBRANCH  28  29
ENDBRANCH   3  28
TORSDOF 10
ENDMDL
MODEL 4
REMARK VINA RESULT:      -8.4      3.814     10.204
REMARK  Name = 
REMARK  11 active torsions:
REMARK  status: ('A' for Active; 'I' for Inactive)
REMARK    1  A    between atoms: C_1  and  N_2
REMARK    2  A    between atoms: C_4  and  C_5
REMARK    3  A    between atoms: C_12  and  N_13
REMARK    4  A    between atoms: C_14  and  C_16
REMARK    5  A    between atoms: N_18  and  C_19
REMARK    6  A    between atoms: C_19  and  C_20
REMARK    7  A    between atoms: C_20  and  C_21
REMARK    8  A    between atoms: C_21  and  C_22
REMARK    9  A    between atoms: C_22  and  C_23
REMARK   10  A    between atoms: C_23  and  C_24
REMARK   11  A    between atoms: N_26  and  O_27
REMARK                            x       y       z     vdW  Elec       q    Type
REMARK                         _______ _______ _______ _____ _____    ______ ____
ROOT
ATOM      1  C   UNL     1       2.249   6.674  19.818  0.00  0.00    +0.000 A 
ATOM      2  C   UNL     1       3.414   6.591  19.151  0.00  0.00    +0.000 A 
ATOM      3  N   UNL     1       4.035   5.412  18.721  0.00  0.00    +0.000 N 
ATOM      4  C   UNL     1       3.803   4.293  19.597  0.00  0.00    +0.000 A 
ATOM      5  C   UNL     1       4.755   3.269  19.700  0.00  0.00    +0.000 A 
ATOM      6  C   UNL     1       4.495   2.168  20.511  0.00  0.00    +0.000 A 
ATOM      7  C   UNL     1       3.283   2.087  21.206  0.00  0.00    +0.000 A 
ATOM      8  C   UNL     1       2.323   3.107  21.104  0.00  0.00    +0.000 A 
ATOM      9  C   UNL     1       2.591   4.222  20.313  0.00  0.00    +0.000 A 
ATOM     10  C   UNL     1       1.640   5.377  20.185  0.00  0.00    +0.000 A 
ATOM     11  O   UNL     1       0.434   5.299  20.394  0.00  0.00    +0.000 OA
ENDROOT
BRANCH   1  13
ATOM     12  N   UNL     1       1.393   8.868  19.038  0.00  0.00    +0.000 N 
ATOM     13  C   UNL     1       1.707   8.009  20.154  0.00  0.00    +0.000 C 
ATOM     14  O   UNL     1       1.567   8.387  21.310  0.00  0.00    +0.000 OA
ATOM     15  H   UNL     1       1.583   8.518  18.100  0.00  0.00    +0.000 HD
BRANCH  12  21
ATOM     16  C   UNL     1       2.526  11.635  18.041  0.00  0.00    +0.000 C 
ATOM     17  N   UNL     1       1.277  11.348  18.707  0.00  0.00    +0.000 N 
ATOM     18  N   UNL     1       0.468  12.388  18.950  0.00  0.00    +0.000 NA
ATOM     19  C   UNL     1      -0.549  11.894  19.667  0.00  0.00    +0.000 A 
ATOM     20  C   UNL     1      -0.362  10.488  19.844  0.00  0.00    +0.000 A 
ATOM     21  C   UNL     1       0.810  10.143  19.190  0.00  0.00    +0.000 A 
BRANCH  19  22
ATOM     22  C   UNL     1      -1.629  12.778  20.151  0.00  0.00    +0.000 A 
ATOM     23  C   UNL     1      -1.313  14.054  20.659  0.00  0.00    +0.000 A 
ATOM     24  C   UNL     1      -2.304  14.902  21.162  0.00  0.00    +0.000 A 
ATOM     25  C   UNL     1      -3.634  14.492  21.159  0.00  0.00    +0.000 A 
ATOM     26  C   UNL     1      -3.968  13.239  20.645  0.00  0.00    +0.000 A 
ATOM     27  C   UNL     1      -2.975  12.389  20.141  0.00  0.00    +0.000 A 
ENDBRANCH  19  22
ENDBRANCH  12  21
ENDBRANCH   1  13
BRANCH   3  28
ATOM     28  C   UNL     1       3.674   4.880  17.366  0.00  0.00    +0.000 C 
BRANCH  28  29
ATOM     29  C   UNL     1       4.709   5.190  16.296  0.00  0.00    +0.000 C 
BRANCH  29  30
ATOM     30  C   UNL     1       5.741   4.081  16.127  0.00  0.00    +0.000 C 
BRANCH  30  31
ATOM     31  C   UNL     1       7.022   4.499  16.836  0.00  0.00    +0.000 C 
BRANCH  31  32
ATOM     32  C   UNL     1       7.099   6.003  17.056  0.00  0.00    +0.000 C 
BRANCH  32  33
ATOM     33  C   UNL     1       7.707   6.305  18.418  0.00  0.00    +0.000 C 
ATOM     34  O   UNL     1       8.326   7.325  18.702  0.00  0.00    +0.000 OA
ATOM     35  N   UNL     1       7.482   5.317  19.343  0.00  0.00    +0.000 N 
ATOM     36  H   UNL     1       7.286   4.359  19.083  0.00  0.00    +0.000 HD
BRANCH  35  37
ATOM     37  O   UNL     1       8.131   5.513  20.587  0.00  0.00    +0.000 OA
ATOM     38  H   UNL     1       8.749   6.251  20.388  0.00  0.00    +0.000 HD
ENDBRANCH  35  37
ENDBRANCH  32  33
ENDBRANCH  31  32
ENDBRANCH  30  31
ENDBRANCH  29  30
ENDBRANCH  28  29
ENDBRANCH   3  28
TORSDOF 10
ENDMDL
MODEL 5
REMARK VINA RESULT:      -8.2      3.166      4.798
REMARK  Name = 
REMARK  11 active torsions:
REMARK  status: ('A' for Active; 'I' for Inactive)
REMARK    1  A    between atoms: C_1  and  N_2
REMARK    2  A    between atoms: C_4  and  C_5
REMARK    3  A    between atoms: C_12  and  N_13
REMARK    4  A    between atoms: C_14  and  C_16
REMARK    5  A    between atoms: N_18  and  C_19
REMARK    6  A    between atoms: C_19  and  C_20
REMARK    7  A    between atoms: C_20  and  C_21
REMARK    8  A    between atoms: C_21  and  C_22
REMARK    9  A    between atoms: C_22  and  C_23
REMARK   10  A    between atoms: C_23  and  C_24
REMARK   11  A    between atoms: N_26  and  O_27
REMARK                            x       y       z     vdW  Elec       q    Type
REMARK                         _______ _______ _______ _____ _____    ______ ____
ROOT
ATOM      1  C   UNL     1       0.357  10.541  19.692  0.00  0.00    +0.000 A 
ATOM      2  C   UNL     1      -0.363  11.453  19.014  0.00  0.00    +0.000 A 
ATOM      3  N   UNL     1      -1.068  12.527  19.571  0.00  0.00    +0.000 N 
ATOM      4  C   UNL     1      -1.602  12.243  20.877  0.00  0.00    +0.000 A 
ATOM      5  C   UNL     1      -2.770  12.881  21.316  0.00  0.00    +0.000 A 
ATOM      6  C   UNL     1      -3.246  12.636  22.601  0.00  0.00    +0.000 A 
ATOM      7  C   UNL     1      -2.550  11.764  23.446  0.00  0.00    +0.000 A 
ATOM      8  C   UNL     1      -1.377  11.124  23.014  0.00  0.00    +0.000 A 
ATOM      9  C   UNL     1      -0.912  11.349  21.720  0.00  0.00    +0.000 A 
ATOM     10  C   UNL     1       0.307  10.670  21.165  0.00  0.00    +0.000 A 
ATOM     11  O   UNL     1       1.211  10.210  21.855  0.00  0.00    +0.000 OA
ENDROOT
BRANCH   1  13
ATOM     12  N   UNL     1       1.652   8.425  19.723  0.00  0.00    +0.000 N 
ATOM     13  C   UNL     1       1.085   9.496  18.940  0.00  0.00    +0.000 C 
ATOM     14  O   UNL     1       1.238   9.551  17.726  0.00  0.00    +0.000 OA
ATOM     15  H   UNL     1       1.538   8.464  20.736  0.00  0.00    +0.000 HD
BRANCH  12  21
ATOM     16  C   UNL     1       1.528   5.411  20.635  0.00  0.00    +0.000 C 
ATOM     17  N   UNL     1       2.223   5.995  19.512  0.00  0.00    +0.000 N 
ATOM     18  N   UNL     1       2.925   5.161  18.734  0.00  0.00    +0.000 NA
ATOM     19  C   UNL     1       3.563   5.940  17.852  0.00  0.00    +0.000 A 
ATOM     20  C   UNL     1       3.212   7.306  18.090  0.00  0.00    +0.000 A 
ATOM     21  C   UNL     1       2.319   7.323  19.149  0.00  0.00    +0.000 A 
BRANCH  19  22
ATOM     22  C   UNL     1       4.473   5.354  16.847  0.00  0.00    +0.000 A 
ATOM     23  C   UNL     1       4.633   3.956  16.781  0.00  0.00    +0.000 A 
ATOM     24  C   UNL     1       5.514   3.367  15.870  0.00  0.00    +0.000 A 
ATOM     25  C   UNL     1       6.248   4.168  14.999  0.00  0.00    +0.000 A 
ATOM     26  C   UNL     1       6.091   5.554  15.039  0.00  0.00    +0.000 A 
ATOM     27  C   UNL     1       5.207   6.143  15.953  0.00  0.00    +0.000 A 
ENDBRANCH  19  22
ENDBRANCH  12  21
ENDBRANCH   1  13
BRANCH   3  28
ATOM     28  C   UNL     1      -0.339  13.824  19.762  0.00  0.00    +0.000 C 
BRANCH  28  29
ATOM     29  C   UNL     1      -0.456  14.768  18.576  0.00  0.00    +0.000 C 
BRANCH  29  30
ATOM     30  C   UNL     1      -0.456  16.237  18.983  0.00  0.00    +0.000 C 
BRANCH  30  31
ATOM     31  C   UNL     1       0.699  16.935  18.277  0.00  0.00    +0.000 C 
BRANCH  31  32
ATOM     32  C   UNL     1       1.907  17.120  19.184  0.00  0.00    +0.000 C 
BRANCH  32  33
ATOM     33  C   UNL     1       3.158  16.573  18.512  0.00  0.00    +0.000 C 
ATOM     34  O   UNL     1       4.160  17.230  18.248  0.00  0.00    +0.000 OA
ATOM     35  N   UNL     1       3.081  15.232  18.235  0.00  0.00    +0.000 N 
ATOM     36  H   UNL     1       2.201  14.746  18.126  0.00  0.00    +0.000 HD
BRANCH  35  37
ATOM     37  O   UNL     1       4.181  14.715  17.507  0.00  0.00    +0.000 OA
ATOM     38  H   UNL     1       3.993  15.024  16.593  0.00  0.00    +0.000 HD
ENDBRANCH  35  37
ENDBRANCH  32  33
ENDBRANCH  31  32
ENDBRANCH  30  31
ENDBRANCH  29  30
ENDBRANCH  28  29
ENDBRANCH   3  28
TORSDOF 10
ENDMDL
MODEL 6
REMARK VINA RESULT:      -8.1      3.045      4.251
REMARK  Name = 
REMARK  11 active torsions:
REMARK  status: ('A' for Active; 'I' for Inactive)
REMARK    1  A    between atoms: C_1  and  N_2
REMARK    2  A    between atoms: C_4  and  C_5
REMARK    3  A    between atoms: C_12  and  N_13
REMARK    4  A    between atoms: C_14  and  C_16
REMARK    5  A    between atoms: N_18  and  C_19
REMARK    6  A    between atoms: C_19  and  C_20
REMARK    7  A    between atoms: C_20  and  C_21
REMARK    8  A    between atoms: C_21  and  C_22
REMARK    9  A    between atoms: C_22  and  C_23
REMARK   10  A    between atoms: C_23  and  C_24
REMARK   11  A    between atoms: N_26  and  O_27
REMARK                            x       y       z     vdW  Elec       q    Type
REMARK                         _______ _______ _______ _____ _____    ______ ____
ROOT
ATOM      1  C   UNL     1      -0.869  12.029  21.077  0.00  0.00    +0.000 A 
ATOM      2  C   UNL     1      -1.642  11.968  22.176  0.00  0.00    +0.000 A 
ATOM      3  N   UNL     1      -2.130  13.062  22.903  0.00  0.00    +0.000 N 
ATOM      4  C   UNL     1      -1.240  14.193  22.898  0.00  0.00    +0.000 A 
ATOM      5  C   UNL     1      -1.227  15.085  23.980  0.00  0.00    +0.000 A 
ATOM      6  C   UNL     1      -0.399  16.202  23.939  0.00  0.00    +0.000 A 
ATOM      7  C   UNL     1       0.404  16.432  22.816  0.00  0.00    +0.000 A 
ATOM      8  C   UNL     1       0.394  15.545  21.728  0.00  0.00    +0.000 A 
ATOM      9  C   UNL     1      -0.416  14.412  21.776  0.00  0.00    +0.000 A 
ATOM     10  C   UNL     1      -0.452  13.391  20.676  0.00  0.00    +0.000 A 
ATOM     11  O   UNL     1      -0.133  13.621  19.515  0.00  0.00    +0.000 OA
ENDROOT
BRANCH   1  13
ATOM     12  N   UNL     1       0.798  10.219  20.766  0.00  0.00    +0.000 N 
ATOM     13  C   UNL     1      -0.482  10.772  20.400  0.00  0.00    +0.000 C 
ATOM     14  O   UNL     1      -1.184  10.247  19.545  0.00  0.00    +0.000 OA
ATOM     15  H   UNL     1       1.362  10.732  21.444  0.00  0.00    +0.000 HD
BRANCH  12  21
ATOM     16  C   UNL     1       1.990   9.658  17.904  0.00  0.00    +0.000 C 
ATOM     17  N   UNL     1       1.854   8.759  19.026  0.00  0.00    +0.000 N 
ATOM     18  N   UNL     1       2.283   7.502  18.851  0.00  0.00    +0.000 NA
ATOM     19  C   UNL     1       1.945   6.847  19.968  0.00  0.00    +0.000 A 
ATOM     20  C   UNL     1       1.305   7.752  20.871  0.00  0.00    +0.000 A 
ATOM     21  C   UNL     1       1.281   8.995  20.259  0.00  0.00    +0.000 A 
BRANCH  19  22
ATOM     22  C   UNL     1       2.234   5.405  20.113  0.00  0.00    +0.000 A 
ATOM     23  C   UNL     1       1.284   4.559  20.720  0.00  0.00    +0.000 A 
ATOM     24  C   UNL     1       1.538   3.198  20.909  0.00  0.00    +0.000 A 
ATOM     25  C   UNL     1       2.748   2.654  20.486  0.00  0.00    +0.000 A 
ATOM     26  C   UNL     1       3.694   3.472  19.870  0.00  0.00    +0.000 A 
ATOM     27  C   UNL     1       3.439   4.837  19.680  0.00  0.00    +0.000 A 
ENDBRANCH  19  22
ENDBRANCH  12  21
ENDBRANCH   1  13
BRANCH   3  28
ATOM     28  C   UNL     1      -3.447  13.647  22.491  0.00  0.00    +0.000 C 
BRANCH  28  29
ATOM     29  C   UNL     1      -4.428  12.619  21.951  0.00  0.00    +0.000 C 
BRANCH  29  30
ATOM     30  C   UNL     1      -4.860  12.902  20.517  0.00  0.00    +0.000 C 
BRANCH  30  31
ATOM     31  C   UNL     1      -4.642  11.644  19.687  0.00  0.00    +0.000 C 
BRANCH  31  32
ATOM     32  C   UNL     1      -4.911  11.873  18.207  0.00  0.00    +0.000 C 
BRANCH  32  33
ATOM     33  C   UNL     1      -3.653  11.599  17.395  0.00  0.00    +0.000 C 
ATOM     34  O   UNL     1      -3.588  10.844  16.430  0.00  0.00    +0.000 OA
ATOM     35  N   UNL     1      -2.562  12.306  17.831  0.00  0.00    +0.000 N 
ATOM     36  H   UNL     1      -2.481  12.659  18.776  0.00  0.00    +0.000 HD
BRANCH  35  37
ATOM     37  O   UNL     1      -1.349  11.989  17.171  0.00  0.00    +0.000 OA
ATOM     38  H   UNL     1      -1.412  11.013  17.074  0.00  0.00    +0.000 HD
ENDBRANCH  35  37
ENDBRANCH  32  33
ENDBRANCH  31  32
ENDBRANCH  30  31
ENDBRANCH  29  30
ENDBRANCH  28  29
ENDBRANCH   3  28
TORSDOF 10
ENDMDL
MODEL 7
REMARK VINA RESULT:      -8.1      3.109      5.064
REMARK  Name = 
REMARK  11 active torsions:
REMARK  status: ('A' for Active; 'I' for Inactive)
REMARK    1  A    between atoms: C_1  and  N_2
REMARK    2  A    between atoms: C_4  and  C_5
REMARK    3  A    between atoms: C_12  and  N_13
REMARK    4  A    between atoms: C_14  and  C_16
REMARK    5  A    between atoms: N_18  and  C_19
REMARK    6  A    between atoms: C_19  and  C_20
REMARK    7  A    between atoms: C_20  and  C_21
REMARK    8  A    between atoms: C_21  and  C_22
REMARK    9  A    between atoms: C_22  and  C_23
REMARK   10  A    between atoms: C_23  and  C_24
REMARK   11  A    between atoms: N_26  and  O_27
REMARK                            x       y       z     vdW  Elec       q    Type
REMARK                         _______ _______ _______ _____ _____    ______ ____
ROOT
ATOM      1  C   UNL     1       0.458  10.574  19.480  0.00  0.00    +0.000 A 
ATOM      2  C   UNL     1      -0.317  11.409  18.765  0.00  0.00    +0.000 A 
ATOM      3  N   UNL     1      -1.058  12.483  19.272  0.00  0.00    +0.000 N 
ATOM      4  C   UNL     1      -1.549  12.258  20.606  0.00  0.00    +0.000 A 
ATOM      5  C   UNL     1      -2.735  12.871  21.034  0.00  0.00    +0.000 A 
ATOM      6  C   UNL     1      -3.171  12.686  22.342  0.00  0.00    +0.000 A 
ATOM      7  C   UNL     1      -2.417  11.901  23.222  0.00  0.00    +0.000 A 
ATOM      8  C   UNL     1      -1.226  11.288  22.802  0.00  0.00    +0.000 A 
ATOM      9  C   UNL     1      -0.800  11.450  21.485  0.00  0.00    +0.000 A 
ATOM     10  C   UNL     1       0.436  10.793  20.943  0.00  0.00    +0.000 A 
ATOM     11  O   UNL     1       1.375  10.418  21.637  0.00  0.00    +0.000 OA
ENDROOT
BRANCH   1  13
ATOM     12  N   UNL     1       1.729   8.445  19.595  0.00  0.00    +0.000 N 
ATOM     13  C   UNL     1       1.217   9.516  18.776  0.00  0.00    +0.000 C 
ATOM     14  O   UNL     1       1.438   9.562  17.572  0.00  0.00    +0.000 OA
ATOM     15  H   UNL     1       1.559   8.493  20.600  0.00  0.00    +0.000 HD
BRANCH  12  21
ATOM     16  C   UNL     1       1.706   5.482  20.666  0.00  0.00    +0.000 C 
ATOM     17  N   UNL     1       2.364   6.024  19.500  0.00  0.00    +0.000 N 
ATOM     18  N   UNL     1       3.074   5.170  18.752  0.00  0.00    +0.000 NA
ATOM     19  C   UNL     1       3.673   5.918  17.819  0.00  0.00    +0.000 A 
ATOM     20  C   UNL     1       3.288   7.285  17.992  0.00  0.00    +0.000 A 
ATOM     21  C   UNL     1       2.415   7.333  19.066  0.00  0.00    +0.000 A 
BRANCH  19  22
ATOM     22  C   UNL     1       4.580   5.305  16.827  0.00  0.00    +0.000 A 
ATOM     23  C   UNL     1       5.235   6.117  15.881  0.00  0.00    +0.000 A 
ATOM     24  C   UNL     1       6.070   5.569  14.904  0.00  0.00    +0.000 A 
ATOM     25  C   UNL     1       6.272   4.192  14.860  0.00  0.00    +0.000 A 
ATOM     26  C   UNL     1       5.645   3.372  15.798  0.00  0.00    +0.000 A 
ATOM     27  C   UNL     1       4.809   3.923  16.778  0.00  0.00    +0.000 A 
ENDBRANCH  19  22
ENDBRANCH  12  21
ENDBRANCH   1  13
BRANCH   3  28
ATOM     28  C   UNL     1      -0.385  13.820  19.364  0.00  0.00    +0.000 C 
BRANCH  28  29
ATOM     29  C   UNL     1       1.009  13.843  18.756  0.00  0.00    +0.000 C 
BRANCH  29  30
ATOM     30  C   UNL     1       1.923  14.876  19.401  0.00  0.00    +0.000 C 
BRANCH  30  31
ATOM     31  C   UNL     1       1.752  16.200  18.668  0.00  0.00    +0.000 C 
BRANCH  31  32
ATOM     32  C   UNL     1       2.830  16.425  17.618  0.00  0.00    +0.000 C 
BRANCH  32  33
ATOM     33  C   UNL     1       4.206  16.429  18.268  0.00  0.00    +0.000 C 
ATOM     34  O   UNL     1       4.616  17.287  19.044  0.00  0.00    +0.000 OA
ATOM     35  N   UNL     1       4.972  15.345  17.923  0.00  0.00    +0.000 N 
ATOM     36  H   UNL     1       4.822  14.818  17.073  0.00  0.00    +0.000 HD
BRANCH  35  37
ATOM     37  O   UNL     1       6.299  15.376  18.420  0.00  0.00    +0.000 OA
ATOM     38  H   UNL     1       6.320  16.228  18.908  0.00  0.00    +0.000 HD
ENDBRANCH  35  37
ENDBRANCH  32  33
ENDBRANCH  31  32
ENDBRANCH  30  31
ENDBRANCH  29  30
ENDBRANCH  28  29
ENDBRANCH   3  28
TORSDOF 10
ENDMDL
MODEL 8
REMARK VINA RESULT:      -8.1      3.747      9.719
REMARK  Name = 
REMARK  11 active torsions:
REMARK  status: ('A' for Active; 'I' for Inactive)
REMARK    1  A    between atoms: C_1  and  N_2
REMARK    2  A    between atoms: C_4  and  C_5
REMARK    3  A    between atoms: C_12  and  N_13
REMARK    4  A    between atoms: C_14  and  C_16
REMARK    5  A    between atoms: N_18  and  C_19
REMARK    6  A    between atoms: C_19  and  C_20
REMARK    7  A    between atoms: C_20  and  C_21
REMARK    8  A    between atoms: C_21  and  C_22
REMARK    9  A    between atoms: C_22  and  C_23
REMARK   10  A    between atoms: C_23  and  C_24
REMARK   11  A    between atoms: N_26  and  O_27
REMARK                            x       y       z     vdW  Elec       q    Type
REMARK                         _______ _______ _______ _____ _____    ______ ____
ROOT
ATOM      1  C   UNL     1       2.246   6.707  19.661  0.00  0.00    +0.000 A 
ATOM      2  C   UNL     1       3.337   6.430  18.926  0.00  0.00    +0.000 A 
ATOM      3  N   UNL     1       3.823   5.152  18.620  0.00  0.00    +0.000 N 
ATOM      4  C   UNL     1       3.579   4.186  19.659  0.00  0.00    +0.000 A 
ATOM      5  C   UNL     1       4.452   3.103  19.833  0.00  0.00    +0.000 A 
ATOM      6  C   UNL     1       4.176   2.148  20.807  0.00  0.00    +0.000 A 
ATOM      7  C   UNL     1       3.027   2.271  21.596  0.00  0.00    +0.000 A 
ATOM      8  C   UNL     1       2.147   3.352  21.425  0.00  0.00    +0.000 A 
ATOM      9  C   UNL     1       2.433   4.322  20.467  0.00  0.00    +0.000 A 
ATOM     10  C   UNL     1       1.569   5.531  20.251  0.00  0.00    +0.000 A 
ATOM     11  O   UNL     1       0.384   5.592  20.559  0.00  0.00    +0.000 OA
ENDROOT
BRANCH   1  13
ATOM     12  N   UNL     1       1.643   8.888  18.642  0.00  0.00    +0.000 N 
ATOM     13  C   UNL     1       1.843   8.119  19.846  0.00  0.00    +0.000 C 
ATOM     14  O   UNL     1       1.723   8.625  20.955  0.00  0.00    +0.000 OA
ATOM     15  H   UNL     1       1.813   8.425  17.749  0.00  0.00    +0.000 HD
BRANCH  12  21
ATOM     16  C   UNL     1      -1.332   9.925  18.646  0.00  0.00    +0.000 C 
ATOM     17  N   UNL     1      -0.103  10.682  18.706  0.00  0.00    +0.000 N 
ATOM     18  N   UNL     1      -0.216  12.015  18.769  0.00  0.00    +0.000 NA
ATOM     19  C   UNL     1       1.035  12.486  18.696  0.00  0.00    +0.000 A 
ATOM     20  C   UNL     1       1.948  11.389  18.610  0.00  0.00    +0.000 A 
ATOM     21  C   UNL     1       1.197  10.226  18.649  0.00  0.00    +0.000 A 
BRANCH  19  22
ATOM     22  C   UNL     1       1.294  13.941  18.699  0.00  0.00    +0.000 A 
ATOM     23  C   UNL     1       2.606  14.418  18.508  0.00  0.00    +0.000 A 
ATOM     24  C   UNL     1       2.895  15.784  18.543  0.00  0.00    +0.000 A 
ATOM     25  C   UNL     1       1.873  16.704  18.763  0.00  0.00    +0.000 A 
ATOM     26  C   UNL     1       0.565  16.252  18.939  0.00  0.00    +0.000 A 
ATOM     27  C   UNL     1       0.276  14.881  18.903  0.00  0.00    +0.000 A 
ENDBRANCH  19  22
ENDBRANCH  12  21
ENDBRANCH   1  13
BRANCH   3  28
ATOM     28  C   UNL     1       3.303   4.480  17.384  0.00  0.00    +0.000 C 
BRANCH  28  29
ATOM     29  C   UNL     1       4.376   4.218  16.338  0.00  0.00    +0.000 C 
BRANCH  29  30
ATOM     30  C   UNL     1       5.185   5.462  15.991  0.00  0.00    +0.000 C 
BRANCH  30  31
ATOM     31  C   UNL     1       6.577   5.027  15.551  0.00  0.00    +0.000 C 
BRANCH  31  32
ATOM     32  C   UNL     1       7.371   4.390  16.682  0.00  0.00    +0.000 C 
BRANCH  32  33
ATOM     33  C   UNL     1       7.554   5.384  17.820  0.00  0.00    +0.000 C 
ATOM     34  O   UNL     1       7.857   6.565  17.682  0.00  0.00    +0.000 OA
ATOM     35  N   UNL     1       7.323   4.840  19.057  0.00  0.00    +0.000 N 
ATOM     36  H   UNL     1       7.400   3.848  19.242  0.00  0.00    +0.000 HD
BRANCH  35  37
ATOM     37  O   UNL     1       7.595   5.706  20.145  0.00  0.00    +0.000 OA
ATOM     38  H   UNL     1       8.527   5.481  20.365  0.00  0.00    +0.000 HD
ENDBRANCH  35  37
ENDBRANCH  32  33
ENDBRANCH  31  32
ENDBRANCH  30  31
ENDBRANCH  29  30
ENDBRANCH  28  29
ENDBRANCH   3  28
TORSDOF 10
ENDMDL
MODEL 9
REMARK VINA RESULT:      -8.1      3.066      9.789
REMARK  Name = 
REMARK  11 active torsions:
REMARK  status: ('A' for Active; 'I' for Inactive)
REMARK    1  A    between atoms: C_1  and  N_2
REMARK    2  A    between atoms: C_4  and  C_5
REMARK    3  A    between atoms: C_12  and  N_13
REMARK    4  A    between atoms: C_14  and  C_16
REMARK    5  A    between atoms: N_18  and  C_19
REMARK    6  A    between atoms: C_19  and  C_20
REMARK    7  A    between atoms: C_20  and  C_21
REMARK    8  A    between atoms: C_21  and  C_22
REMARK    9  A    between atoms: C_22  and  C_23
REMARK   10  A    between atoms: C_23  and  C_24
REMARK   11  A    between atoms: N_26  and  O_27
REMARK                            x       y       z     vdW  Elec       q    Type
REMARK                         _______ _______ _______ _____ _____    ______ ____
ROOT
ATOM      1  C   UNL     1       2.595   6.914  18.810  0.00  0.00    +0.000 A 
ATOM      2  C   UNL     1       3.757   6.671  19.443  0.00  0.00    +0.000 A 
ATOM      3  N   UNL     1       4.469   5.465  19.425  0.00  0.00    +0.000 N 
ATOM      4  C   UNL     1       3.623   4.305  19.330  0.00  0.00    +0.000 A 
ATOM      5  C   UNL     1       4.035   3.084  19.884  0.00  0.00    +0.000 A 
ATOM      6  C   UNL     1       3.230   1.958  19.739  0.00  0.00    +0.000 A 
ATOM      7  C   UNL     1       2.025   2.050  19.034  0.00  0.00    +0.000 A 
ATOM      8  C   UNL     1       1.608   3.268  18.473  0.00  0.00    +0.000 A 
ATOM      9  C   UNL     1       2.400   4.403  18.637  0.00  0.00    +0.000 A 
ATOM     10  C   UNL     1       2.006   5.752  18.109  0.00  0.00    +0.000 A 
ATOM     11  O   UNL     1       1.225   5.924  17.180  0.00  0.00    +0.000 OA
ENDROOT
BRANCH   1  13
ATOM     12  N   UNL     1       1.062   8.485  19.966  0.00  0.00    +0.000 N 
ATOM     13  C   UNL     1       2.000   8.266  18.893  0.00  0.00    +0.000 C 
ATOM     14  O   UNL     1       2.254   9.143  18.077  0.00  0.00    +0.000 OA
ATOM     15  H   UNL     1       0.849   7.699  20.580  0.00  0.00    +0.000 HD
BRANCH  12  21
ATOM     16  C   UNL     1      -1.076   9.982  18.199  0.00  0.00    +0.000 C 
ATOM     17  N   UNL     1      -0.517  10.367  19.475  0.00  0.00    +0.000 N 
ATOM     18  N   UNL     1      -0.948  11.520  20.001  0.00  0.00    +0.000 NA
ATOM     19  C   UNL     1      -0.209  11.713  21.101  0.00  0.00    +0.000 A 
ATOM     20  C   UNL     1       0.692  10.614  21.263  0.00  0.00    +0.000 A 
ATOM     21  C   UNL     1       0.459   9.735  20.217  0.00  0.00    +0.000 A 
BRANCH  19  22
ATOM     22  C   UNL     1      -0.388  12.925  21.927  0.00  0.00    +0.000 A 
ATOM     23  C   UNL     1       0.390  14.069  21.667  0.00  0.00    +0.000 A 
ATOM     24  C   UNL     1       0.276  15.221  22.451  0.00  0.00    +0.000 A 
ATOM     25  C   UNL     1      -0.628  15.251  23.509  0.00  0.00    +0.000 A 
ATOM     26  C   UNL     1      -1.418  14.132  23.774  0.00  0.00    +0.000 A 
ATOM     27  C   UNL     1      -1.303  12.978  22.987  0.00  0.00    +0.000 A 
ENDBRANCH  19  22
ENDBRANCH  12  21
ENDBRANCH   1  13
BRANCH   3  28
ATOM     28  C   UNL     1       5.476   5.259  18.332  0.00  0.00    +0.000 C 
BRANCH  28  29
ATOM     29  C   UNL     1       5.682   6.485  17.456  0.00  0.00    +0.000 C 
BRANCH  29  30
ATOM     30  C   UNL     1       5.126   6.310  16.048  0.00  0.00    +0.000 C 
BRANCH  30  31
ATOM     31  C   UNL     1       4.881   4.827  15.804  0.00  0.00    +0.000 C 
BRANCH  31  32
ATOM     32  C   UNL     1       5.624   4.310  14.581  0.00  0.00    +0.000 C 
BRANCH  32  33
ATOM     33  C   UNL     1       7.077   4.760  14.620  0.00  0.00    +0.000 C 
ATOM     34  O   UNL     1       7.845   4.582  15.560  0.00  0.00    +0.000 OA
ATOM     35  N   UNL     1       7.482   5.385  13.468  0.00  0.00    +0.000 N 
ATOM     36  H   UNL     1       6.835   5.836  12.834  0.00  0.00    +0.000 HD
BRANCH  35  37
ATOM     37  O   UNL     1       8.794   5.918  13.514  0.00  0.00    +0.000 OA
ATOM     38  H   UNL     1       9.307   5.259  12.995  0.00  0.00    +0.000 HD
ENDBRANCH  35  37
ENDBRANCH  32  33
ENDBRANCH  31  32
ENDBRANCH  30  31
ENDBRANCH  29  30
ENDBRANCH  28  29
ENDBRANCH   3  28
TORSDOF 10
ENDMDL
