MODEL 1
REMARK VINA RESULT:      -7.4      0.000      0.000
REMARK  Name = 
REMARK  7 active torsions:
REMARK  status: ('A' for Active; 'I' for Inactive)
REMARK    1  A    between atoms: C_1  and  C_2
REMARK    2  A    between atoms: C_2  and  C_3
REMARK    3  A    between atoms: C_2  and  C_4
REMARK    4  A    between atoms: C_8  and  C_9
REMARK    5  A    between atoms: N_11  and  C_12
REMARK    6  A    between atoms: C_12  and  C_13
REMARK    7  A    between atoms: C_12  and  C_14
REMARK                            x       y       z     vdW  Elec       q    Type
REMARK                         _______ _______ _______ _____ _____    ______ ____
ROOT
ATOM      1  C   UNL     1       4.822   4.785  19.125  0.00  0.00    +0.000 C 
ATOM      2  O   UNL     1       5.415   3.742  19.382  0.00  0.00    +0.000 OA
ATOM      3  N   UNL     1       5.370   5.741  18.287  0.00  0.00    +0.000 N 
ATOM      4  H   UNL     1       4.831   6.588  18.160  0.00  0.00    +0.000 HD
ENDROOT
BRANCH   1   9
ATOM      5  C   UNL     1       2.501   4.326  20.243  0.00  0.00    +0.000 A 
ATOM      6  N   UNL     1       1.358   5.033  20.633  0.00  0.00    +0.000 NA
ATOM      7  C   UNL     1       1.472   6.301  20.344  0.00  0.00    +0.000 A 
ATOM      8  S   UNL     1       2.931   6.758  19.591  0.00  0.00    +0.000 S 
ATOM      9  C   UNL     1       3.495   5.114  19.654  0.00  0.00    +0.000 A 
BRANCH   5  11
ATOM     10  C   UNL     1       1.598   2.498  21.778  0.00  0.00    +0.000 C 
ATOM     11  C   UNL     1       2.416   2.843  20.537  0.00  0.00    +0.000 C 
ATOM     12  C   UNL     1       2.023   1.999  19.330  0.00  0.00    +0.000 C 
ENDBRANCH   5  11
ENDBRANCH   1   9
BRANCH   3  13
ATOM     13  C   UNL     1       6.644   5.701  17.569  0.00  0.00    +0.000 C 
ATOM     14  C   UNL     1       7.396   7.030  17.526  0.00  0.00    +0.000 C 
BRANCH  13  15
ATOM     15  C   UNL     1       6.599   5.020  16.208  0.00  0.00    +0.000 A 
ATOM     16  C   UNL     1       5.660   4.034  15.906  0.00  0.00    +0.000 A 
ATOM     17  C   UNL     1       5.578   3.547  14.599  0.00  0.00    +0.000 A 
ATOM     18  C   UNL     1       6.433   4.049  13.628  0.00  0.00    +0.000 A 
ATOM     19 CL   UNL     1       6.329   3.512  12.002  0.00  0.00    +0.000 Cl
ATOM     20  C   UNL     1       7.357   5.005  14.008  0.00  0.00    +0.000 A 
ATOM     21  N   UNL     1       7.461   5.498  15.266  0.00  0.00    +0.000 NA
ENDBRANCH  13  15
ENDBRANCH   3  13
TORSDOF 4
ENDMDL
MODEL 2
REMARK VINA RESULT:      -7.3      3.534      7.053
REMARK  Name = 
REMARK  7 active torsions:
REMARK  status: ('A' for Active; 'I' for Inactive)
REMARK    1  A    between atoms: C_1  and  C_2
REMARK    2  A    between atoms: C_2  and  C_3
REMARK    3  A    between atoms: C_2  and  C_4
REMARK    4  A    between atoms: C_8  and  C_9
REMARK    5  A    between atoms: N_11  and  C_12
REMARK    6  A    between atoms: C_12  and  C_13
REMARK    7  A    between atoms: C_12  and  C_14
REMARK                            x       y       z     vdW  Elec       q    Type
REMARK                         _______ _______ _______ _____ _____    ______ ____
ROOT
ATOM      1  C   UNL     1       4.922   4.684  17.916  0.00  0.00    +0.000 C 
ATOM      2  O   UNL     1       5.063   3.795  18.750  0.00  0.00    +0.000 OA
ATOM      3  N   UNL     1       3.880   5.592  17.994  0.00  0.00    +0.000 N 
ATOM      4  H   UNL     1       3.817   6.267  17.244  0.00  0.00    +0.000 HD
ENDROOT
BRANCH   1   9
ATOM      5  C   UNL     1       6.998   5.639  16.640  0.00  0.00    +0.000 A 
ATOM      6  N   UNL     1       7.592   5.554  15.377  0.00  0.00    +0.000 NA
ATOM      7  C   UNL     1       6.901   4.776  14.587  0.00  0.00    +0.000 A 
ATOM      8  S   UNL     1       5.501   4.088  15.271  0.00  0.00    +0.000 S 
ATOM      9  C   UNL     1       5.831   4.883  16.782  0.00  0.00    +0.000 A 
BRANCH   5  11
ATOM     10  C   UNL     1       7.297   8.001  17.559  0.00  0.00    +0.000 C 
ATOM     11  C   UNL     1       7.748   6.544  17.594  0.00  0.00    +0.000 C 
ATOM     12  C   UNL     1       7.838   6.000  19.016  0.00  0.00    +0.000 C 
ENDBRANCH   5  11
ENDBRANCH   1   9
BRANCH   3  13
ATOM     13  C   UNL     1       2.836   5.695  19.015  0.00  0.00    +0.000 C 
ATOM     14  C   UNL     1       1.728   4.650  18.905  0.00  0.00    +0.000 C 
BRANCH  13  15
ATOM     15  C   UNL     1       2.287   7.097  19.238  0.00  0.00    +0.000 A 
ATOM     16  C   UNL     1       2.190   8.027  18.204  0.00  0.00    +0.000 A 
ATOM     17  C   UNL     1       1.549   9.246  18.438  0.00  0.00    +0.000 A 
ATOM     18  C   UNL     1       1.025   9.511  19.695  0.00  0.00    +0.000 A 
ATOM     19 CL   UNL     1       0.187  10.975  20.009  0.00  0.00    +0.000 Cl
ATOM     20  C   UNL     1       1.183   8.553  20.680  0.00  0.00    +0.000 A 
ATOM     21  N   UNL     1       1.799   7.361  20.484  0.00  0.00    +0.000 NA
ENDBRANCH  13  15
ENDBRANCH   3  13
TORSDOF 4
ENDMDL
MODEL 3
REMARK VINA RESULT:      -7.3      1.235      2.441
REMARK  Name = 
REMARK  7 active torsions:
REMARK  status: ('A' for Active; 'I' for Inactive)
REMARK    1  A    between atoms: C_1  and  C_2
REMARK    2  A    between atoms: C_2  and  C_3
REMARK    3  A    between atoms: C_2  and  C_4
REMARK    4  A    between atoms: C_8  and  C_9
REMARK    5  A    between atoms: N_11  and  C_12
REMARK    6  A    between atoms: C_12  and  C_13
REMARK    7  A    between atoms: C_12  and  C_14
REMARK                            x       y       z     vdW  Elec       q    Type
REMARK                         _______ _______ _______ _____ _____    ______ ____
ROOT
ATOM      1  C   UNL     1       4.985   4.869  19.273  0.00  0.00    +0.000 C 
ATOM      2  O   UNL     1       5.942   4.463  19.925  0.00  0.00    +0.000 OA
ATOM      3  N   UNL     1       5.155   5.494  18.050  0.00  0.00    +0.000 N 
ATOM      4  H   UNL     1       4.316   5.832  17.598  0.00  0.00    +0.000 HD
ENDROOT
BRANCH   1   9
ATOM      5  C   UNL     1       2.564   5.658  19.877  0.00  0.00    +0.000 A 
ATOM      6  N   UNL     1       1.349   5.108  20.300  0.00  0.00    +0.000 NA
ATOM      7  C   UNL     1       1.449   3.815  20.454  0.00  0.00    +0.000 A 
ATOM      8  S   UNL     1       2.980   3.149  20.114  0.00  0.00    +0.000 S 
ATOM      9  C   UNL     1       3.591   4.724  19.705  0.00  0.00    +0.000 A 
BRANCH   5  11
ATOM     10  C   UNL     1       2.331   7.612  18.254  0.00  0.00    +0.000 C 
ATOM     11  C   UNL     1       2.511   7.160  19.699  0.00  0.00    +0.000 C 
ATOM     12  C   UNL     1       1.544   7.858  20.650  0.00  0.00    +0.000 C 
ENDBRANCH   5  11
ENDBRANCH   1   9
BRANCH   3  13
ATOM     13  C   UNL     1       6.399   5.752  17.324  0.00  0.00    +0.000 C 
ATOM     14  C   UNL     1       6.826   7.219  17.287  0.00  0.00    +0.000 C 
BRANCH  13  15
ATOM     15  C   UNL     1       6.501   5.088  15.958  0.00  0.00    +0.000 A 
ATOM     16  C   UNL     1       5.559   4.160  15.515  0.00  0.00    +0.000 A 
ATOM     17  C   UNL     1       5.628   3.690  14.202  0.00  0.00    +0.000 A 
ATOM     18  C   UNL     1       6.633   4.152  13.363  0.00  0.00    +0.000 A 
ATOM     19 CL   UNL     1       6.720   3.637  11.729  0.00  0.00    +0.000 Cl
ATOM     20  C   UNL     1       7.548   5.051  13.880  0.00  0.00    +0.000 A 
ATOM     21  N   UNL     1       7.508   5.525  15.149  0.00  0.00    +0.000 NA
ENDBRANCH  13  15
ENDBRANCH   3  13
TORSDOF 4
ENDMDL
MODEL 4
REMARK VINA RESULT:      -7.1      3.379      6.937
REMARK  Name = 
REMARK  7 active torsions:
REMARK  status: ('A' for Active; 'I' for Inactive)
REMARK    1  A    between atoms: C_1  and  C_2
REMARK    2  A    between atoms: C_2  and  C_3
REMARK    3  A    between atoms: C_2  and  C_4
REMARK    4  A    between atoms: C_8  and  C_9
REMARK    5  A    between atoms: N_11  and  C_12
REMARK    6  A    between atoms: C_12  and  C_13
REMARK    7  A    between atoms: C_12  and  C_14
REMARK                            x       y       z     vdW  Elec       q    Type
REMARK                         _______ _______ _______ _____ _____    ______ ____
ROOT
ATOM      1  C   UNL     1       5.142   4.526  18.126  0.00  0.00    +0.000 C 
ATOM      2  O   UNL     1       5.487   3.787  19.043  0.00  0.00    +0.000 OA
ATOM      3  N   UNL     1       3.928   5.190  18.150  0.00  0.00    +0.000 N 
ATOM      4  H   UNL     1       3.707   5.748  17.336  0.00  0.00    +0.000 HD
ENDROOT
BRANCH   1   9
ATOM      5  C   UNL     1       7.056   5.640  16.732  0.00  0.00    +0.000 A 
ATOM      6  N   UNL     1       7.586   5.590  15.438  0.00  0.00    +0.000 NA
ATOM      7  C   UNL     1       6.923   4.747  14.693  0.00  0.00    +0.000 A 
ATOM      8  S   UNL     1       5.626   3.949  15.458  0.00  0.00    +0.000 S 
ATOM      9  C   UNL     1       5.967   4.788  16.943  0.00  0.00    +0.000 A 
BRANCH   5  11
ATOM     10  C   UNL     1       7.255   8.048  17.550  0.00  0.00    +0.000 C 
ATOM     11  C   UNL     1       7.776   6.617  17.636  0.00  0.00    +0.000 C 
ATOM     12  C   UNL     1       7.913   6.135  19.076  0.00  0.00    +0.000 C 
ENDBRANCH   5  11
ENDBRANCH   1   9
BRANCH   3  13
ATOM     13  C   UNL     1       2.904   5.180  19.194  0.00  0.00    +0.000 C 
ATOM     14  C   UNL     1       1.889   4.043  19.084  0.00  0.00    +0.000 C 
BRANCH  13  15
ATOM     15  C   UNL     1       2.238   6.523  19.462  0.00  0.00    +0.000 A 
ATOM     16  C   UNL     1       1.704   6.847  20.709  0.00  0.00    +0.000 A 
ATOM     17  C   UNL     1       1.233   8.143  20.933  0.00  0.00    +0.000 A 
ATOM     18  C   UNL     1       1.300   9.081  19.912  0.00  0.00    +0.000 A 
ATOM     19 CL   UNL     1       0.778  10.695  20.164  0.00  0.00    +0.000 Cl
ATOM     20  C   UNL     1       1.816   8.678  18.694  0.00  0.00    +0.000 A 
ATOM     21  N   UNL     1       2.281   7.429  18.444  0.00  0.00    +0.000 NA
ENDBRANCH  13  15
ENDBRANCH   3  13
TORSDOF 4
ENDMDL
MODEL 5
REMARK VINA RESULT:      -7.0      1.171      1.206
REMARK  Name = 
REMARK  7 active torsions:
REMARK  status: ('A' for Active; 'I' for Inactive)
REMARK    1  A    between atoms: C_1  and  C_2
REMARK    2  A    between atoms: C_2  and  C_3
REMARK    3  A    between atoms: C_2  and  C_4
REMARK    4  A    between atoms: C_8  and  C_9
REMARK    5  A    between atoms: N_11  and  C_12
REMARK    6  A    between atoms: C_12  and  C_13
REMARK    7  A    between atoms: C_12  and  C_14
REMARK                            x       y       z     vdW  Elec       q    Type
REMARK                         _______ _______ _______ _____ _____    ______ ____
ROOT
ATOM      1  C   UNL     1       4.300   6.198  18.151  0.00  0.00    +0.000 C 
ATOM      2  O   UNL     1       4.103   6.823  17.114  0.00  0.00    +0.000 OA
ATOM      3  N   UNL     1       5.534   5.641  18.437  0.00  0.00    +0.000 N 
ATOM      4  H   UNL     1       5.598   5.110  19.295  0.00  0.00    +0.000 HD
ENDROOT
BRANCH   1   9
ATOM      5  C   UNL     1       2.902   4.863  19.916  0.00  0.00    +0.000 A 
ATOM      6  N   UNL     1       1.864   5.085  20.827  0.00  0.00    +0.000 NA
ATOM      7  C   UNL     1       1.457   6.324  20.780  0.00  0.00    +0.000 A 
ATOM      8  S   UNL     1       2.264   7.323  19.659  0.00  0.00    +0.000 S 
ATOM      9  C   UNL     1       3.275   5.992  19.180  0.00  0.00    +0.000 A 
BRANCH   5  11
ATOM     10  C   UNL     1       2.905   2.597  21.088  0.00  0.00    +0.000 C 
ATOM     11  C   UNL     1       3.402   3.434  19.914  0.00  0.00    +0.000 C 
ATOM     12  C   UNL     1       3.223   2.722  18.578  0.00  0.00    +0.000 C 
ENDBRANCH   5  11
ENDBRANCH   1   9
BRANCH   3  13
ATOM     13  C   UNL     1       6.766   5.701  17.650  0.00  0.00    +0.000 C 
ATOM     14  C   UNL     1       7.406   7.086  17.567  0.00  0.00    +0.000 C 
BRANCH  13  15
ATOM     15  C   UNL     1       6.700   5.015  16.292  0.00  0.00    +0.000 A 
ATOM     16  C   UNL     1       5.825   3.959  16.040  0.00  0.00    +0.000 A 
ATOM     17  C   UNL     1       5.710   3.463  14.739  0.00  0.00    +0.000 A 
ATOM     18  C   UNL     1       6.471   4.026  13.724  0.00  0.00    +0.000 A 
ATOM     19 CL   UNL     1       6.321   3.479  12.105  0.00  0.00    +0.000 Cl
ATOM     20  C   UNL     1       7.337   5.052  14.055  0.00  0.00    +0.000 A 
ATOM     21  N   UNL     1       7.471   5.555  15.306  0.00  0.00    +0.000 NA
ENDBRANCH  13  15
ENDBRANCH   3  13
TORSDOF 4
ENDMDL
MODEL 6
REMARK VINA RESULT:      -6.9      1.500      2.763
REMARK  Name = 
REMARK  7 active torsions:
REMARK  status: ('A' for Active; 'I' for Inactive)
REMARK    1  A    between atoms: C_1  and  C_2
REMARK    2  A    between atoms: C_2  and  C_3
REMARK    3  A    between atoms: C_2  and  C_4
REMARK    4  A    between atoms: C_8  and  C_9
REMARK    5  A    between atoms: N_11  and  C_12
REMARK    6  A    between atoms: C_12  and  C_13
REMARK    7  A    between atoms: C_12  and  C_14
REMARK                            x       y       z     vdW  Elec       q    Type
REMARK                         _______ _______ _______ _____ _____    ______ ____
ROOT
ATOM      1  C   UNL     1       4.312   5.969  18.206  0.00  0.00    +0.000 C 
ATOM      2  O   UNL     1       4.081   6.649  17.211  0.00  0.00    +0.000 OA
ATOM      3  N   UNL     1       5.571   5.447  18.450  0.00  0.00    +0.000 N 
ATOM      4  H   UNL     1       5.664   4.867  19.273  0.00  0.00    +0.000 HD
ENDROOT
BRANCH   1   9
ATOM      5  C   UNL     1       2.394   6.463  19.917  0.00  0.00    +0.000 A 
ATOM      6  N   UNL     1       1.580   5.770  20.820  0.00  0.00    +0.000 NA
ATOM      7  C   UNL     1       1.867   4.496  20.826  0.00  0.00    +0.000 A 
ATOM      8  S   UNL     1       3.116   4.018  19.770  0.00  0.00    +0.000 S 
ATOM      9  C   UNL     1       3.306   5.658  19.227  0.00  0.00    +0.000 A 
BRANCH   5  11
ATOM     10  C   UNL     1       1.641   8.466  18.527  0.00  0.00    +0.000 C 
ATOM     11  C   UNL     1       2.116   7.951  19.882  0.00  0.00    +0.000 C 
ATOM     12  C   UNL     1       1.237   8.439  21.028  0.00  0.00    +0.000 C 
ENDBRANCH   5  11
ENDBRANCH   1   9
BRANCH   3  13
ATOM     13  C   UNL     1       6.792   5.607  17.660  0.00  0.00    +0.000 C 
ATOM     14  C   UNL     1       7.356   7.026  17.633  0.00  0.00    +0.000 C 
BRANCH  13  15
ATOM     15  C   UNL     1       6.754   4.975  16.275  0.00  0.00    +0.000 A 
ATOM     16  C   UNL     1       5.899   3.917  15.969  0.00  0.00    +0.000 A 
ATOM     17  C   UNL     1       5.808   3.474  14.647  0.00  0.00    +0.000 A 
ATOM     18  C   UNL     1       6.573   4.089  13.666  0.00  0.00    +0.000 A 
ATOM     19 CL   UNL     1       6.452   3.606  12.024  0.00  0.00    +0.000 Cl
ATOM     20  C   UNL     1       7.419   5.113  14.049  0.00  0.00    +0.000 A 
ATOM     21  N   UNL     1       7.529   5.567  15.322  0.00  0.00    +0.000 NA
ENDBRANCH  13  15
ENDBRANCH   3  13
TORSDOF 4
ENDMDL
MODEL 7
REMARK VINA RESULT:      -6.9      0.980      1.306
REMARK  Name = 
REMARK  7 active torsions:
REMARK  status: ('A' for Active; 'I' for Inactive)
REMARK    1  A    between atoms: C_1  and  C_2
REMARK    2  A    between atoms: C_2  and  C_3
REMARK    3  A    between atoms: C_2  and  C_4
REMARK    4  A    between atoms: C_8  and  C_9
REMARK    5  A    between atoms: N_11  and  C_12
REMARK    6  A    between atoms: C_12  and  C_13
REMARK    7  A    between atoms: C_12  and  C_14
REMARK                            x       y       z     vdW  Elec       q    Type
REMARK                         _______ _______ _______ _____ _____    ______ ____
ROOT
ATOM      1  C   UNL     1       5.088   5.124  19.192  0.00  0.00    +0.000 C 
ATOM      2  O   UNL     1       6.061   4.850  19.888  0.00  0.00    +0.000 OA
ATOM      3  N   UNL     1       5.234   5.648  17.919  0.00  0.00    +0.000 N 
ATOM      4  H   UNL     1       4.380   5.881  17.430  0.00  0.00    +0.000 HD
ENDROOT
BRANCH   1   9
ATOM      5  C   UNL     1       2.948   3.756  19.823  0.00  0.00    +0.000 A 
ATOM      6  N   UNL     1       1.637   3.985  20.253  0.00  0.00    +0.000 NA
ATOM      7  C   UNL     1       1.398   5.264  20.363  0.00  0.00    +0.000 A 
ATOM      8  S   UNL     1       2.697   6.293  19.967  0.00  0.00    +0.000 S 
ATOM      9  C   UNL     1       3.701   4.917  19.621  0.00  0.00    +0.000 A 
BRANCH   5  11
ATOM     10  C   UNL     1       3.386   1.828  18.210  0.00  0.00    +0.000 C 
ATOM     11  C   UNL     1       3.276   2.287  19.660  0.00  0.00    +0.000 C 
ATOM     12  C   UNL     1       4.458   1.824  20.506  0.00  0.00    +0.000 C 
ENDBRANCH   5  11
ENDBRANCH   1   9
BRANCH   3  13
ATOM     13  C   UNL     1       6.468   5.931  17.186  0.00  0.00    +0.000 C 
ATOM     14  C   UNL     1       6.842   7.410  17.109  0.00  0.00    +0.000 C 
BRANCH  13  15
ATOM     15  C   UNL     1       6.594   5.234  15.838  0.00  0.00    +0.000 A 
ATOM     16  C   UNL     1       5.653   4.304  15.396  0.00  0.00    +0.000 A 
ATOM     17  C   UNL     1       5.747   3.804  14.095  0.00  0.00    +0.000 A 
ATOM     18  C   UNL     1       6.775   4.236  13.269  0.00  0.00    +0.000 A 
ATOM     19 CL   UNL     1       6.895   3.683  11.650  0.00  0.00    +0.000 Cl
ATOM     20  C   UNL     1       7.687   5.138  13.786  0.00  0.00    +0.000 A 
ATOM     21  N   UNL     1       7.623   5.643  15.043  0.00  0.00    +0.000 NA
ENDBRANCH  13  15
ENDBRANCH   3  13
TORSDOF 4
ENDMDL
MODEL 8
REMARK VINA RESULT:      -6.9      3.496      6.990
REMARK  Name = 
REMARK  7 active torsions:
REMARK  status: ('A' for Active; 'I' for Inactive)
REMARK    1  A    between atoms: C_1  and  C_2
REMARK    2  A    between atoms: C_2  and  C_3
REMARK    3  A    between atoms: C_2  and  C_4
REMARK    4  A    between atoms: C_8  and  C_9
REMARK    5  A    between atoms: N_11  and  C_12
REMARK    6  A    between atoms: C_12  and  C_13
REMARK    7  A    between atoms: C_12  and  C_14
REMARK                            x       y       z     vdW  Elec       q    Type
REMARK                         _______ _______ _______ _____ _____    ______ ____
ROOT
ATOM      1  C   UNL     1       4.945   4.302  18.019  0.00  0.00    +0.000 C 
ATOM      2  O   UNL     1       5.245   3.569  18.956  0.00  0.00    +0.000 OA
ATOM      3  N   UNL     1       3.668   4.821  17.886  0.00  0.00    +0.000 N 
ATOM      4  H   UNL     1       3.497   5.384  17.063  0.00  0.00    +0.000 HD
ENDROOT
BRANCH   1   9
ATOM      5  C   UNL     1       6.862   5.711  16.929  0.00  0.00    +0.000 A 
ATOM      6  N   UNL     1       7.578   5.770  15.729  0.00  0.00    +0.000 NA
ATOM      7  C   UNL     1       7.162   4.858  14.892  0.00  0.00    +0.000 A 
ATOM      8  S   UNL     1       5.897   3.865  15.452  0.00  0.00    +0.000 S 
ATOM      9  C   UNL     1       5.889   4.707  16.973  0.00  0.00    +0.000 A 
BRANCH   5  11
ATOM     10  C   UNL     1       8.112   6.212  19.097  0.00  0.00    +0.000 C 
ATOM     11  C   UNL     1       7.291   6.760  17.933  0.00  0.00    +0.000 C 
ATOM     12  C   UNL     1       7.932   7.991  17.301  0.00  0.00    +0.000 C 
ENDBRANCH   5  11
ENDBRANCH   1   9
BRANCH   3  13
ATOM     13  C   UNL     1       2.517   4.647  18.772  0.00  0.00    +0.000 C 
ATOM     14  C   UNL     1       1.382   3.808  18.190  0.00  0.00    +0.000 C 
BRANCH  13  15
ATOM     15  C   UNL     1       2.011   5.922  19.433  0.00  0.00    +0.000 A 
ATOM     16  C   UNL     1       1.461   5.922  20.714  0.00  0.00    +0.000 A 
ATOM     17  C   UNL     1       1.144   7.139  21.322  0.00  0.00    +0.000 A 
ATOM     18  C   UNL     1       1.378   8.324  20.639  0.00  0.00    +0.000 A 
ATOM     19 CL   UNL     1       1.049   9.841  21.370  0.00  0.00    +0.000 Cl
ATOM     20  C   UNL     1       1.900   8.245  19.361  0.00  0.00    +0.000 A 
ATOM     21  N   UNL     1       2.218   7.080  18.744  0.00  0.00    +0.000 NA
ENDBRANCH  13  15
ENDBRANCH   3  13
TORSDOF 4
ENDMDL
MODEL 9
REMARK VINA RESULT:      -6.8      3.586      6.946
REMARK  Name = 
REMARK  7 active torsions:
REMARK  status: ('A' for Active; 'I' for Inactive)
REMARK    1  A    between atoms: C_1  and  C_2
REMARK    2  A    between atoms: C_2  and  C_3
REMARK    3  A    between atoms: C_2  and  C_4
REMARK    4  A    between atoms: C_8  and  C_9
REMARK    5  A    between atoms: N_11  and  C_12
REMARK    6  A    between atoms: C_12  and  C_13
REMARK    7  A    between atoms: C_12  and  C_14
REMARK                            x       y       z     vdW  Elec       q    Type
REMARK                         _______ _______ _______ _____ _____    ______ ____
ROOT
ATOM      1  C   UNL     1       4.134   5.142  17.473  0.00  0.00    +0.000 C 
ATOM      2  O   UNL     1       3.152   4.469  17.178  0.00  0.00    +0.000 OA
ATOM      3  N   UNL     1       4.158   5.926  18.614  0.00  0.00    +0.000 N 
ATOM      4  H   UNL     1       4.992   6.479  18.760  0.00  0.00    +0.000 HD
ENDROOT
BRANCH   1   9
ATOM      5  C   UNL     1       6.599   5.796  16.884  0.00  0.00    +0.000 A 
ATOM      6  N   UNL     1       7.537   5.574  15.870  0.00  0.00    +0.000 NA
ATOM      7  C   UNL     1       7.034   4.827  14.924  0.00  0.00    +0.000 A 
ATOM      8  S   UNL     1       5.421   4.331  15.155  0.00  0.00    +0.000 S 
ATOM      9  C   UNL     1       5.363   5.176  16.673  0.00  0.00    +0.000 A 
BRANCH   5  11
ATOM     10  C   UNL     1       7.954   5.931  19.042  0.00  0.00    +0.000 C 
ATOM     11  C   UNL     1       7.122   6.674  18.001  0.00  0.00    +0.000 C 
ATOM     12  C   UNL     1       7.807   7.946  17.513  0.00  0.00    +0.000 C 
ENDBRANCH   5  11
ENDBRANCH   1   9
BRANCH   3  13
ATOM     13  C   UNL     1       3.123   6.079  19.636  0.00  0.00    +0.000 C 
ATOM     14  C   UNL     1       2.300   4.821  19.907  0.00  0.00    +0.000 C 
BRANCH  13  15
ATOM     15  C   UNL     1       2.250   7.319  19.492  0.00  0.00    +0.000 A 
ATOM     16  C   UNL     1       1.572   7.874  20.577  0.00  0.00    +0.000 A 
ATOM     17  C   UNL     1       0.902   9.089  20.414  0.00  0.00    +0.000 A 
ATOM     18  C   UNL     1       0.919   9.718  19.177  0.00  0.00    +0.000 A 
ATOM     19 CL   UNL     1       0.151  11.235  18.950  0.00  0.00    +0.000 Cl
ATOM     20  C   UNL     1       1.589   9.094  18.141  0.00  0.00    +0.000 A 
ATOM     21  N   UNL     1       2.249   7.916  18.267  0.00  0.00    +0.000 NA
ENDBRANCH  13  15
ENDBRANCH   3  13
TORSDOF 4
ENDMDL
