MODEL 1
REMARK VINA RESULT:      -8.0      0.000      0.000
REMARK  Name = 
REMARK  7 active torsions:
REMARK  status: ('A' for Active; 'I' for Inactive)
REMARK    1  A    between atoms: C_2  and  C_3
REMARK    2  A    between atoms: C_6  and  C_7
REMARK    3  A    between atoms: C_16  and  O_17
REMARK    4  A    between atoms: O_17  and  C_18
REMARK    5  A    between atoms: C_18  and  C_19
REMARK    6  A    between atoms: C_19  and  C_20
REMARK    7  A    between atoms: C_20  and  N_21
REMARK                            x       y       z     vdW  Elec       q    Type
REMARK                         _______ _______ _______ _____ _____    ______ ____
ROOT
ATOM      1  C   UNL     1      -0.609  11.124  22.397  0.00  0.00    +0.000 A 
ATOM      2  N   UNL     1      -0.344  10.327  23.458  0.00  0.00    +0.000 NA
ATOM      3  N   UNL     1       0.369   9.283  22.955  0.00  0.00    +0.000 N 
ATOM      4  C   UNL     1       0.584   9.420  21.634  0.00  0.00    +0.000 A 
ATOM      5  C   UNL     1      -0.018  10.582  21.241  0.00  0.00    +0.000 A 
ATOM      6  C   UNL     1       0.152  10.884  19.793  0.00  0.00    +0.000 C 
ATOM      7  C   UNL     1       0.963   9.631  19.429  0.00  0.00    +0.000 A 
ATOM      8  C   UNL     1       1.428   9.304  18.169  0.00  0.00    +0.000 A 
ATOM      9  C   UNL     1       2.162   8.123  18.023  0.00  0.00    +0.000 A 
ATOM     10  C   UNL     1       2.433   7.287  19.128  0.00  0.00    +0.000 A 
ATOM     11  C   UNL     1       1.937   7.606  20.401  0.00  0.00    +0.000 A 
ATOM     12  C   UNL     1       1.218   8.776  20.533  0.00  0.00    +0.000 A 
ATOM     13  H   UNL     1       0.661   8.542  23.583  0.00  0.00    +0.000 HD
ENDROOT
BRANCH   1  17
ATOM     14  C   UNL     1      -2.769  14.728  22.792  0.00  0.00    +0.000 A 
ATOM     15  C   UNL     1      -3.489  13.549  22.637  0.00  0.00    +0.000 A 
ATOM     16  C   UNL     1      -2.784  12.350  22.495  0.00  0.00    +0.000 A 
ATOM     17  C   UNL     1      -1.388  12.353  22.517  0.00  0.00    +0.000 A 
ATOM     18  C   UNL     1      -0.765  13.591  22.668  0.00  0.00    +0.000 A 
ATOM     19  N   UNL     1      -1.416  14.774  22.812  0.00  0.00    +0.000 NA
BRANCH  14  21
ATOM     20  N   UNL     1      -3.984  17.005  23.101  0.00  0.00    +0.000 NA
ATOM     21  C   UNL     1      -3.442  15.991  22.942  0.00  0.00    +0.000 C 
ENDBRANCH  14  21
ENDBRANCH   1  17
BRANCH  10  22
ATOM     22  O   UNL     1       3.135   6.109  19.044  0.00  0.00    +0.000 OA
BRANCH  22  23
ATOM     23  C   UNL     1       3.057   5.426  17.788  0.00  0.00    +0.000 C 
BRANCH  23  24
ATOM     24  C   UNL     1       1.835   4.509  17.787  0.00  0.00    +0.000 C 
BRANCH  24  25
ATOM     25  C   UNL     1       2.202   3.092  18.225  0.00  0.00    +0.000 C 
BRANCH  25  26
ATOM     26  N   UNL     1       2.124   2.927  19.663  0.00  0.00    +0.000 N 
ATOM     27  C   UNL     1       0.992   2.973  20.428  0.00  0.00    +0.000 A 
ATOM     28  C   UNL     1       1.433   2.796  21.719  0.00  0.00    +0.000 A 
ATOM     29  N   UNL     1       2.795   2.646  21.752  0.00  0.00    +0.000 NA
ATOM     30  C   UNL     1       3.184   2.732  20.500  0.00  0.00    +0.000 A 
ENDBRANCH  25  26
ENDBRANCH  24  25
ENDBRANCH  23  24
ENDBRANCH  22  23
ENDBRANCH  10  22
TORSDOF 7
ENDMDL
MODEL 2
REMARK VINA RESULT:      -7.9      3.070     10.168
REMARK  Name = 
REMARK  7 active torsions:
REMARK  status: ('A' for Active; 'I' for Inactive)
REMARK    1  A    between atoms: C_2  and  C_3
REMARK    2  A    between atoms: C_6  and  C_7
REMARK    3  A    between atoms: C_16  and  O_17
REMARK    4  A    between atoms: O_17  and  C_18
REMARK    5  A    between atoms: C_18  and  C_19
REMARK    6  A    between atoms: C_19  and  C_20
REMARK    7  A    between atoms: C_20  and  N_21
REMARK                            x       y       z     vdW  Elec       q    Type
REMARK                         _______ _______ _______ _____ _____    ______ ____
ROOT
ATOM      1  C   UNL     1       3.050   6.226  18.937  0.00  0.00    +0.000 A 
ATOM      2  N   UNL     1       2.930   5.459  20.045  0.00  0.00    +0.000 NA
ATOM      3  N   UNL     1       2.185   6.195  20.914  0.00  0.00    +0.000 N 
ATOM      4  C   UNL     1       1.815   7.371  20.377  0.00  0.00    +0.000 A 
ATOM      5  C   UNL     1       2.340   7.427  19.116  0.00  0.00    +0.000 A 
ATOM      6  C   UNL     1       1.995   8.674  18.380  0.00  0.00    +0.000 C 
ATOM      7  C   UNL     1       1.174   9.337  19.497  0.00  0.00    +0.000 A 
ATOM      8  C   UNL     1       0.572  10.580  19.432  0.00  0.00    +0.000 A 
ATOM      9  C   UNL     1      -0.147  11.023  20.546  0.00  0.00    +0.000 A 
ATOM     10  C   UNL     1      -0.268  10.226  21.705  0.00  0.00    +0.000 A 
ATOM     11  C   UNL     1       0.366   8.977  21.780  0.00  0.00    +0.000 A 
ATOM     12  C   UNL     1       1.070   8.549  20.672  0.00  0.00    +0.000 A 
ATOM     13  H   UNL     1       1.985   5.814  21.833  0.00  0.00    +0.000 HD
ENDROOT
BRANCH   1  17
ATOM     14  C   UNL     1       5.248   4.878  15.596  0.00  0.00    +0.000 A 
ATOM     15  C   UNL     1       5.278   6.236  15.893  0.00  0.00    +0.000 A 
ATOM     16  C   UNL     1       4.545   6.696  16.991  0.00  0.00    +0.000 A 
ATOM     17  C   UNL     1       3.811   5.797  17.767  0.00  0.00    +0.000 A 
ATOM     18  C   UNL     1       3.841   4.460  17.377  0.00  0.00    +0.000 A 
ATOM     19  N   UNL     1       4.543   3.976  16.319  0.00  0.00    +0.000 NA
BRANCH  14  21
ATOM     20  N   UNL     1       6.546   3.938  13.550  0.00  0.00    +0.000 NA
ATOM     21  C   UNL     1       5.982   4.350  14.477  0.00  0.00    +0.000 C 
ENDBRANCH  14  21
ENDBRANCH   1  17
BRANCH  10  22
ATOM     22  O   UNL     1      -0.949  10.613  22.834  0.00  0.00    +0.000 OA
BRANCH  22  23
ATOM     23  C   UNL     1      -1.194  12.018  22.962  0.00  0.00    +0.000 C 
BRANCH  23  24
ATOM     24  C   UNL     1      -2.685  12.251  23.194  0.00  0.00    +0.000 C 
BRANCH  24  25
ATOM     25  C   UNL     1      -3.352  12.861  21.962  0.00  0.00    +0.000 C 
BRANCH  25  26
ATOM     26  N   UNL     1      -4.785  12.647  21.954  0.00  0.00    +0.000 N 
ATOM     27  C   UNL     1      -5.560  12.365  20.863  0.00  0.00    +0.000 A 
ATOM     28  C   UNL     1      -6.842  12.284  21.355  0.00  0.00    +0.000 A 
ATOM     29  N   UNL     1      -6.860  12.509  22.706  0.00  0.00    +0.000 NA
ATOM     30  C   UNL     1      -5.608  12.728  23.039  0.00  0.00    +0.000 A 
ENDBRANCH  25  26
ENDBRANCH  24  25
ENDBRANCH  23  24
ENDBRANCH  22  23
ENDBRANCH  10  22
TORSDOF 7
ENDMDL
MODEL 3
REMARK VINA RESULT:      -7.8      3.113      4.707
REMARK  Name = 
REMARK  7 active torsions:
REMARK  status: ('A' for Active; 'I' for Inactive)
REMARK    1  A    between atoms: C_2  and  C_3
REMARK    2  A    between atoms: C_6  and  C_7
REMARK    3  A    between atoms: C_16  and  O_17
REMARK    4  A    between atoms: O_17  and  C_18
REMARK    5  A    between atoms: C_18  and  C_19
REMARK    6  A    between atoms: C_19  and  C_20
REMARK    7  A    between atoms: C_20  and  N_21
REMARK                            x       y       z     vdW  Elec       q    Type
REMARK                         _______ _______ _______ _____ _____    ______ ____
ROOT
ATOM      1  C   UNL     1       1.309   9.643  19.417  0.00  0.00    +0.000 A 
ATOM      2  N   UNL     1       1.610   9.974  18.140  0.00  0.00    +0.000 NA
ATOM      3  N   UNL     1       2.206   8.870  17.613  0.00  0.00    +0.000 N 
ATOM      4  C   UNL     1       2.255   7.861  18.501  0.00  0.00    +0.000 A 
ATOM      5  C   UNL     1       1.689   8.311  19.661  0.00  0.00    +0.000 A 
ATOM      6  C   UNL     1       1.652   7.289  20.743  0.00  0.00    +0.000 C 
ATOM      7  C   UNL     1       2.340   6.158  19.964  0.00  0.00    +0.000 A 
ATOM      8  C   UNL     1       2.630   4.897  20.452  0.00  0.00    +0.000 A 
ATOM      9  C   UNL     1       3.254   3.986  19.594  0.00  0.00    +0.000 A 
ATOM     10  C   UNL     1       3.575   4.333  18.264  0.00  0.00    +0.000 A 
ATOM     11  C   UNL     1       3.306   5.621  17.779  0.00  0.00    +0.000 A 
ATOM     12  C   UNL     1       2.686   6.510  18.633  0.00  0.00    +0.000 A 
ATOM     13  H   UNL     1       2.536   8.903  16.654  0.00  0.00    +0.000 HD
ENDROOT
BRANCH   1  17
ATOM     14  C   UNL     1      -0.615  12.277  22.096  0.00  0.00    +0.000 A 
ATOM     15  C   UNL     1       0.343  12.803  21.237  0.00  0.00    +0.000 A 
ATOM     16  C   UNL     1       0.994  11.939  20.353  0.00  0.00    +0.000 A 
ATOM     17  C   UNL     1       0.674  10.580  20.340  0.00  0.00    +0.000 A 
ATOM     18  C   UNL     1      -0.293  10.154  21.248  0.00  0.00    +0.000 A 
ATOM     19  N   UNL     1      -0.949  10.964  22.119  0.00  0.00    +0.000 NA
BRANCH  14  21
ATOM     20  N   UNL     1      -1.915  13.780  23.771  0.00  0.00    +0.000 NA
ATOM     21  C   UNL     1      -1.316  13.119  23.028  0.00  0.00    +0.000 C 
ENDBRANCH  14  21
ENDBRANCH   1  17
BRANCH  10  22
ATOM     22  O   UNL     1       4.201   3.486  17.381  0.00  0.00    +0.000 OA
BRANCH  22  23
ATOM     23  C   UNL     1       4.436   4.016  16.071  0.00  0.00    +0.000 C 
BRANCH  23  24
ATOM     24  C   UNL     1       5.905   3.822  15.704  0.00  0.00    +0.000 C 
BRANCH  24  25
ATOM     25  C   UNL     1       6.650   5.156  15.667  0.00  0.00    +0.000 C 
BRANCH  25  26
ATOM     26  N   UNL     1       7.154   5.537  16.971  0.00  0.00    +0.000 N 
ATOM     27  C   UNL     1       7.372   6.810  17.420  0.00  0.00    +0.000 A 
ATOM     28  C   UNL     1       7.878   6.653  18.689  0.00  0.00    +0.000 A 
ATOM     29  N   UNL     1       7.970   5.326  19.016  0.00  0.00    +0.000 NA
ATOM     30  C   UNL     1       7.531   4.677  17.962  0.00  0.00    +0.000 A 
ENDBRANCH  25  26
ENDBRANCH  24  25
ENDBRANCH  23  24
ENDBRANCH  22  23
ENDBRANCH  10  22
TORSDOF 7
ENDMDL
MODEL 4
REMARK VINA RESULT:      -7.8      2.071      2.836
REMARK  Name = 
REMARK  7 active torsions:
REMARK  status: ('A' for Active; 'I' for Inactive)
REMARK    1  A    between atoms: C_2  and  C_3
REMARK    2  A    between atoms: C_6  and  C_7
REMARK    3  A    between atoms: C_16  and  O_17
REMARK    4  A    between atoms: O_17  and  C_18
REMARK    5  A    between atoms: C_18  and  C_19
REMARK    6  A    between atoms: C_19  and  C_20
REMARK    7  A    between atoms: C_20  and  N_21
REMARK                            x       y       z     vdW  Elec       q    Type
REMARK                         _______ _______ _______ _____ _____    ______ ____
ROOT
ATOM      1  C   UNL     1      -0.631  11.142  22.410  0.00  0.00    +0.000 A 
ATOM      2  N   UNL     1      -0.285  10.325  23.431  0.00  0.00    +0.000 NA
ATOM      3  N   UNL     1       0.436   9.321  22.861  0.00  0.00    +0.000 N 
ATOM      4  C   UNL     1       0.576   9.503  21.535  0.00  0.00    +0.000 A 
ATOM      5  C   UNL     1      -0.084  10.654  21.209  0.00  0.00    +0.000 A 
ATOM      6  C   UNL     1       0.000  11.002  19.764  0.00  0.00    +0.000 C 
ATOM      7  C   UNL     1       0.833   9.789  19.321  0.00  0.00    +0.000 A 
ATOM      8  C   UNL     1       1.242   9.514  18.030  0.00  0.00    +0.000 A 
ATOM      9  C   UNL     1       2.007   8.364  17.811  0.00  0.00    +0.000 A 
ATOM     10  C   UNL     1       2.363   7.507  18.875  0.00  0.00    +0.000 A 
ATOM     11  C   UNL     1       1.924   7.772  20.181  0.00  0.00    +0.000 A 
ATOM     12  C   UNL     1       1.173   8.913  20.384  0.00  0.00    +0.000 A 
ATOM     13  H   UNL     1       0.785   8.573  23.450  0.00  0.00    +0.000 HD
ENDROOT
BRANCH   1  17
ATOM     14  C   UNL     1      -2.898  14.645  23.047  0.00  0.00    +0.000 A 
ATOM     15  C   UNL     1      -3.562  13.509  22.597  0.00  0.00    +0.000 A 
ATOM     16  C   UNL     1      -2.820  12.346  22.372  0.00  0.00    +0.000 A 
ATOM     17  C   UNL     1      -1.444  12.339  22.606  0.00  0.00    +0.000 A 
ATOM     18  C   UNL     1      -0.875  13.532  23.047  0.00  0.00    +0.000 A 
ATOM     19  N   UNL     1      -1.563  14.680  23.279  0.00  0.00    +0.000 NA
BRANCH  14  21
ATOM     20  N   UNL     1      -4.216  16.837  23.505  0.00  0.00    +0.000 NA
ATOM     21  C   UNL     1      -3.610  15.870  23.294  0.00  0.00    +0.000 C 
ENDBRANCH  14  21
ENDBRANCH   1  17
BRANCH  10  22
ATOM     22  O   UNL     1       3.099   6.358  18.720  0.00  0.00    +0.000 OA
BRANCH  22  23
ATOM     23  C   UNL     1       2.363   5.197  18.316  0.00  0.00    +0.000 C 
BRANCH  23  24
ATOM     24  C   UNL     1       3.263   4.297  17.472  0.00  0.00    +0.000 C 
BRANCH  24  25
ATOM     25  C   UNL     1       4.626   4.097  18.132  0.00  0.00    +0.000 C 
BRANCH  25  26
ATOM     26  N   UNL     1       5.719   4.302  17.202  0.00  0.00    +0.000 N 
ATOM     27  C   UNL     1       5.654   4.224  15.839  0.00  0.00    +0.000 A 
ATOM     28  C   UNL     1       6.940   4.461  15.411  0.00  0.00    +0.000 A 
ATOM     29  N   UNL     1       7.774   4.679  16.476  0.00  0.00    +0.000 NA
ATOM     30  C   UNL     1       7.013   4.574  17.541  0.00  0.00    +0.000 A 
ENDBRANCH  25  26
ENDBRANCH  24  25
ENDBRANCH  23  24
ENDBRANCH  22  23
ENDBRANCH  10  22
TORSDOF 7
ENDMDL
MODEL 5
REMARK VINA RESULT:      -7.7      3.247     10.349
REMARK  Name = 
REMARK  7 active torsions:
REMARK  status: ('A' for Active; 'I' for Inactive)
REMARK    1  A    between atoms: C_2  and  C_3
REMARK    2  A    between atoms: C_6  and  C_7
REMARK    3  A    between atoms: C_16  and  O_17
REMARK    4  A    between atoms: O_17  and  C_18
REMARK    5  A    between atoms: C_18  and  C_19
REMARK    6  A    between atoms: C_19  and  C_20
REMARK    7  A    between atoms: C_20  and  N_21
REMARK                            x       y       z     vdW  Elec       q    Type
REMARK                         _______ _______ _______ _____ _____    ______ ____
ROOT
ATOM      1  C   UNL     1       3.400   6.151  18.549  0.00  0.00    +0.000 A 
ATOM      2  N   UNL     1       3.334   5.470  19.716  0.00  0.00    +0.000 NA
ATOM      3  N   UNL     1       2.563   6.235  20.536  0.00  0.00    +0.000 N 
ATOM      4  C   UNL     1       2.124   7.343  19.912  0.00  0.00    +0.000 A 
ATOM      5  C   UNL     1       2.630   7.325  18.643  0.00  0.00    +0.000 A 
ATOM      6  C   UNL     1       2.210   8.489  17.815  0.00  0.00    +0.000 C 
ATOM      7  C   UNL     1       1.370   9.197  18.889  0.00  0.00    +0.000 A 
ATOM      8  C   UNL     1       0.703  10.398  18.736  0.00  0.00    +0.000 A 
ATOM      9  C   UNL     1      -0.025  10.891  19.822  0.00  0.00    +0.000 A 
ATOM     10  C   UNL     1      -0.089  10.185  21.043  0.00  0.00    +0.000 A 
ATOM     11  C   UNL     1       0.611   8.980  21.207  0.00  0.00    +0.000 A 
ATOM     12  C   UNL     1       1.322   8.502  20.125  0.00  0.00    +0.000 A 
ATOM     13  H   UNL     1       2.395   5.919  21.485  0.00  0.00    +0.000 HD
ENDROOT
BRANCH   1  17
ATOM     14  C   UNL     1       5.609   4.863  15.191  0.00  0.00    +0.000 A 
ATOM     15  C   UNL     1       4.983   3.897  15.971  0.00  0.00    +0.000 A 
ATOM     16  C   UNL     1       4.257   4.311  17.092  0.00  0.00    +0.000 A 
ATOM     17  C   UNL     1       4.167   5.669  17.403  0.00  0.00    +0.000 A 
ATOM     18  C   UNL     1       4.840   6.553  16.562  0.00  0.00    +0.000 A 
ATOM     19  N   UNL     1       5.551   6.188  15.464  0.00  0.00    +0.000 NA
BRANCH  14  21
ATOM     20  N   UNL     1       6.953   4.176  13.075  0.00  0.00    +0.000 NA
ATOM     21  C   UNL     1       6.371   4.494  14.027  0.00  0.00    +0.000 C 
ENDBRANCH  14  21
ENDBRANCH   1  17
BRANCH  10  22
ATOM     22  O   UNL     1      -0.776  10.626  22.149  0.00  0.00    +0.000 OA
BRANCH  22  23
ATOM     23  C   UNL     1      -1.456  11.877  22.001  0.00  0.00    +0.000 C 
BRANCH  23  24
ATOM     24  C   UNL     1      -2.454  12.048  23.144  0.00  0.00    +0.000 C 
BRANCH  24  25
ATOM     25  C   UNL     1      -3.333  13.280  22.937  0.00  0.00    +0.000 C 
BRANCH  25  26
ATOM     26  N   UNL     1      -4.736  12.937  22.818  0.00  0.00    +0.000 N 
ATOM     27  C   UNL     1      -5.441  12.782  21.657  0.00  0.00    +0.000 A 
ATOM     28  C   UNL     1      -6.725  12.496  22.061  0.00  0.00    +0.000 A 
ATOM     29  N   UNL     1      -6.811  12.473  23.429  0.00  0.00    +0.000 NA
ATOM     30  C   UNL     1      -5.600  12.746  23.857  0.00  0.00    +0.000 A 
ENDBRANCH  25  26
ENDBRANCH  24  25
ENDBRANCH  23  24
ENDBRANCH  22  23
ENDBRANCH  10  22
TORSDOF 7
ENDMDL
MODEL 6
REMARK VINA RESULT:      -7.7      2.214      2.923
REMARK  Name = 
REMARK  7 active torsions:
REMARK  status: ('A' for Active; 'I' for Inactive)
REMARK    1  A    between atoms: C_2  and  C_3
REMARK    2  A    between atoms: C_6  and  C_7
REMARK    3  A    between atoms: C_16  and  O_17
REMARK    4  A    between atoms: O_17  and  C_18
REMARK    5  A    between atoms: C_18  and  C_19
REMARK    6  A    between atoms: C_19  and  C_20
REMARK    7  A    between atoms: C_20  and  N_21
REMARK                            x       y       z     vdW  Elec       q    Type
REMARK                         _______ _______ _______ _____ _____    ______ ____
ROOT
ATOM      1  C   UNL     1      -0.659  10.977  22.678  0.00  0.00    +0.000 A 
ATOM      2  N   UNL     1      -0.217  10.084  23.593  0.00  0.00    +0.000 NA
ATOM      3  N   UNL     1       0.510   9.174  22.888  0.00  0.00    +0.000 N 
ATOM      4  C   UNL     1       0.561   9.487  21.581  0.00  0.00    +0.000 A 
ATOM      5  C   UNL     1      -0.165  10.632  21.406  0.00  0.00    +0.000 A 
ATOM      6  C   UNL     1      -0.184  11.119  20.000  0.00  0.00    +0.000 C 
ATOM      7  C   UNL     1       0.670   9.994  19.394  0.00  0.00    +0.000 A 
ATOM      8  C   UNL     1       1.011   9.863  18.061  0.00  0.00    +0.000 A 
ATOM      9  C   UNL     1       1.808   8.776  17.688  0.00  0.00    +0.000 A 
ATOM     10  C   UNL     1       2.263   7.840  18.641  0.00  0.00    +0.000 A 
ATOM     11  C   UNL     1       1.894   7.959  19.990  0.00  0.00    +0.000 A 
ATOM     12  C   UNL     1       1.111   9.038  20.346  0.00  0.00    +0.000 A 
ATOM     13  H   UNL     1       0.925   8.391  23.381  0.00  0.00    +0.000 HD
ENDROOT
BRANCH   1  17
ATOM     14  C   UNL     1      -3.203  14.187  23.695  0.00  0.00    +0.000 A 
ATOM     15  C   UNL     1      -1.904  14.483  23.295  0.00  0.00    +0.000 A 
ATOM     16  C   UNL     1      -1.050  13.428  22.966  0.00  0.00    +0.000 A 
ATOM     17  C   UNL     1      -1.507  12.111  23.036  0.00  0.00    +0.000 A 
ATOM     18  C   UNL     1      -2.822  11.923  23.457  0.00  0.00    +0.000 A 
ATOM     19  N   UNL     1      -3.681  12.923  23.782  0.00  0.00    +0.000 NA
BRANCH  14  21
ATOM     20  N   UNL     1      -4.841  16.104  24.326  0.00  0.00    +0.000 NA
ATOM     21  C   UNL     1      -4.125  15.233  24.047  0.00  0.00    +0.000 C 
ENDBRANCH  14  21
ENDBRANCH   1  17
BRANCH  10  22
ATOM     22  O   UNL     1       3.036   6.746  18.334  0.00  0.00    +0.000 OA
BRANCH  22  23
ATOM     23  C   UNL     1       3.267   5.826  19.406  0.00  0.00    +0.000 C 
BRANCH  23  24
ATOM     24  C   UNL     1       3.529   4.436  18.831  0.00  0.00    +0.000 C 
BRANCH  24  25
ATOM     25  C   UNL     1       4.906   3.915  19.239  0.00  0.00    +0.000 C 
BRANCH  25  26
ATOM     26  N   UNL     1       5.980   4.678  18.637  0.00  0.00    +0.000 N 
ATOM     27  C   UNL     1       6.812   5.556  19.274  0.00  0.00    +0.000 A 
ATOM     28  C   UNL     1       7.631   6.046  18.284  0.00  0.00    +0.000 A 
ATOM     29  N   UNL     1       7.317   5.489  17.072  0.00  0.00    +0.000 NA
ATOM     30  C   UNL     1       6.318   4.672  17.314  0.00  0.00    +0.000 A 
ENDBRANCH  25  26
ENDBRANCH  24  25
ENDBRANCH  23  24
ENDBRANCH  22  23
ENDBRANCH  10  22
TORSDOF 7
ENDMDL
MODEL 7
REMARK VINA RESULT:      -7.6      1.121      1.463
REMARK  Name = 
REMARK  7 active torsions:
REMARK  status: ('A' for Active; 'I' for Inactive)
REMARK    1  A    between atoms: C_2  and  C_3
REMARK    2  A    between atoms: C_6  and  C_7
REMARK    3  A    between atoms: C_16  and  O_17
REMARK    4  A    between atoms: O_17  and  C_18
REMARK    5  A    between atoms: C_18  and  C_19
REMARK    6  A    between atoms: C_19  and  C_20
REMARK    7  A    between atoms: C_20  and  N_21
REMARK                            x       y       z     vdW  Elec       q    Type
REMARK                         _______ _______ _______ _____ _____    ______ ____
ROOT
ATOM      1  C   UNL     1      -0.577  10.946  22.562  0.00  0.00    +0.000 A 
ATOM      2  N   UNL     1      -0.191  10.081  23.528  0.00  0.00    +0.000 NA
ATOM      3  N   UNL     1       0.531   9.122  22.885  0.00  0.00    +0.000 N 
ATOM      4  C   UNL     1       0.633   9.378  21.568  0.00  0.00    +0.000 A 
ATOM      5  C   UNL     1      -0.054  10.534  21.322  0.00  0.00    +0.000 A 
ATOM      6  C   UNL     1      -0.014  10.961  19.897  0.00  0.00    +0.000 C 
ATOM      7  C   UNL     1       0.826   9.788  19.367  0.00  0.00    +0.000 A 
ATOM      8  C   UNL     1       1.205   9.591  18.053  0.00  0.00    +0.000 A 
ATOM      9  C   UNL     1       1.982   8.468  17.752  0.00  0.00    +0.000 A 
ATOM     10  C   UNL     1       2.379   7.561  18.758  0.00  0.00    +0.000 A 
ATOM     11  C   UNL     1       1.971   7.747  20.087  0.00  0.00    +0.000 A 
ATOM     12  C   UNL     1       1.208   8.862  20.372  0.00  0.00    +0.000 A 
ATOM     13  H   UNL     1       0.907   8.350  23.424  0.00  0.00    +0.000 HD
ENDROOT
BRANCH   1  17
ATOM     14  C   UNL     1      -2.868  14.393  23.391  0.00  0.00    +0.000 A 
ATOM     15  C   UNL     1      -3.471  13.151  23.556  0.00  0.00    +0.000 A 
ATOM     16  C   UNL     1      -2.726  12.003  23.275  0.00  0.00    +0.000 A 
ATOM     17  C   UNL     1      -1.403  12.117  22.844  0.00  0.00    +0.000 A 
ATOM     18  C   UNL     1      -0.897  13.408  22.702  0.00  0.00    +0.000 A 
ATOM     19  N   UNL     1      -1.589  14.545  22.969  0.00  0.00    +0.000 NA
BRANCH  14  21
ATOM     20  N   UNL     1      -4.201  16.571  23.871  0.00  0.00    +0.000 NA
ATOM     21  C   UNL     1      -3.587  15.608  23.665  0.00  0.00    +0.000 C 
ENDBRANCH  14  21
ENDBRANCH   1  17
BRANCH  10  22
ATOM     22  O   UNL     1       3.129   6.434  18.521  0.00  0.00    +0.000 OA
BRANCH  22  23
ATOM     23  C   UNL     1       4.282   6.616  17.691  0.00  0.00    +0.000 C 
BRANCH  23  24
ATOM     24  C   UNL     1       4.463   5.389  16.802  0.00  0.00    +0.000 C 
BRANCH  24  25
ATOM     25  C   UNL     1       4.981   4.193  17.601  0.00  0.00    +0.000 C 
BRANCH  25  26
ATOM     26  N   UNL     1       3.903   3.385  18.135  0.00  0.00    +0.000 N 
ATOM     27  C   UNL     1       2.769   3.001  17.476  0.00  0.00    +0.000 A 
ATOM     28  C   UNL     1       2.049   2.284  18.403  0.00  0.00    +0.000 A 
ATOM     29  N   UNL     1       2.717   2.225  19.598  0.00  0.00    +0.000 NA
ATOM     30  C   UNL     1       3.828   2.899  19.409  0.00  0.00    +0.000 A 
ENDBRANCH  25  26
ENDBRANCH  24  25
ENDBRANCH  23  24
ENDBRANCH  22  23
ENDBRANCH  10  22
TORSDOF 7
ENDMDL
MODEL 8
REMARK VINA RESULT:      -7.6      1.836      2.541
REMARK  Name = 
REMARK  7 active torsions:
REMARK  status: ('A' for Active; 'I' for Inactive)
REMARK    1  A    between atoms: C_2  and  C_3
REMARK    2  A    between atoms: C_6  and  C_7
REMARK    3  A    between atoms: C_16  and  O_17
REMARK    4  A    between atoms: O_17  and  C_18
REMARK    5  A    between atoms: C_18  and  C_19
REMARK    6  A    between atoms: C_19  and  C_20
REMARK    7  A    between atoms: C_20  and  N_21
REMARK                            x       y       z     vdW  Elec       q    Type
REMARK                         _______ _______ _______ _____ _____    ______ ____
ROOT
ATOM      1  C   UNL     1      -0.140  10.941  19.869  0.00  0.00    +0.000 A 
ATOM      2  N   UNL     1       0.038  11.435  18.622  0.00  0.00    +0.000 NA
ATOM      3  N   UNL     1       0.865  10.552  18.000  0.00  0.00    +0.000 N 
ATOM      4  C   UNL     1       1.178   9.517  18.800  0.00  0.00    +0.000 A 
ATOM      5  C   UNL     1       0.553   9.724  19.998  0.00  0.00    +0.000 A 
ATOM      6  C   UNL     1       0.790   8.640  20.990  0.00  0.00    +0.000 C 
ATOM      7  C   UNL     1       1.707   7.772  20.114  0.00  0.00    +0.000 A 
ATOM      8  C   UNL     1       2.303   6.583  20.492  0.00  0.00    +0.000 A 
ATOM      9  C   UNL     1       3.102   5.920  19.557  0.00  0.00    +0.000 A 
ATOM     10  C   UNL     1       3.295   6.438  18.258  0.00  0.00    +0.000 A 
ATOM     11  C   UNL     1       2.713   7.659  17.885  0.00  0.00    +0.000 A 
ATOM     12  C   UNL     1       1.922   8.302  18.815  0.00  0.00    +0.000 A 
ATOM     13  H   UNL     1       1.152  10.739  17.045  0.00  0.00    +0.000 HD
ENDROOT
BRANCH   1  17
ATOM     14  C   UNL     1      -2.524  12.987  22.688  0.00  0.00    +0.000 A 
ATOM     15  C   UNL     1      -1.540  12.129  23.165  0.00  0.00    +0.000 A 
ATOM     16  C   UNL     1      -0.751  11.438  22.241  0.00  0.00    +0.000 A 
ATOM     17  C   UNL     1      -0.955  11.621  20.872  0.00  0.00    +0.000 A 
ATOM     18  C   UNL     1      -1.975  12.496  20.501  0.00  0.00    +0.000 A 
ATOM     19  N   UNL     1      -2.758  13.186  21.368  0.00  0.00    +0.000 NA
BRANCH  14  21
ATOM     20  N   UNL     1      -4.035  14.292  24.353  0.00  0.00    +0.000 NA
ATOM     21  C   UNL     1      -3.367  13.722  23.593  0.00  0.00    +0.000 C 
ENDBRANCH  14  21
ENDBRANCH   1  17
BRANCH  10  22
ATOM     22  O   UNL     1       4.080   5.840  17.303  0.00  0.00    +0.000 OA
BRANCH  22  23
ATOM     23  C   UNL     1       4.417   4.469  17.543  0.00  0.00    +0.000 C 
BRANCH  23  24
ATOM     24  C   UNL     1       3.231   3.584  17.170  0.00  0.00    +0.000 C 
BRANCH  24  25
ATOM     25  C   UNL     1       3.217   2.296  17.993  0.00  0.00    +0.000 C 
BRANCH  25  26
ATOM     26  N   UNL     1       2.673   2.502  19.321  0.00  0.00    +0.000 N 
ATOM     27  C   UNL     1       3.374   2.516  20.494  0.00  0.00    +0.000 A 
ATOM     28  C   UNL     1       2.423   2.710  21.469  0.00  0.00    +0.000 A 
ATOM     29  N   UNL     1       1.173   2.813  20.916  0.00  0.00    +0.000 NA
ATOM     30  C   UNL     1       1.354   2.680  19.622  0.00  0.00    +0.000 A 
ENDBRANCH  25  26
ENDBRANCH  24  25
ENDBRANCH  23  24
ENDBRANCH  22  23
ENDBRANCH  10  22
TORSDOF 7
ENDMDL
MODEL 9
REMARK VINA RESULT:      -7.5      2.194      3.092
REMARK  Name = 
REMARK  7 active torsions:
REMARK  status: ('A' for Active; 'I' for Inactive)
REMARK    1  A    between atoms: C_2  and  C_3
REMARK    2  A    between atoms: C_6  and  C_7
REMARK    3  A    between atoms: C_16  and  O_17
REMARK    4  A    between atoms: O_17  and  C_18
REMARK    5  A    between atoms: C_18  and  C_19
REMARK    6  A    between atoms: C_19  and  C_20
REMARK    7  A    between atoms: C_20  and  N_21
REMARK                            x       y       z     vdW  Elec       q    Type
REMARK                         _______ _______ _______ _____ _____    ______ ____
ROOT
ATOM      1  C   UNL     1      -0.838  11.167  22.343  0.00  0.00    +0.000 A 
ATOM      2  N   UNL     1      -0.621  10.379  23.421  0.00  0.00    +0.000 NA
ATOM      3  N   UNL     1       0.126   9.338  22.962  0.00  0.00    +0.000 N 
ATOM      4  C   UNL     1       0.406   9.468  21.653  0.00  0.00    +0.000 A 
ATOM      5  C   UNL     1      -0.185  10.623  21.222  0.00  0.00    +0.000 A 
ATOM      6  C   UNL     1       0.057  10.917  19.783  0.00  0.00    +0.000 C 
ATOM      7  C   UNL     1       0.896   9.669  19.469  0.00  0.00    +0.000 A 
ATOM      8  C   UNL     1       1.427   9.337  18.236  0.00  0.00    +0.000 A 
ATOM      9  C   UNL     1       2.177   8.162  18.136  0.00  0.00    +0.000 A 
ATOM     10  C   UNL     1       2.398   7.335  19.258  0.00  0.00    +0.000 A 
ATOM     11  C   UNL     1       1.835   7.658  20.503  0.00  0.00    +0.000 A 
ATOM     12  C   UNL     1       1.100   8.823  20.590  0.00  0.00    +0.000 A 
ATOM     13  H   UNL     1       0.391   8.603  23.609  0.00  0.00    +0.000 HD
ENDROOT
BRANCH   1  17
ATOM     14  C   UNL     1      -3.173  14.682  22.444  0.00  0.00    +0.000 A 
ATOM     15  C   UNL     1      -2.082  14.597  23.302  0.00  0.00    +0.000 A 
ATOM     16  C   UNL     1      -1.308  13.434  23.285  0.00  0.00    +0.000 A 
ATOM     17  C   UNL     1      -1.632  12.391  22.414  0.00  0.00    +0.000 A 
ATOM     18  C   UNL     1      -2.750  12.574  21.603  0.00  0.00    +0.000 A 
ATOM     19  N   UNL     1      -3.523  13.690  21.590  0.00  0.00    +0.000 NA
BRANCH  14  21
ATOM     20  N   UNL     1      -4.647  16.822  22.389  0.00  0.00    +0.000 NA
ATOM     21  C   UNL     1      -4.006  15.855  22.420  0.00  0.00    +0.000 C 
ENDBRANCH  14  21
ENDBRANCH   1  17
BRANCH  10  22
ATOM     22  O   UNL     1       3.112   6.162  19.218  0.00  0.00    +0.000 OA
BRANCH  22  23
ATOM     23  C   UNL     1       2.443   5.045  18.624  0.00  0.00    +0.000 C 
BRANCH  23  24
ATOM     24  C   UNL     1       3.214   4.594  17.386  0.00  0.00    +0.000 C 
BRANCH  24  25
ATOM     25  C   UNL     1       4.607   4.085  17.752  0.00  0.00    +0.000 C 
BRANCH  25  26
ATOM     26  N   UNL     1       5.614   4.517  16.803  0.00  0.00    +0.000 N 
ATOM     27  C   UNL     1       5.973   3.877  15.649  0.00  0.00    +0.000 A 
ATOM     28  C   UNL     1       6.980   4.649  15.118  0.00  0.00    +0.000 A 
ATOM     29  N   UNL     1       7.236   5.733  15.917  0.00  0.00    +0.000 NA
ATOM     30  C   UNL     1       6.401   5.625  16.926  0.00  0.00    +0.000 A 
ENDBRANCH  25  26
ENDBRANCH  24  25
ENDBRANCH  23  24
ENDBRANCH  22  23
ENDBRANCH  10  22
TORSDOF 7
ENDMDL
