MODEL 1
REMARK VINA RESULT:      -8.4      0.000      0.000
REMARK  Name = 
REMARK  5 active torsions:
REMARK  status: ('A' for Active; 'I' for Inactive)
REMARK    1  A    between atoms: C_1  and  C_2
REMARK    2  A    between atoms: C_5  and  N_6
REMARK    3  A    between atoms: C_7  and  C_9
REMARK    4  A    between atoms: N_18  and  C_19
REMARK    5  A    between atoms: C_19  and  C_20
REMARK                            x       y       z     vdW  Elec       q    Type
REMARK                         _______ _______ _______ _____ _____    ______ ____
ROOT
ATOM      1  C   UNL     1       3.378   6.400  18.620  0.00  0.00    +0.000 C 
ATOM      2  C   UNL     1       2.471   5.310  19.128  0.00  0.00    +0.000 A 
ATOM      3  C   UNL     1       1.640   5.273  20.237  0.00  0.00    +0.000 A 
ATOM      4  C   UNL     1       0.852   4.132  20.439  0.00  0.00    +0.000 A 
ATOM      5  C   UNL     1       0.904   3.045  19.547  0.00  0.00    +0.000 A 
ATOM      6  C   UNL     1       1.764   3.073  18.453  0.00  0.00    +0.000 A 
ATOM      7  C   UNL     1       2.538   4.206  18.276  0.00  0.00    +0.000 A 
ATOM      8  C   UNL     1       3.521   4.484  17.224  0.00  0.00    +0.000 C 
ATOM      9  O   UNL     1       3.867   3.694  16.368  0.00  0.00    +0.000 OA
ATOM     10  N   UNL     1       3.955   5.780  17.418  0.00  0.00    +0.000 N 
ENDROOT
BRANCH   1  12
ATOM     11  N   UNL     1       1.892   8.238  19.376  0.00  0.00    +0.000 N 
ATOM     12  C   UNL     1       2.590   7.695  18.309  0.00  0.00    +0.000 C 
ATOM     13  O   UNL     1       2.656   8.246  17.211  0.00  0.00    +0.000 OA
ATOM     14  H   UNL     1       2.039   7.824  20.290  0.00  0.00    +0.000 HD
BRANCH  11  19
ATOM     15  C   UNL     1      -1.993  12.509  19.468  0.00  0.00    +0.000 C 
ATOM     16  C   UNL     1      -1.265  11.172  19.595  0.00  0.00    +0.000 C 
ATOM     17  C   UNL     1      -0.825  10.654  18.219  0.00  0.00    +0.000 C 
ATOM     18  C   UNL     1      -0.034   9.349  18.327  0.00  0.00    +0.000 C 
ATOM     19  C   UNL     1       1.162   9.494  19.272  0.00  0.00    +0.000 C 
ATOM     20  C   UNL     1       0.710   9.987  20.651  0.00  0.00    +0.000 C 
ATOM     21  C   UNL     1      -0.062  11.301  20.539  0.00  0.00    +0.000 C 
ENDBRANCH  11  19
ENDBRANCH   1  12
BRANCH  10  22
ATOM     22  C   UNL     1       5.002   6.413  16.629  0.00  0.00    +0.000 C 
BRANCH  22  23
ATOM     23  C   UNL     1       6.239   6.593  17.451  0.00  0.00    +0.000 A 
ATOM     24  C   UNL     1       7.102   7.672  17.482  0.00  0.00    +0.000 A 
ATOM     25  C   UNL     1       8.212   7.452  18.345  0.00  0.00    +0.000 A 
ATOM     26  C   UNL     1       8.131   6.240  18.991  0.00  0.00    +0.000 A 
ATOM     27  S   UNL     1       6.719   5.377  18.561  0.00  0.00    +0.000 S 
ENDBRANCH  22  23
ENDBRANCH  10  22
TORSDOF 4
ENDMDL
MODEL 2
REMARK VINA RESULT:      -8.2      0.806      1.160
REMARK  Name = 
REMARK  5 active torsions:
REMARK  status: ('A' for Active; 'I' for Inactive)
REMARK    1  A    between atoms: C_1  and  C_2
REMARK    2  A    between atoms: C_5  and  N_6
REMARK    3  A    between atoms: C_7  and  C_9
REMARK    4  A    between atoms: N_18  and  C_19
REMARK    5  A    between atoms: C_19  and  C_20
REMARK                            x       y       z     vdW  Elec       q    Type
REMARK                         _______ _______ _______ _____ _____    ______ ____
ROOT
ATOM      1  C   UNL     1       3.112   6.292  18.845  0.00  0.00    +0.000 C 
ATOM      2  C   UNL     1       2.358   5.074  19.312  0.00  0.00    +0.000 A 
ATOM      3  C   UNL     1       1.538   4.889  20.414  0.00  0.00    +0.000 A 
ATOM      4  C   UNL     1       0.909   3.647  20.574  0.00  0.00    +0.000 A 
ATOM      5  C   UNL     1       1.108   2.607  19.648  0.00  0.00    +0.000 A 
ATOM      6  C   UNL     1       1.958   2.787  18.560  0.00  0.00    +0.000 A 
ATOM      7  C   UNL     1       2.574   4.018  18.424  0.00  0.00    +0.000 A 
ATOM      8  C   UNL     1       3.511   4.460  17.388  0.00  0.00    +0.000 C 
ATOM      9  O   UNL     1       3.962   3.753  16.508  0.00  0.00    +0.000 OA
ATOM     10  N   UNL     1       3.769   5.795  17.626  0.00  0.00    +0.000 N 
ENDROOT
BRANCH   1  12
ATOM     11  N   UNL     1       1.819   8.239  19.682  0.00  0.00    +0.000 N 
ATOM     12  C   UNL     1       2.158   7.480  18.573  0.00  0.00    +0.000 C 
ATOM     13  O   UNL     1       1.800   7.775  17.433  0.00  0.00    +0.000 OA
ATOM     14  H   UNL     1       2.303   8.038  20.551  0.00  0.00    +0.000 HD
BRANCH  11  19
ATOM     15  C   UNL     1      -0.504  13.513  20.048  0.00  0.00    +0.000 C 
ATOM     16  C   UNL     1       0.392  12.281  20.173  0.00  0.00    +0.000 C 
ATOM     17  C   UNL     1      -0.339  11.141  20.895  0.00  0.00    +0.000 C 
ATOM     18  C   UNL     1       0.515   9.875  20.972  0.00  0.00    +0.000 C 
ATOM     19  C   UNL     1       0.994   9.435  19.586  0.00  0.00    +0.000 C 
ATOM     20  C   UNL     1       1.745  10.571  18.884  0.00  0.00    +0.000 C 
ATOM     21  C   UNL     1       0.880  11.828  18.791  0.00  0.00    +0.000 C 
ENDBRANCH  11  19
ENDBRANCH   1  12
BRANCH  10  22
ATOM     22  C   UNL     1       4.722   6.589  16.866  0.00  0.00    +0.000 C 
BRANCH  22  23
ATOM     23  C   UNL     1       6.033   6.659  17.582  0.00  0.00    +0.000 A 
ATOM     24  C   UNL     1       6.997   7.648  17.517  0.00  0.00    +0.000 A 
ATOM     25  C   UNL     1       8.146   7.334  18.295  0.00  0.00    +0.000 A 
ATOM     26  C   UNL     1       8.000   6.148  18.978  0.00  0.00    +0.000 A 
ATOM     27  S   UNL     1       6.480   5.422  18.682  0.00  0.00    +0.000 S 
ENDBRANCH  22  23
ENDBRANCH  10  22
TORSDOF 4
ENDMDL
MODEL 3
REMARK VINA RESULT:      -8.1      1.831      4.522
REMARK  Name = 
REMARK  5 active torsions:
REMARK  status: ('A' for Active; 'I' for Inactive)
REMARK    1  A    between atoms: C_1  and  C_2
REMARK    2  A    between atoms: C_5  and  N_6
REMARK    3  A    between atoms: C_7  and  C_9
REMARK    4  A    between atoms: N_18  and  C_19
REMARK    5  A    between atoms: C_19  and  C_20
REMARK                            x       y       z     vdW  Elec       q    Type
REMARK                         _______ _______ _______ _____ _____    ______ ____
ROOT
ATOM      1  C   UNL     1       3.558   6.569  17.363  0.00  0.00    +0.000 C 
ATOM      2  C   UNL     1       5.058   6.669  17.466  0.00  0.00    +0.000 A 
ATOM      3  C   UNL     1       5.908   7.736  17.223  0.00  0.00    +0.000 A 
ATOM      4  C   UNL     1       7.279   7.561  17.459  0.00  0.00    +0.000 A 
ATOM      5  C   UNL     1       7.785   6.333  17.922  0.00  0.00    +0.000 A 
ATOM      6  C   UNL     1       6.931   5.255  18.133  0.00  0.00    +0.000 A 
ATOM      7  C   UNL     1       5.583   5.446  17.888  0.00  0.00    +0.000 A 
ATOM      8  C   UNL     1       4.486   4.484  18.018  0.00  0.00    +0.000 C 
ATOM      9  O   UNL     1       4.619   3.308  18.297  0.00  0.00    +0.000 OA
ATOM     10  N   UNL     1       3.318   5.173  17.757  0.00  0.00    +0.000 N 
ENDROOT
BRANCH   1  12
ATOM     11  N   UNL     1       2.317   8.697  17.667  0.00  0.00    +0.000 N 
ATOM     12  C   UNL     1       2.856   7.586  18.296  0.00  0.00    +0.000 C 
ATOM     13  O   UNL     1       2.715   7.371  19.499  0.00  0.00    +0.000 OA
ATOM     14  H   UNL     1       2.317   8.706  16.653  0.00  0.00    +0.000 HD
BRANCH  11  19
ATOM     15  C   UNL     1      -0.919  13.186  19.317  0.00  0.00    +0.000 C 
ATOM     16  C   UNL     1      -0.134  12.144  18.522  0.00  0.00    +0.000 C 
ATOM     17  C   UNL     1       1.356  12.183  18.885  0.00  0.00    +0.000 C 
ATOM     18  C   UNL     1       2.150  11.102  18.150  0.00  0.00    +0.000 C 
ATOM     19  C   UNL     1       1.559   9.710  18.389  0.00  0.00    +0.000 C 
ATOM     20  C   UNL     1       0.077   9.674  17.998  0.00  0.00    +0.000 C 
ATOM     21  C   UNL     1      -0.716  10.742  18.751  0.00  0.00    +0.000 C 
ENDBRANCH  11  19
ENDBRANCH   1  12
BRANCH  10  22
ATOM     22  C   UNL     1       2.003   4.552  17.701  0.00  0.00    +0.000 C 
BRANCH  22  23
ATOM     23  C   UNL     1       1.682   3.887  19.002  0.00  0.00    +0.000 A 
ATOM     24  C   UNL     1       1.554   4.461  20.253  0.00  0.00    +0.000 A 
ATOM     25  C   UNL     1       1.306   3.495  21.268  0.00  0.00    +0.000 A 
ATOM     26  C   UNL     1       1.192   2.223  20.754  0.00  0.00    +0.000 A 
ATOM     27  S   UNL     1       1.379   2.201  19.054  0.00  0.00    +0.000 S 
ENDBRANCH  22  23
ENDBRANCH  10  22
TORSDOF 4
ENDMDL
MODEL 4
REMARK VINA RESULT:      -8.0      0.986      1.156
REMARK  Name = 
REMARK  5 active torsions:
REMARK  status: ('A' for Active; 'I' for Inactive)
REMARK    1  A    between atoms: C_1  and  C_2
REMARK    2  A    between atoms: C_5  and  N_6
REMARK    3  A    between atoms: C_7  and  C_9
REMARK    4  A    between atoms: N_18  and  C_19
REMARK    5  A    between atoms: C_19  and  C_20
REMARK                            x       y       z     vdW  Elec       q    Type
REMARK                         _______ _______ _______ _____ _____    ______ ____
ROOT
ATOM      1  C   UNL     1       3.212   5.903  19.066  0.00  0.00    +0.000 C 
ATOM      2  C   UNL     1       2.330   4.730  19.406  0.00  0.00    +0.000 A 
ATOM      3  C   UNL     1       1.539   4.490  20.519  0.00  0.00    +0.000 A 
ATOM      4  C   UNL     1       0.765   3.322  20.546  0.00  0.00    +0.000 A 
ATOM      5  C   UNL     1       0.793   2.407  19.477  0.00  0.00    +0.000 A 
ATOM      6  C   UNL     1       1.614   2.636  18.377  0.00  0.00    +0.000 A 
ATOM      7  C   UNL     1       2.375   3.792  18.373  0.00  0.00    +0.000 A 
ATOM      8  C   UNL     1       3.318   4.261  17.354  0.00  0.00    +0.000 C 
ATOM      9  O   UNL     1       3.639   3.636  16.362  0.00  0.00    +0.000 OA
ATOM     10  N   UNL     1       3.751   5.508  17.755  0.00  0.00    +0.000 N 
ENDROOT
BRANCH   1  12
ATOM     11  N   UNL     1       2.086   7.776  20.241  0.00  0.00    +0.000 N 
ATOM     12  C   UNL     1       2.406   7.222  19.012  0.00  0.00    +0.000 C 
ATOM     13  O   UNL     1       2.146   7.780  17.946  0.00  0.00    +0.000 OA
ATOM     14  H   UNL     1       2.496   7.351  21.066  0.00  0.00    +0.000 HD
BRANCH  11  19
ATOM     15  C   UNL     1      -1.632  12.194  20.146  0.00  0.00    +0.000 C 
ATOM     16  C   UNL     1      -0.946  10.836  19.996  0.00  0.00    +0.000 C 
ATOM     17  C   UNL     1       0.292  10.943  19.096  0.00  0.00    +0.000 C 
ATOM     18  C   UNL     1       1.033   9.609  18.987  0.00  0.00    +0.000 C 
ATOM     19  C   UNL     1       1.398   9.054  20.366  0.00  0.00    +0.000 C 
ATOM     20  C   UNL     1       0.151   8.927  21.248  0.00  0.00    +0.000 C 
ATOM     21  C   UNL     1      -0.575  10.266  21.371  0.00  0.00    +0.000 C 
ENDBRANCH  11  19
ENDBRANCH   1  12
BRANCH  10  22
ATOM     22  C   UNL     1       4.766   6.282  17.055  0.00  0.00    +0.000 C 
BRANCH  22  23
ATOM     23  C   UNL     1       6.055   6.260  17.813  0.00  0.00    +0.000 A 
ATOM     24  C   UNL     1       6.496   5.330  18.734  0.00  0.00    +0.000 A 
ATOM     25  C   UNL     1       7.754   5.682  19.298  0.00  0.00    +0.000 A 
ATOM     26  C   UNL     1       8.263   6.835  18.746  0.00  0.00    +0.000 A 
ATOM     27  S   UNL     1       7.227   7.484  17.551  0.00  0.00    +0.000 S 
ENDBRANCH  22  23
ENDBRANCH  10  22
TORSDOF 4
ENDMDL
MODEL 5
REMARK VINA RESULT:      -7.9      1.700      4.508
REMARK  Name = 
REMARK  5 active torsions:
REMARK  status: ('A' for Active; 'I' for Inactive)
REMARK    1  A    between atoms: C_1  and  C_2
REMARK    2  A    between atoms: C_5  and  N_6
REMARK    3  A    between atoms: C_7  and  C_9
REMARK    4  A    between atoms: N_18  and  C_19
REMARK    5  A    between atoms: C_19  and  C_20
REMARK                            x       y       z     vdW  Elec       q    Type
REMARK                         _______ _______ _______ _____ _____    ______ ____
ROOT
ATOM      1  C   UNL     1       4.352   6.187  17.133  0.00  0.00    +0.000 C 
ATOM      2  C   UNL     1       5.757   6.426  17.620  0.00  0.00    +0.000 A 
ATOM      3  C   UNL     1       6.673   7.410  17.282  0.00  0.00    +0.000 A 
ATOM      4  C   UNL     1       7.908   7.425  17.945  0.00  0.00    +0.000 A 
ATOM      5  C   UNL     1       8.219   6.465  18.925  0.00  0.00    +0.000 A 
ATOM      6  C   UNL     1       7.309   5.459  19.238  0.00  0.00    +0.000 A 
ATOM      7  C   UNL     1       6.099   5.458  18.567  0.00  0.00    +0.000 A 
ATOM      8  C   UNL     1       4.983   4.517  18.698  0.00  0.00    +0.000 C 
ATOM      9  O   UNL     1       4.994   3.516  19.387  0.00  0.00    +0.000 OA
ATOM     10  N   UNL     1       3.965   4.990  17.895  0.00  0.00    +0.000 N 
ENDROOT
BRANCH   1  12
ATOM     11  N   UNL     1       2.936   7.481  18.709  0.00  0.00    +0.000 N 
ATOM     12  C   UNL     1       3.438   7.403  17.420  0.00  0.00    +0.000 C 
ATOM     13  O   UNL     1       3.246   8.282  16.580  0.00  0.00    +0.000 OA
ATOM     14  H   UNL     1       3.291   6.817  19.390  0.00  0.00    +0.000 HD
BRANCH  11  19
ATOM     15  C   UNL     1      -1.280  11.067  20.356  0.00  0.00    +0.000 C 
ATOM     16  C   UNL     1      -0.464   9.867  19.877  0.00  0.00    +0.000 C 
ATOM     17  C   UNL     1       0.243  10.178  18.551  0.00  0.00    +0.000 C 
ATOM     18  C   UNL     1       1.119   9.014  18.085  0.00  0.00    +0.000 C 
ATOM     19  C   UNL     1       2.124   8.601  19.164  0.00  0.00    +0.000 C 
ATOM     20  C   UNL     1       1.406   8.267  20.476  0.00  0.00    +0.000 C 
ATOM     21  C   UNL     1       0.548   9.441  20.948  0.00  0.00    +0.000 C 
ENDBRANCH  11  19
ENDBRANCH   1  12
BRANCH  10  22
ATOM     22  C   UNL     1       2.706   4.292  17.680  0.00  0.00    +0.000 C 
BRANCH  22  23
ATOM     23  C   UNL     1       2.129   3.842  18.984  0.00  0.00    +0.000 A 
ATOM     24  C   UNL     1       1.757   4.610  20.071  0.00  0.00    +0.000 A 
ATOM     25  C   UNL     1       1.306   3.817  21.164  0.00  0.00    +0.000 A 
ATOM     26  C   UNL     1       1.290   2.476  20.857  0.00  0.00    +0.000 A 
ATOM     27  S   UNL     1       1.812   2.179  19.256  0.00  0.00    +0.000 S 
ENDBRANCH  22  23
ENDBRANCH  10  22
TORSDOF 4
ENDMDL
MODEL 6
REMARK VINA RESULT:      -7.8      1.734      2.148
REMARK  Name = 
REMARK  5 active torsions:
REMARK  status: ('A' for Active; 'I' for Inactive)
REMARK    1  A    between atoms: C_1  and  C_2
REMARK    2  A    between atoms: C_5  and  N_6
REMARK    3  A    between atoms: C_7  and  C_9
REMARK    4  A    between atoms: N_18  and  C_19
REMARK    5  A    between atoms: C_19  and  C_20
REMARK                            x       y       z     vdW  Elec       q    Type
REMARK                         _______ _______ _______ _____ _____    ______ ____
ROOT
ATOM      1  C   UNL     1       3.121   6.163  19.423  0.00  0.00    +0.000 C 
ATOM      2  C   UNL     1       2.568   4.882  19.992  0.00  0.00    +0.000 A 
ATOM      3  C   UNL     1       2.055   4.602  21.248  0.00  0.00    +0.000 A 
ATOM      4  C   UNL     1       1.550   3.317  21.489  0.00  0.00    +0.000 A 
ATOM      5  C   UNL     1       1.568   2.329  20.487  0.00  0.00    +0.000 A 
ATOM      6  C   UNL     1       2.114   2.606  19.237  0.00  0.00    +0.000 A 
ATOM      7  C   UNL     1       2.614   3.878  19.023  0.00  0.00    +0.000 A 
ATOM      8  C   UNL     1       3.245   4.419  17.815  0.00  0.00    +0.000 C 
ATOM      9  O   UNL     1       3.501   3.777  16.816  0.00  0.00    +0.000 OA
ATOM     10  N   UNL     1       3.483   5.757  18.056  0.00  0.00    +0.000 N 
ENDROOT
BRANCH   1  12
ATOM     11  N   UNL     1       1.661   7.696  20.717  0.00  0.00    +0.000 N 
ATOM     12  C   UNL     1       2.070   7.298  19.454  0.00  0.00    +0.000 C 
ATOM     13  O   UNL     1       1.693   7.861  18.427  0.00  0.00    +0.000 OA
ATOM     14  H   UNL     1       2.156   7.307  21.513  0.00  0.00    +0.000 HD
BRANCH  11  19
ATOM     15  C   UNL     1      -1.040  12.546  22.307  0.00  0.00    +0.000 C 
ATOM     16  C   UNL     1      -0.039  11.407  22.115  0.00  0.00    +0.000 C 
ATOM     17  C   UNL     1      -0.607  10.083  22.644  0.00  0.00    +0.000 C 
ATOM     18  C   UNL     1       0.351   8.916  22.402  0.00  0.00    +0.000 C 
ATOM     19  C   UNL     1       0.735   8.802  20.925  0.00  0.00    +0.000 C 
ATOM     20  C   UNL     1       1.325  10.121  20.413  0.00  0.00    +0.000 C 
ATOM     21  C   UNL     1       0.356  11.280  20.638  0.00  0.00    +0.000 C 
ENDBRANCH  11  19
ENDBRANCH   1  12
BRANCH  10  22
ATOM     22  C   UNL     1       4.179   6.639  17.130  0.00  0.00    +0.000 C 
BRANCH  22  23
ATOM     23  C   UNL     1       5.363   5.945  16.537  0.00  0.00    +0.000 A 
ATOM     24  C   UNL     1       5.605   5.638  15.211  0.00  0.00    +0.000 A 
ATOM     25  C   UNL     1       6.816   4.911  15.038  0.00  0.00    +0.000 A 
ATOM     26  C   UNL     1       7.491   4.740  16.225  0.00  0.00    +0.000 A 
ATOM     27  S   UNL     1       6.666   5.457  17.539  0.00  0.00    +0.000 S 
ENDBRANCH  22  23
ENDBRANCH  10  22
TORSDOF 4
ENDMDL
MODEL 7
REMARK VINA RESULT:      -7.7      3.570      7.734
REMARK  Name = 
REMARK  5 active torsions:
REMARK  status: ('A' for Active; 'I' for Inactive)
REMARK    1  A    between atoms: C_1  and  C_2
REMARK    2  A    between atoms: C_5  and  N_6
REMARK    3  A    between atoms: C_7  and  C_9
REMARK    4  A    between atoms: N_18  and  C_19
REMARK    5  A    between atoms: C_19  and  C_20
REMARK                            x       y       z     vdW  Elec       q    Type
REMARK                         _______ _______ _______ _____ _____    ______ ____
ROOT
ATOM      1  C   UNL     1       0.446  10.821  18.506  0.00  0.00    +0.000 C 
ATOM      2  C   UNL     1      -1.000  10.661  18.113  0.00  0.00    +0.000 A 
ATOM      3  C   UNL     1      -1.586   9.872  17.136  0.00  0.00    +0.000 A 
ATOM      4  C   UNL     1      -2.983   9.877  17.026  0.00  0.00    +0.000 A 
ATOM      5  C   UNL     1      -3.776  10.668  17.876  0.00  0.00    +0.000 A 
ATOM      6  C   UNL     1      -3.181  11.485  18.834  0.00  0.00    +0.000 A 
ATOM      7  C   UNL     1      -1.801  11.470  18.922  0.00  0.00    +0.000 A 
ATOM      8  C   UNL     1      -0.935  12.233  19.825  0.00  0.00    +0.000 C 
ATOM      9  O   UNL     1      -1.318  13.083  20.605  0.00  0.00    +0.000 OA
ATOM     10  N   UNL     1       0.357  11.802  19.599  0.00  0.00    +0.000 N 
ENDROOT
BRANCH   1  12
ATOM     11  N   UNL     1       1.848   8.834  18.011  0.00  0.00    +0.000 N 
ATOM     12  C   UNL     1       1.063   9.475  18.956  0.00  0.00    +0.000 C 
ATOM     13  O   UNL     1       0.932   9.053  20.105  0.00  0.00    +0.000 OA
ATOM     14  H   UNL     1       2.054   9.338  17.155  0.00  0.00    +0.000 HD
BRANCH  11  19
ATOM     15  C   UNL     1       4.454   3.683  17.878  0.00  0.00    +0.000 C 
ATOM     16  C   UNL     1       3.700   4.966  17.533  0.00  0.00    +0.000 C 
ATOM     17  C   UNL     1       2.400   5.073  18.341  0.00  0.00    +0.000 C 
ATOM     18  C   UNL     1       1.662   6.383  18.061  0.00  0.00    +0.000 C 
ATOM     19  C   UNL     1       2.563   7.598  18.300  0.00  0.00    +0.000 C 
ATOM     20  C   UNL     1       3.846   7.494  17.468  0.00  0.00    +0.000 C 
ATOM     21  C   UNL     1       4.591   6.193  17.767  0.00  0.00    +0.000 C 
ENDBRANCH  11  19
ENDBRANCH   1  12
BRANCH  10  22
ATOM     22  C   UNL     1       1.530  12.376  20.240  0.00  0.00    +0.000 C 
BRANCH  22  23
ATOM     23  C   UNL     1       2.041  13.539  19.451  0.00  0.00    +0.000 A 
ATOM     24  C   UNL     1       2.867  13.531  18.343  0.00  0.00    +0.000 A 
ATOM     25  C   UNL     1       3.191  14.845  17.901  0.00  0.00    +0.000 A 
ATOM     26  C   UNL     1       2.556  15.812  18.646  0.00  0.00    +0.000 A 
ATOM     27  S   UNL     1       1.570  15.135  19.867  0.00  0.00    +0.000 S 
ENDBRANCH  22  23
ENDBRANCH  10  22
TORSDOF 4
ENDMDL
MODEL 8
REMARK VINA RESULT:      -7.6      2.007      4.617
REMARK  Name = 
REMARK  5 active torsions:
REMARK  status: ('A' for Active; 'I' for Inactive)
REMARK    1  A    between atoms: C_1  and  C_2
REMARK    2  A    between atoms: C_5  and  N_6
REMARK    3  A    between atoms: C_7  and  C_9
REMARK    4  A    between atoms: N_18  and  C_19
REMARK    5  A    between atoms: C_19  and  C_20
REMARK                            x       y       z     vdW  Elec       q    Type
REMARK                         _______ _______ _______ _____ _____    ______ ____
ROOT
ATOM      1  C   UNL     1       3.244   5.599  17.409  0.00  0.00    +0.000 C 
ATOM      2  C   UNL     1       4.662   5.654  16.901  0.00  0.00    +0.000 A 
ATOM      3  C   UNL     1       5.436   6.734  16.506  0.00  0.00    +0.000 A 
ATOM      4  C   UNL     1       6.764   6.496  16.127  0.00  0.00    +0.000 A 
ATOM      5  C   UNL     1       7.301   5.196  16.136  0.00  0.00    +0.000 A 
ATOM      6  C   UNL     1       6.510   4.111  16.502  0.00  0.00    +0.000 A 
ATOM      7  C   UNL     1       5.200   4.366  16.866  0.00  0.00    +0.000 A 
ATOM      8  C   UNL     1       4.165   3.414  17.279  0.00  0.00    +0.000 C 
ATOM      9  O   UNL     1       4.293   2.205  17.284  0.00  0.00    +0.000 OA
ATOM     10  N   UNL     1       3.058   4.158  17.635  0.00  0.00    +0.000 N 
ENDROOT
BRANCH   1  12
ATOM     11  N   UNL     1       2.142   7.463  18.621  0.00  0.00    +0.000 N 
ATOM     12  C   UNL     1       3.070   6.437  18.698  0.00  0.00    +0.000 C 
ATOM     13  O   UNL     1       3.656   6.151  19.741  0.00  0.00    +0.000 OA
ATOM     14  H   UNL     1       1.571   7.515  17.783  0.00  0.00    +0.000 HD
BRANCH  11  19
ATOM     15  C   UNL     1      -0.441  10.509  22.792  0.00  0.00    +0.000 C 
ATOM     16  C   UNL     1      -0.130   9.628  21.582  0.00  0.00    +0.000 C 
ATOM     17  C   UNL     1       0.640  10.416  20.513  0.00  0.00    +0.000 C 
ATOM     18  C   UNL     1       1.022   9.536  19.322  0.00  0.00    +0.000 C 
ATOM     19  C   UNL     1       1.803   8.297  19.766  0.00  0.00    +0.000 C 
ATOM     20  C   UNL     1       1.014   7.503  20.814  0.00  0.00    +0.000 C 
ATOM     21  C   UNL     1       0.654   8.381  22.012  0.00  0.00    +0.000 C 
ENDBRANCH  11  19
ENDBRANCH   1  12
BRANCH  10  22
ATOM     22  C   UNL     1       1.781   3.580  18.025  0.00  0.00    +0.000 C 
BRANCH  22  23
ATOM     23  C   UNL     1       1.788   3.226  19.478  0.00  0.00    +0.000 A 
ATOM     24  C   UNL     1       0.726   3.195  20.361  0.00  0.00    +0.000 A 
ATOM     25  C   UNL     1       1.134   2.873  21.686  0.00  0.00    +0.000 A 
ATOM     26  C   UNL     1       2.482   2.608  21.762  0.00  0.00    +0.000 A 
ATOM     27  S   UNL     1       3.247   2.744  20.239  0.00  0.00    +0.000 S 
ENDBRANCH  22  23
ENDBRANCH  10  22
TORSDOF 4
ENDMDL
MODEL 9
REMARK VINA RESULT:      -7.6      1.778      4.641
REMARK  Name = 
REMARK  5 active torsions:
REMARK  status: ('A' for Active; 'I' for Inactive)
REMARK    1  A    between atoms: C_1  and  C_2
REMARK    2  A    between atoms: C_5  and  N_6
REMARK    3  A    between atoms: C_7  and  C_9
REMARK    4  A    between atoms: N_18  and  C_19
REMARK    5  A    between atoms: C_19  and  C_20
REMARK                            x       y       z     vdW  Elec       q    Type
REMARK                         _______ _______ _______ _____ _____    ______ ____
ROOT
ATOM      1  C   UNL     1       4.372   6.068  17.038  0.00  0.00    +0.000 C 
ATOM      2  C   UNL     1       5.741   6.472  17.520  0.00  0.00    +0.000 A 
ATOM      3  C   UNL     1       6.539   7.549  17.167  0.00  0.00    +0.000 A 
ATOM      4  C   UNL     1       7.764   7.714  17.829  0.00  0.00    +0.000 A 
ATOM      5  C   UNL     1       8.181   6.809  18.821  0.00  0.00    +0.000 A 
ATOM      6  C   UNL     1       7.392   5.710  19.149  0.00  0.00    +0.000 A 
ATOM      7  C   UNL     1       6.190   5.562  18.479  0.00  0.00    +0.000 A 
ATOM      8  C   UNL     1       5.189   4.501  18.625  0.00  0.00    +0.000 C 
ATOM      9  O   UNL     1       5.314   3.517  19.327  0.00  0.00    +0.000 OA
ATOM     10  N   UNL     1       4.124   4.845  17.816  0.00  0.00    +0.000 N 
ENDROOT
BRANCH   1  12
ATOM     11  N   UNL     1       2.712   7.124  18.551  0.00  0.00    +0.000 N 
ATOM     12  C   UNL     1       3.325   7.175  17.309  0.00  0.00    +0.000 C 
ATOM     13  O   UNL     1       3.121   8.085  16.506  0.00  0.00    +0.000 OA
ATOM     14  H   UNL     1       3.071   6.453  19.222  0.00  0.00    +0.000 HD
BRANCH  11  19
ATOM     15  C   UNL     1      -0.002  11.644  20.907  0.00  0.00    +0.000 C 
ATOM     16  C   UNL     1       1.029  10.606  20.465  0.00  0.00    +0.000 C 
ATOM     17  C   UNL     1       0.673   9.215  21.006  0.00  0.00    +0.000 C 
ATOM     18  C   UNL     1       1.654   8.146  20.520  0.00  0.00    +0.000 C 
ATOM     19  C   UNL     1       1.761   8.135  18.993  0.00  0.00    +0.000 C 
ATOM     20  C   UNL     1       2.143   9.523  18.465  0.00  0.00    +0.000 C 
ATOM     21  C   UNL     1       1.148  10.583  18.935  0.00  0.00    +0.000 C 
ENDBRANCH  11  19
ENDBRANCH   1  12
BRANCH  10  22
ATOM     22  C   UNL     1       2.953   4.005  17.612  0.00  0.00    +0.000 C 
BRANCH  22  23
ATOM     23  C   UNL     1       2.331   3.648  18.924  0.00  0.00    +0.000 A 
ATOM     24  C   UNL     1       1.813   4.492  19.889  0.00  0.00    +0.000 A 
ATOM     25  C   UNL     1       1.363   3.786  21.040  0.00  0.00    +0.000 A 
ATOM     26  C   UNL     1       1.493   2.424  20.894  0.00  0.00    +0.000 A 
ATOM     27  S   UNL     1       2.152   2.003  19.373  0.00  0.00    +0.000 S 
ENDBRANCH  22  23
ENDBRANCH  10  22
TORSDOF 4
ENDMDL
