MODEL 1
REMARK VINA RESULT:      -6.9      0.000      0.000
REMARK  Name = 
REMARK  5 active torsions:
REMARK  status: ('A' for Active; 'I' for Inactive)
REMARK    1  A    between atoms: C_1  and  O_2
REMARK    2  A    between atoms: O_2  and  C_3
REMARK    3  A    between atoms: C_7  and  N_8
REMARK    4  A    between atoms: C_15  and  O_16
REMARK    5  A    between atoms: O_16  and  C_17
REMARK                            x       y       z     vdW  Elec       q    Type
REMARK                         _______ _______ _______ _____ _____    ______ ____
ROOT
ATOM      1  C   UNL     1       6.109   4.981  15.792  0.00  0.00    +0.000 A 
ATOM      2  C   UNL     1       5.000   4.187  16.124  0.00  0.00    +0.000 A 
ATOM      3  C   UNL     1       4.302   4.384  17.327  0.00  0.00    +0.000 A 
ATOM      4  C   UNL     1       3.125   3.678  17.622  0.00  0.00    +0.000 A 
ATOM      5  C   UNL     1       2.444   3.956  18.805  0.00  0.00    +0.000 A 
ATOM      6  C   UNL     1       2.967   4.897  19.670  0.00  0.00    +0.000 A 
ATOM      7  N   UNL     1       4.113   5.575  19.418  0.00  0.00    +0.000 NA
ATOM      8  C   UNL     1       4.760   5.332  18.262  0.00  0.00    +0.000 A 
ATOM      9  C   UNL     1       5.908   6.045  17.955  0.00  0.00    +0.000 A 
ATOM     10  C   UNL     1       6.589   5.899  16.733  0.00  0.00    +0.000 A 
ENDROOT
BRANCH   5  11
ATOM     11  N   UNL     1       1.189   3.298  19.122  0.00  0.00    +0.000 N 
ATOM     12  O   UNL     1       0.639   3.594  20.192  0.00  0.00    +0.000 OA
ATOM     13  O   UNL     1       0.747   2.469  18.311  0.00  0.00    +0.000 OA
ENDBRANCH   5  11
BRANCH   1  15
ATOM     14  C   UNL     1       6.180   3.883  13.689  0.00  0.00    +0.000 C 
ATOM     15  O   UNL     1       6.731   4.854  14.579  0.00  0.00    +0.000 OA
ENDBRANCH   1  15
BRANCH  10  16
ATOM     16  O   UNL     1       7.657   6.749  16.649  0.00  0.00    +0.000 OA
ATOM     17  C   UNL     1       7.740   7.862  17.522  0.00  0.00    +0.000 C 
ENDBRANCH  10  16
TORSDOF 3
ENDMDL
MODEL 2
REMARK VINA RESULT:      -6.8      2.218      5.836
REMARK  Name = 
REMARK  5 active torsions:
REMARK  status: ('A' for Active; 'I' for Inactive)
REMARK    1  A    between atoms: C_1  and  O_2
REMARK    2  A    between atoms: O_2  and  C_3
REMARK    3  A    between atoms: C_7  and  N_8
REMARK    4  A    between atoms: C_15  and  O_16
REMARK    5  A    between atoms: O_16  and  C_17
REMARK                            x       y       z     vdW  Elec       q    Type
REMARK                         _______ _______ _______ _____ _____    ______ ____
ROOT
ATOM      1  C   UNL     1       2.765   2.592  18.593  0.00  0.00    +0.000 A 
ATOM      2  C   UNL     1       3.250   3.017  17.347  0.00  0.00    +0.000 A 
ATOM      3  C   UNL     1       4.512   3.623  17.228  0.00  0.00    +0.000 A 
ATOM      4  C   UNL     1       5.060   3.949  15.978  0.00  0.00    +0.000 A 
ATOM      5  C   UNL     1       6.340   4.496  15.919  0.00  0.00    +0.000 A 
ATOM      6  C   UNL     1       7.019   4.733  17.098  0.00  0.00    +0.000 A 
ATOM      7  N   UNL     1       6.502   4.448  18.318  0.00  0.00    +0.000 NA
ATOM      8  C   UNL     1       5.278   3.891  18.380  0.00  0.00    +0.000 A 
ATOM      9  C   UNL     1       4.743   3.543  19.610  0.00  0.00    +0.000 A 
ATOM     10  C   UNL     1       3.506   2.889  19.744  0.00  0.00    +0.000 A 
ENDROOT
BRANCH   5  11
ATOM     11  N   UNL     1       6.973   4.789  14.646  0.00  0.00    +0.000 N 
ATOM     12  O   UNL     1       6.580   4.164  13.650  0.00  0.00    +0.000 OA
ATOM     13  O   UNL     1       7.879   5.637  14.629  0.00  0.00    +0.000 OA
ENDBRANCH   5  11
BRANCH   1  15
ATOM     14  C   UNL     1       0.404   2.720  18.795  0.00  0.00    +0.000 C 
ATOM     15  O   UNL     1       1.579   1.916  18.697  0.00  0.00    +0.000 OA
ENDBRANCH   1  15
BRANCH  10  16
ATOM     16  O   UNL     1       3.225   2.607  21.052  0.00  0.00    +0.000 OA
ATOM     17  C   UNL     1       2.249   3.370  21.741  0.00  0.00    +0.000 C 
ENDBRANCH  10  16
TORSDOF 3
ENDMDL
MODEL 3
REMARK VINA RESULT:      -6.7      1.477      2.987
REMARK  Name = 
REMARK  5 active torsions:
REMARK  status: ('A' for Active; 'I' for Inactive)
REMARK    1  A    between atoms: C_1  and  O_2
REMARK    2  A    between atoms: O_2  and  C_3
REMARK    3  A    between atoms: C_7  and  N_8
REMARK    4  A    between atoms: C_15  and  O_16
REMARK    5  A    between atoms: O_16  and  C_17
REMARK                            x       y       z     vdW  Elec       q    Type
REMARK                         _______ _______ _______ _____ _____    ______ ____
ROOT
ATOM      1  C   UNL     1       5.590   6.285  17.097  0.00  0.00    +0.000 A 
ATOM      2  C   UNL     1       4.853   6.032  18.263  0.00  0.00    +0.000 A 
ATOM      3  C   UNL     1       4.153   4.826  18.431  0.00  0.00    +0.000 A 
ATOM      4  C   UNL     1       3.506   4.508  19.636  0.00  0.00    +0.000 A 
ATOM      5  C   UNL     1       2.876   3.272  19.764  0.00  0.00    +0.000 A 
ATOM      6  C   UNL     1       2.877   2.408  18.686  0.00  0.00    +0.000 A 
ATOM      7  N   UNL     1       3.475   2.701  17.505  0.00  0.00    +0.000 NA
ATOM      8  C   UNL     1       4.112   3.882  17.386  0.00  0.00    +0.000 A 
ATOM      9  C   UNL     1       4.774   4.189  16.208  0.00  0.00    +0.000 A 
ATOM     10  C   UNL     1       5.523   5.367  16.042  0.00  0.00    +0.000 A 
ENDROOT
BRANCH   5  11
ATOM     11  N   UNL     1       2.250   2.874  21.012  0.00  0.00    +0.000 N 
ATOM     12  O   UNL     1       1.019   2.985  21.099  0.00  0.00    +0.000 OA
ATOM     13  O   UNL     1       2.983   2.459  21.923  0.00  0.00    +0.000 OA
ENDBRANCH   5  11
BRANCH   1  15
ATOM     14  C   UNL     1       7.627   7.390  17.607  0.00  0.00    +0.000 C 
ATOM     15  O   UNL     1       6.349   7.418  16.972  0.00  0.00    +0.000 OA
ENDBRANCH   1  15
BRANCH  10  16
ATOM     16  O   UNL     1       6.122   5.413  14.813  0.00  0.00    +0.000 OA
ATOM     17  C   UNL     1       6.563   4.213  14.202  0.00  0.00    +0.000 C 
ENDBRANCH  10  16
TORSDOF 3
ENDMDL
MODEL 4
REMARK VINA RESULT:      -6.6      1.195      2.960
REMARK  Name = 
REMARK  5 active torsions:
REMARK  status: ('A' for Active; 'I' for Inactive)
REMARK    1  A    between atoms: C_1  and  O_2
REMARK    2  A    between atoms: O_2  and  C_3
REMARK    3  A    between atoms: C_7  and  N_8
REMARK    4  A    between atoms: C_15  and  O_16
REMARK    5  A    between atoms: O_16  and  C_17
REMARK                            x       y       z     vdW  Elec       q    Type
REMARK                         _______ _______ _______ _____ _____    ______ ____
ROOT
ATOM      1  C   UNL     1       6.608   6.214  16.771  0.00  0.00    +0.000 A 
ATOM      2  C   UNL     1       5.602   6.462  17.718  0.00  0.00    +0.000 A 
ATOM      3  C   UNL     1       4.523   5.576  17.878  0.00  0.00    +0.000 A 
ATOM      4  C   UNL     1       3.571   5.748  18.895  0.00  0.00    +0.000 A 
ATOM      5  C   UNL     1       2.555   4.806  19.041  0.00  0.00    +0.000 A 
ATOM      6  C   UNL     1       2.495   3.747  18.157  0.00  0.00    +0.000 A 
ATOM      7  N   UNL     1       3.390   3.571  17.153  0.00  0.00    +0.000 NA
ATOM      8  C   UNL     1       4.391   4.463  17.026  0.00  0.00    +0.000 A 
ATOM      9  C   UNL     1       5.348   4.283  16.039  0.00  0.00    +0.000 A 
ATOM     10  C   UNL     1       6.462   5.129  15.898  0.00  0.00    +0.000 A 
ENDROOT
BRANCH   5  11
ATOM     11  N   UNL     1       1.587   4.907  20.118  0.00  0.00    +0.000 N 
ATOM     12  O   UNL     1       0.801   3.962  20.276  0.00  0.00    +0.000 OA
ATOM     13  O   UNL     1       1.592   5.937  20.810  0.00  0.00    +0.000 OA
ENDBRANCH   5  11
BRANCH   1  15
ATOM     14  C   UNL     1       7.793   8.077  17.639  0.00  0.00    +0.000 C 
ATOM     15  O   UNL     1       7.707   7.024  16.680  0.00  0.00    +0.000 OA
ENDBRANCH   1  15
BRANCH  10  16
ATOM     16  O   UNL     1       7.286   4.712  14.889  0.00  0.00    +0.000 OA
ATOM     17  C   UNL     1       6.726   4.227  13.681  0.00  0.00    +0.000 C 
ENDBRANCH  10  16
TORSDOF 3
ENDMDL
MODEL 5
REMARK VINA RESULT:      -6.6      2.034      5.617
REMARK  Name = 
REMARK  5 active torsions:
REMARK  status: ('A' for Active; 'I' for Inactive)
REMARK    1  A    between atoms: C_1  and  O_2
REMARK    2  A    between atoms: O_2  and  C_3
REMARK    3  A    between atoms: C_7  and  N_8
REMARK    4  A    between atoms: C_15  and  O_16
REMARK    5  A    between atoms: O_16  and  C_17
REMARK                            x       y       z     vdW  Elec       q    Type
REMARK                         _______ _______ _______ _____ _____    ______ ____
ROOT
ATOM      1  C   UNL     1       2.964   3.272  18.742  0.00  0.00    +0.000 A 
ATOM      2  C   UNL     1       3.566   3.184  17.478  0.00  0.00    +0.000 A 
ATOM      3  C   UNL     1       4.506   4.139  17.054  0.00  0.00    +0.000 A 
ATOM      4  C   UNL     1       5.201   4.005  15.843  0.00  0.00    +0.000 A 
ATOM      5  C   UNL     1       6.162   4.954  15.501  0.00  0.00    +0.000 A 
ATOM      6  C   UNL     1       6.379   6.020  16.353  0.00  0.00    +0.000 A 
ATOM      7  N   UNL     1       5.704   6.184  17.517  0.00  0.00    +0.000 NA
ATOM      8  C   UNL     1       4.795   5.253  17.866  0.00  0.00    +0.000 A 
ATOM      9  C   UNL     1       4.125   5.368  19.074  0.00  0.00    +0.000 A 
ATOM     10  C   UNL     1       3.221   4.395  19.537  0.00  0.00    +0.000 A 
ENDROOT
BRANCH   5  11
ATOM     11  N   UNL     1       6.952   4.821  14.291  0.00  0.00    +0.000 N 
ATOM     12  O   UNL     1       7.937   5.563  14.162  0.00  0.00    +0.000 OA
ATOM     13  O   UNL     1       6.590   3.985  13.449  0.00  0.00    +0.000 OA
ENDBRANCH   5  11
BRANCH   1  15
ATOM     14  C   UNL     1       0.757   2.401  18.791  0.00  0.00    +0.000 C 
ATOM     15  O   UNL     1       2.122   2.291  19.193  0.00  0.00    +0.000 OA
ENDBRANCH   1  15
BRANCH  10  16
ATOM     16  O   UNL     1       2.733   4.711  20.775  0.00  0.00    +0.000 OA
ATOM     17  C   UNL     1       1.570   5.512  20.888  0.00  0.00    +0.000 C 
ENDBRANCH  10  16
TORSDOF 3
ENDMDL
MODEL 6
REMARK VINA RESULT:      -6.6      2.674      5.788
REMARK  Name = 
REMARK  5 active torsions:
REMARK  status: ('A' for Active; 'I' for Inactive)
REMARK    1  A    between atoms: C_1  and  O_2
REMARK    2  A    between atoms: O_2  and  C_3
REMARK    3  A    between atoms: C_7  and  N_8
REMARK    4  A    between atoms: C_15  and  O_16
REMARK    5  A    between atoms: O_16  and  C_17
REMARK                            x       y       z     vdW  Elec       q    Type
REMARK                         _______ _______ _______ _____ _____    ______ ____
ROOT
ATOM      1  C   UNL     1       2.774   7.204  18.570  0.00  0.00    +0.000 A 
ATOM      2  C   UNL     1       3.735   7.241  17.548  0.00  0.00    +0.000 A 
ATOM      3  C   UNL     1       4.371   6.068  17.108  0.00  0.00    +0.000 A 
ATOM      4  C   UNL     1       5.247   6.070  16.012  0.00  0.00    +0.000 A 
ATOM      5  C   UNL     1       5.805   4.866  15.586  0.00  0.00    +0.000 A 
ATOM      6  C   UNL     1       5.504   3.709  16.278  0.00  0.00    +0.000 A 
ATOM      7  N   UNL     1       4.678   3.686  17.353  0.00  0.00    +0.000 NA
ATOM      8  C   UNL     1       4.113   4.842  17.751  0.00  0.00    +0.000 A 
ATOM      9  C   UNL     1       3.226   4.840  18.816  0.00  0.00    +0.000 A 
ATOM     10  C   UNL     1       2.541   5.994  19.236  0.00  0.00    +0.000 A 
ENDROOT
BRANCH   5  11
ATOM     11  N   UNL     1       6.666   4.809  14.418  0.00  0.00    +0.000 N 
ATOM     12  O   UNL     1       6.349   4.030  13.508  0.00  0.00    +0.000 OA
ATOM     13  O   UNL     1       7.673   5.533  14.403  0.00  0.00    +0.000 OA
ENDBRANCH   5  11
BRANCH   1  15
ATOM     14  C   UNL     1       1.753   9.231  17.878  0.00  0.00    +0.000 C 
ATOM     15  O   UNL     1       2.085   8.330  18.933  0.00  0.00    +0.000 OA
ENDBRANCH   1  15
BRANCH  10  16
ATOM     16  O   UNL     1       1.686   5.724  20.268  0.00  0.00    +0.000 OA
ATOM     17  C   UNL     1       1.466   4.381  20.665  0.00  0.00    +0.000 C 
ENDBRANCH  10  16
TORSDOF 3
ENDMDL
MODEL 7
REMARK VINA RESULT:      -6.6      3.162      5.396
REMARK  Name = 
REMARK  5 active torsions:
REMARK  status: ('A' for Active; 'I' for Inactive)
REMARK    1  A    between atoms: C_1  and  O_2
REMARK    2  A    between atoms: O_2  and  C_3
REMARK    3  A    between atoms: C_7  and  N_8
REMARK    4  A    between atoms: C_15  and  O_16
REMARK    5  A    between atoms: O_16  and  C_17
REMARK                            x       y       z     vdW  Elec       q    Type
REMARK                         _______ _______ _______ _____ _____    ______ ____
ROOT
ATOM      1  C   UNL     1       5.168   4.113  18.464  0.00  0.00    +0.000 A 
ATOM      2  C   UNL     1       4.810   3.743  17.159  0.00  0.00    +0.000 A 
ATOM      3  C   UNL     1       5.611   4.097  16.060  0.00  0.00    +0.000 A 
ATOM      4  C   UNL     1       5.330   3.639  14.763  0.00  0.00    +0.000 A 
ATOM      5  C   UNL     1       6.193   3.976  13.722  0.00  0.00    +0.000 A 
ATOM      6  C   UNL     1       7.283   4.780  13.992  0.00  0.00    +0.000 A 
ATOM      7  N   UNL     1       7.563   5.252  15.231  0.00  0.00    +0.000 NA
ATOM      8  C   UNL     1       6.749   4.906  16.247  0.00  0.00    +0.000 A 
ATOM      9  C   UNL     1       7.037   5.334  17.533  0.00  0.00    +0.000 A 
ATOM     10  C   UNL     1       6.277   4.946  18.651  0.00  0.00    +0.000 A 
ENDROOT
BRANCH   5  11
ATOM     11  N   UNL     1       5.978   3.472  12.377  0.00  0.00    +0.000 N 
ATOM     12  O   UNL     1       6.977   3.150  11.718  0.00  0.00    +0.000 OA
ATOM     13  O   UNL     1       4.812   3.406  11.960  0.00  0.00    +0.000 OA
ENDBRANCH   5  11
BRANCH   1  15
ATOM     14  C   UNL     1       3.586   2.566  19.322  0.00  0.00    +0.000 C 
ATOM     15  O   UNL     1       4.440   3.688  19.543  0.00  0.00    +0.000 OA
ENDBRANCH   1  15
BRANCH  10  16
ATOM     16  O   UNL     1       6.793   5.455  19.811  0.00  0.00    +0.000 OA
ATOM     17  C   UNL     1       8.193   5.628  19.940  0.00  0.00    +0.000 C 
ENDBRANCH  10  16
TORSDOF 3
ENDMDL
MODEL 8
REMARK VINA RESULT:      -6.5      1.442      2.958
REMARK  Name = 
REMARK  5 active torsions:
REMARK  status: ('A' for Active; 'I' for Inactive)
REMARK    1  A    between atoms: C_1  and  O_2
REMARK    2  A    between atoms: O_2  and  C_3
REMARK    3  A    between atoms: C_7  and  N_8
REMARK    4  A    between atoms: C_15  and  O_16
REMARK    5  A    between atoms: O_16  and  C_17
REMARK                            x       y       z     vdW  Elec       q    Type
REMARK                         _______ _______ _______ _____ _____    ______ ____
ROOT
ATOM      1  C   UNL     1       6.798   5.685  18.031  0.00  0.00    +0.000 A 
ATOM      2  C   UNL     1       5.823   5.544  19.030  0.00  0.00    +0.000 A 
ATOM      3  C   UNL     1       4.771   4.622  18.893  0.00  0.00    +0.000 A 
ATOM      4  C   UNL     1       3.855   4.387  19.929  0.00  0.00    +0.000 A 
ATOM      5  C   UNL     1       2.867   3.420  19.757  0.00  0.00    +0.000 A 
ATOM      6  C   UNL     1       2.798   2.743  18.555  0.00  0.00    +0.000 A 
ATOM      7  N   UNL     1       3.658   2.969  17.531  0.00  0.00    +0.000 NA
ATOM      8  C   UNL     1       4.633   3.881  17.703  0.00  0.00    +0.000 A 
ATOM      9  C   UNL     1       5.556   4.098  16.692  0.00  0.00    +0.000 A 
ATOM     10  C   UNL     1       6.644   4.977  16.832  0.00  0.00    +0.000 A 
ENDROOT
BRANCH   5  11
ATOM     11  N   UNL     1       1.938   3.097  20.825  0.00  0.00    +0.000 N 
ATOM     12  O   UNL     1       0.757   2.884  20.515  0.00  0.00    +0.000 OA
ATOM     13  O   UNL     1       2.375   3.065  21.985  0.00  0.00    +0.000 OA
ENDBRANCH   5  11
BRANCH   1  15
ATOM     14  C   UNL     1       7.741   7.834  17.685  0.00  0.00    +0.000 C 
ATOM     15  O   UNL     1       7.874   6.512  18.206  0.00  0.00    +0.000 OA
ENDBRANCH   1  15
BRANCH  10  16
ATOM     16  O   UNL     1       7.439   4.976  15.719  0.00  0.00    +0.000 OA
ATOM     17  C   UNL     1       6.868   4.708  14.450  0.00  0.00    +0.000 C 
ENDBRANCH  10  16
TORSDOF 3
ENDMDL
MODEL 9
REMARK VINA RESULT:      -6.5      2.083      5.629
REMARK  Name = 
REMARK  5 active torsions:
REMARK  status: ('A' for Active; 'I' for Inactive)
REMARK    1  A    between atoms: C_1  and  O_2
REMARK    2  A    between atoms: O_2  and  C_3
REMARK    3  A    between atoms: C_7  and  N_8
REMARK    4  A    between atoms: C_15  and  O_16
REMARK    5  A    between atoms: O_16  and  C_17
REMARK                            x       y       z     vdW  Elec       q    Type
REMARK                         _______ _______ _______ _____ _____    ______ ____
ROOT
ATOM      1  C   UNL     1       2.526   3.869  19.241  0.00  0.00    +0.000 A 
ATOM      2  C   UNL     1       3.304   3.487  18.138  0.00  0.00    +0.000 A 
ATOM      3  C   UNL     1       4.012   4.438  17.385  0.00  0.00    +0.000 A 
ATOM      4  C   UNL     1       4.884   4.063  16.351  0.00  0.00    +0.000 A 
ATOM      5  C   UNL     1       5.602   5.047  15.676  0.00  0.00    +0.000 A 
ATOM      6  C   UNL     1       5.409   6.370  16.023  0.00  0.00    +0.000 A 
ATOM      7  N   UNL     1       4.556   6.759  17.002  0.00  0.00    +0.000 NA
ATOM      8  C   UNL     1       3.881   5.810  17.678  0.00  0.00    +0.000 A 
ATOM      9  C   UNL     1       3.039   6.174  18.717  0.00  0.00    +0.000 A 
ATOM     10  C   UNL     1       2.365   5.233  19.514  0.00  0.00    +0.000 A 
ENDROOT
BRANCH   5  11
ATOM     11  N   UNL     1       6.563   4.701  14.644  0.00  0.00    +0.000 N 
ATOM     12  O   UNL     1       7.564   5.422  14.525  0.00  0.00    +0.000 OA
ATOM     13  O   UNL     1       6.322   3.713  13.933  0.00  0.00    +0.000 OA
ENDBRANCH   5  11
BRANCH   1  15
ATOM     14  C   UNL     1       2.509   2.705  21.309  0.00  0.00    +0.000 C 
ATOM     15  O   UNL     1       1.915   2.934  20.032  0.00  0.00    +0.000 OA
ENDBRANCH   1  15
BRANCH  10  16
ATOM     16  O   UNL     1       1.641   5.839  20.504  0.00  0.00    +0.000 OA
ATOM     17  C   UNL     1       1.688   7.248  20.646  0.00  0.00    +0.000 C 
ENDBRANCH  10  16
TORSDOF 3
ENDMDL
