MODEL 1
REMARK VINA RESULT:      -8.2      0.000      0.000
REMARK  Name = 
REMARK  4 active torsions:
REMARK  status: ('A' for Active; 'I' for Inactive)
REMARK    1  A    between atoms: C_2  and  C_3
REMARK    2  A    between atoms: C_4  and  C_5
REMARK    3  A    between atoms: N_13  and  N_14
REMARK    4  A    between atoms: C_15  and  C_17
REMARK                            x       y       z     vdW  Elec       q    Type
REMARK                         _______ _______ _______ _____ _____    ______ ____
ROOT
ATOM      1  O   UNL     1       8.174   6.856  18.760  0.00  0.00    +0.000 OA
ATOM      2  C   UNL     1       7.735   7.741  18.035  0.00  0.00    +0.000 C 
ATOM      3  N   UNL     1       6.608   7.609  17.252  0.00  0.00    +0.000 N 
ATOM      4  H   UNL     1       6.215   8.348  16.674  0.00  0.00    +0.000 HD
ENDROOT
BRANCH   3   5
ATOM      5  N   UNL     1       5.876   6.416  17.297  0.00  0.00    +0.000 N 
ATOM      6  C   UNL     1       4.519   6.497  17.550  0.00  0.00    +0.000 C 
ATOM      7  O   UNL     1       3.941   7.563  17.742  0.00  0.00    +0.000 OA
ATOM      8  H   UNL     1       6.341   5.580  16.948  0.00  0.00    +0.000 HD
BRANCH   6   9
ATOM      9  C   UNL     1       3.770   5.209  17.558  0.00  0.00    +0.000 A 
ATOM     10  C   UNL     1       2.397   5.166  17.830  0.00  0.00    +0.000 A 
ATOM     11  C   UNL     1       1.722   3.943  17.825  0.00  0.00    +0.000 A 
ATOM     12  C   UNL     1       2.411   2.764  17.544  0.00  0.00    +0.000 A 
ATOM     13  C   UNL     1       3.774   2.803  17.251  0.00  0.00    +0.000 A 
ATOM     14  C   UNL     1       4.453   4.026  17.250  0.00  0.00    +0.000 A 
ENDBRANCH   6   9
ENDBRANCH   3   5
BRANCH   2  15
ATOM     15  C   UNL     1       8.367   9.085  17.912  0.00  0.00    +0.000 C 
ATOM     16  C   UNL     1       9.008   9.640  18.952  0.00  0.00    +0.000 C 
BRANCH  16  17
ATOM     17  C   UNL     1       9.656  10.956  18.857  0.00  0.00    +0.000 A 
ATOM     18  C   UNL     1      10.280  11.310  17.650  0.00  0.00    +0.000 A 
ATOM     19  C   UNL     1      10.913  12.550  17.512  0.00  0.00    +0.000 A 
ATOM     20  C   UNL     1      10.930  13.444  18.581  0.00  0.00    +0.000 A 
ATOM     21 CL   UNL     1      11.715  14.965  18.409  0.00  0.00    +0.000 Cl
ATOM     22  C   UNL     1      10.316  13.114  19.785  0.00  0.00    +0.000 A 
ATOM     23  C   UNL     1       9.681  11.874  19.923  0.00  0.00    +0.000 A 
ATOM     24 CL   UNL     1       8.930  11.523  21.441  0.00  0.00    +0.000 Cl
ENDBRANCH  16  17
ENDBRANCH   2  15
TORSDOF 4
ENDMDL
MODEL 2
REMARK VINA RESULT:      -8.2      0.093      1.034
REMARK  Name = 
REMARK  4 active torsions:
REMARK  status: ('A' for Active; 'I' for Inactive)
REMARK    1  A    between atoms: C_2  and  C_3
REMARK    2  A    between atoms: C_4  and  C_5
REMARK    3  A    between atoms: N_13  and  N_14
REMARK    4  A    between atoms: C_15  and  C_17
REMARK                            x       y       z     vdW  Elec       q    Type
REMARK                         _______ _______ _______ _____ _____    ______ ____
ROOT
ATOM      1  O   UNL     1       8.221   6.825  18.701  0.00  0.00    +0.000 OA
ATOM      2  C   UNL     1       7.766   7.732  18.014  0.00  0.00    +0.000 C 
ATOM      3  N   UNL     1       6.611   7.630  17.268  0.00  0.00    +0.000 N 
ATOM      4  H   UNL     1       6.206   8.387  16.723  0.00  0.00    +0.000 HD
ENDROOT
BRANCH   3   5
ATOM      5  N   UNL     1       5.870   6.442  17.309  0.00  0.00    +0.000 N 
ATOM      6  C   UNL     1       4.504   6.537  17.505  0.00  0.00    +0.000 C 
ATOM      7  O   UNL     1       3.927   7.611  17.651  0.00  0.00    +0.000 OA
ATOM      8  H   UNL     1       6.342   5.596  16.997  0.00  0.00    +0.000 HD
BRANCH   6   9
ATOM      9  C   UNL     1       3.746   5.255  17.511  0.00  0.00    +0.000 A 
ATOM     10  C   UNL     1       4.364   4.042  17.182  0.00  0.00    +0.000 A 
ATOM     11  C   UNL     1       3.627   2.855  17.200  0.00  0.00    +0.000 A 
ATOM     12  C   UNL     1       2.279   2.873  17.552  0.00  0.00    +0.000 A 
ATOM     13  C   UNL     1       1.664   4.075  17.901  0.00  0.00    +0.000 A 
ATOM     14  C   UNL     1       2.398   5.265  17.889  0.00  0.00    +0.000 A 
ENDBRANCH   6   9
ENDBRANCH   3   5
BRANCH   2  15
ATOM     15  C   UNL     1       8.407   9.073  17.902  0.00  0.00    +0.000 C 
ATOM     16  C   UNL     1       8.954   9.663  18.975  0.00  0.00    +0.000 C 
BRANCH  16  17
ATOM     17  C   UNL     1       9.609  10.977  18.893  0.00  0.00    +0.000 A 
ATOM     18  C   UNL     1      10.210  11.353  17.681  0.00  0.00    +0.000 A 
ATOM     19  C   UNL     1      10.848  12.591  17.556  0.00  0.00    +0.000 A 
ATOM     20  C   UNL     1      10.892  13.463  18.642  0.00  0.00    +0.000 A 
ATOM     21 CL   UNL     1      11.683  14.982  18.486  0.00  0.00    +0.000 Cl
ATOM     22  C   UNL     1      10.301  13.112  19.852  0.00  0.00    +0.000 A 
ATOM     23  C   UNL     1       9.661  11.873  19.977  0.00  0.00    +0.000 A 
ATOM     24 CL   UNL     1       8.940  11.495  21.503  0.00  0.00    +0.000 Cl
ENDBRANCH  16  17
ENDBRANCH   2  15
TORSDOF 4
ENDMDL
MODEL 3
REMARK VINA RESULT:      -7.6      1.782      2.112
REMARK  Name = 
REMARK  4 active torsions:
REMARK  status: ('A' for Active; 'I' for Inactive)
REMARK    1  A    between atoms: C_2  and  C_3
REMARK    2  A    between atoms: C_4  and  C_5
REMARK    3  A    between atoms: N_13  and  N_14
REMARK    4  A    between atoms: C_15  and  C_17
REMARK                            x       y       z     vdW  Elec       q    Type
REMARK                         _______ _______ _______ _____ _____    ______ ____
ROOT
ATOM      1  O   UNL     1       7.070   7.171  16.579  0.00  0.00    +0.000 OA
ATOM      2  C   UNL     1       7.469   7.250  17.735  0.00  0.00    +0.000 C 
ATOM      3  N   UNL     1       7.143   6.350  18.726  0.00  0.00    +0.000 N 
ATOM      4  H   UNL     1       7.497   6.386  19.679  0.00  0.00    +0.000 HD
ENDROOT
BRANCH   3   5
ATOM      5  N   UNL     1       6.341   5.245  18.414  0.00  0.00    +0.000 N 
ATOM      6  C   UNL     1       5.050   5.220  18.909  0.00  0.00    +0.000 C 
ATOM      7  O   UNL     1       4.590   6.117  19.611  0.00  0.00    +0.000 OA
ATOM      8  H   UNL     1       6.682   4.623  17.684  0.00  0.00    +0.000 HD
BRANCH   6   9
ATOM      9  C   UNL     1       4.219   4.044  18.529  0.00  0.00    +0.000 A 
ATOM     10  C   UNL     1       4.394   2.798  19.144  0.00  0.00    +0.000 A 
ATOM     11  C   UNL     1       3.595   1.715  18.769  0.00  0.00    +0.000 A 
ATOM     12  C   UNL     1       2.618   1.873  17.787  0.00  0.00    +0.000 A 
ATOM     13  C   UNL     1       2.424   3.116  17.187  0.00  0.00    +0.000 A 
ATOM     14  C   UNL     1       3.218   4.204  17.563  0.00  0.00    +0.000 A 
ENDBRANCH   6   9
ENDBRANCH   3   5
BRANCH   2  15
ATOM     15  C   UNL     1       8.369   8.336  18.216  0.00  0.00    +0.000 C 
ATOM     16  C   UNL     1       8.134   9.616  17.891  0.00  0.00    +0.000 C 
BRANCH  16  17
ATOM     17  C   UNL     1       8.992  10.712  18.365  0.00  0.00    +0.000 A 
ATOM     18  C   UNL     1      10.056  10.405  19.229  0.00  0.00    +0.000 A 
ATOM     19  C   UNL     1      10.898  11.413  19.709  0.00  0.00    +0.000 A 
ATOM     20  C   UNL     1      10.682  12.737  19.330  0.00  0.00    +0.000 A 
ATOM     21 CL   UNL     1      11.717  13.975  19.927  0.00  0.00    +0.000 Cl
ATOM     22  C   UNL     1       9.637  13.063  18.472  0.00  0.00    +0.000 A 
ATOM     23  C   UNL     1       8.794  12.053  17.991  0.00  0.00    +0.000 A 
ATOM     24 CL   UNL     1       7.515  12.519  16.923  0.00  0.00    +0.000 Cl
ENDBRANCH  16  17
ENDBRANCH   2  15
TORSDOF 4
ENDMDL
MODEL 4
REMARK VINA RESULT:      -7.4      3.899      9.614
REMARK  Name = 
REMARK  4 active torsions:
REMARK  status: ('A' for Active; 'I' for Inactive)
REMARK    1  A    between atoms: C_2  and  C_3
REMARK    2  A    between atoms: C_4  and  C_5
REMARK    3  A    between atoms: N_13  and  N_14
REMARK    4  A    between atoms: C_15  and  C_17
REMARK                            x       y       z     vdW  Elec       q    Type
REMARK                         _______ _______ _______ _____ _____    ______ ____
ROOT
ATOM      1  O   UNL     1       8.397   7.329  16.458  0.00  0.00    +0.000 OA
ATOM      2  C   UNL     1       7.601   7.563  17.360  0.00  0.00    +0.000 C 
ATOM      3  N   UNL     1       7.612   8.713  18.119  0.00  0.00    +0.000 N 
ATOM      4  H   UNL     1       6.934   8.933  18.846  0.00  0.00    +0.000 HD
ENDROOT
BRANCH   3   5
ATOM      5  N   UNL     1       8.554   9.711  17.841  0.00  0.00    +0.000 N 
ATOM      6  C   UNL     1       9.173  10.335  18.909  0.00  0.00    +0.000 C 
ATOM      7  O   UNL     1       8.923  10.054  20.078  0.00  0.00    +0.000 OA
ATOM      8  H   UNL     1       8.874   9.783  16.877  0.00  0.00    +0.000 HD
BRANCH   6   9
ATOM      9  C   UNL     1      10.191  11.368  18.572  0.00  0.00    +0.000 A 
ATOM     10  C   UNL     1      11.394  11.465  19.282  0.00  0.00    +0.000 A 
ATOM     11  C   UNL     1      12.332  12.443  18.938  0.00  0.00    +0.000 A 
ATOM     12  C   UNL     1      12.076  13.318  17.885  0.00  0.00    +0.000 A 
ATOM     13  C   UNL     1      10.889  13.212  17.159  0.00  0.00    +0.000 A 
ATOM     14  C   UNL     1       9.950  12.232  17.496  0.00  0.00    +0.000 A 
ENDBRANCH   6   9
ENDBRANCH   3   5
BRANCH   2  15
ATOM     15  C   UNL     1       6.508   6.627  17.748  0.00  0.00    +0.000 C 
ATOM     16  C   UNL     1       5.358   6.592  17.057  0.00  0.00    +0.000 C 
BRANCH  16  17
ATOM     17  C   UNL     1       4.268   5.668  17.404  0.00  0.00    +0.000 A 
ATOM     18  C   UNL     1       3.227   6.135  18.223  0.00  0.00    +0.000 A 
ATOM     19  C   UNL     1       2.171   5.293  18.583  0.00  0.00    +0.000 A 
ATOM     20  C   UNL     1       2.147   3.975  18.129  0.00  0.00    +0.000 A 
ATOM     21 CL   UNL     1       0.848   2.941  18.579  0.00  0.00    +0.000 Cl
ATOM     22  C   UNL     1       3.166   3.492  17.314  0.00  0.00    +0.000 A 
ATOM     23  C   UNL     1       4.224   4.336  16.953  0.00  0.00    +0.000 A 
ATOM     24 CL   UNL     1       5.458   3.681  15.934  0.00  0.00    +0.000 Cl
ENDBRANCH  16  17
ENDBRANCH   2  15
TORSDOF 4
ENDMDL
MODEL 5
REMARK VINA RESULT:      -7.4      3.498      9.523
REMARK  Name = 
REMARK  4 active torsions:
REMARK  status: ('A' for Active; 'I' for Inactive)
REMARK    1  A    between atoms: C_2  and  C_3
REMARK    2  A    between atoms: C_4  and  C_5
REMARK    3  A    between atoms: N_13  and  N_14
REMARK    4  A    between atoms: C_15  and  C_17
REMARK                            x       y       z     vdW  Elec       q    Type
REMARK                         _______ _______ _______ _____ _____    ______ ____
ROOT
ATOM      1  O   UNL     1       8.157   7.129  16.386  0.00  0.00    +0.000 OA
ATOM      2  C   UNL     1       7.353   7.353  17.284  0.00  0.00    +0.000 C 
ATOM      3  N   UNL     1       7.292   8.538  17.985  0.00  0.00    +0.000 N 
ATOM      4  H   UNL     1       6.607   8.748  18.707  0.00  0.00    +0.000 HD
ENDROOT
BRANCH   3   5
ATOM      5  N   UNL     1       8.162   9.583  17.647  0.00  0.00    +0.000 N 
ATOM      6  C   UNL     1       8.918  10.150  18.657  0.00  0.00    +0.000 C 
ATOM      7  O   UNL     1       8.848   9.781  19.826  0.00  0.00    +0.000 OA
ATOM      8  H   UNL     1       8.335   9.732  16.655  0.00  0.00    +0.000 HD
BRANCH   6   9
ATOM      9  C   UNL     1       9.853  11.235  18.252  0.00  0.00    +0.000 A 
ATOM     10  C   UNL     1      11.237  11.109  18.429  0.00  0.00    +0.000 A 
ATOM     11  C   UNL     1      12.089  12.143  18.035  0.00  0.00    +0.000 A 
ATOM     12  C   UNL     1      11.566  13.300  17.460  0.00  0.00    +0.000 A 
ATOM     13  C   UNL     1      10.192  13.423  17.261  0.00  0.00    +0.000 A 
ATOM     14  C   UNL     1       9.335  12.388  17.649  0.00  0.00    +0.000 A 
ENDBRANCH   6   9
ENDBRANCH   3   5
BRANCH   2  15
ATOM     15  C   UNL     1       6.330   6.366  17.729  0.00  0.00    +0.000 C 
ATOM     16  C   UNL     1       5.149   6.271  17.100  0.00  0.00    +0.000 C 
BRANCH  16  17
ATOM     17  C   UNL     1       4.125   5.296  17.505  0.00  0.00    +0.000 A 
ATOM     18  C   UNL     1       4.422   3.928  17.394  0.00  0.00    +0.000 A 
ATOM     19  C   UNL     1       3.479   2.963  17.764  0.00  0.00    +0.000 A 
ATOM     20  C   UNL     1       2.232   3.358  18.244  0.00  0.00    +0.000 A 
ATOM     21 CL   UNL     1       1.074   2.168  18.692  0.00  0.00    +0.000 Cl
ATOM     22  C   UNL     1       1.918   4.708  18.365  0.00  0.00    +0.000 A 
ATOM     23  C   UNL     1       2.862   5.675  17.996  0.00  0.00    +0.000 A 
ATOM     24 CL   UNL     1       2.417   7.337  18.173  0.00  0.00    +0.000 Cl
ENDBRANCH  16  17
ENDBRANCH   2  15
TORSDOF 4
ENDMDL
MODEL 6
REMARK VINA RESULT:      -7.3      6.811      9.331
REMARK  Name = 
REMARK  4 active torsions:
REMARK  status: ('A' for Active; 'I' for Inactive)
REMARK    1  A    between atoms: C_2  and  C_3
REMARK    2  A    between atoms: C_4  and  C_5
REMARK    3  A    between atoms: N_13  and  N_14
REMARK    4  A    between atoms: C_15  and  C_17
REMARK                            x       y       z     vdW  Elec       q    Type
REMARK                         _______ _______ _______ _____ _____    ______ ____
ROOT
ATOM      1  O   UNL     1       1.167   9.174  19.881  0.00  0.00    +0.000 OA
ATOM      2  C   UNL     1       1.268   9.207  18.660  0.00  0.00    +0.000 C 
ATOM      3  N   UNL     1       0.493  10.001  17.843  0.00  0.00    +0.000 N 
ATOM      4  H   UNL     1       0.593  10.062  16.832  0.00  0.00    +0.000 HD
ENDROOT
BRANCH   3   5
ATOM      5  N   UNL     1      -0.450  10.863  18.416  0.00  0.00    +0.000 N 
ATOM      6  C   UNL     1      -1.790  10.590  18.207  0.00  0.00    +0.000 C 
ATOM      7  O   UNL     1      -2.177   9.635  17.538  0.00  0.00    +0.000 OA
ATOM      8  H   UNL     1      -0.106  11.521  19.112  0.00  0.00    +0.000 HD
BRANCH   6   9
ATOM      9  C   UNL     1      -2.762  11.511  18.859  0.00  0.00    +0.000 A 
ATOM     10  C   UNL     1      -4.110  11.535  18.481  0.00  0.00    +0.000 A 
ATOM     11  C   UNL     1      -4.998  12.407  19.116  0.00  0.00    +0.000 A 
ATOM     12  C   UNL     1      -4.546  13.251  20.129  0.00  0.00    +0.000 A 
ATOM     13  C   UNL     1      -3.210  13.216  20.525  0.00  0.00    +0.000 A 
ATOM     14  C   UNL     1      -2.318  12.341  19.896  0.00  0.00    +0.000 A 
ENDBRANCH   6   9
ENDBRANCH   3   5
BRANCH   2  15
ATOM     15  C   UNL     1       2.255   8.389  17.900  0.00  0.00    +0.000 C 
ATOM     16  C   UNL     1       2.570   7.147  18.300  0.00  0.00    +0.000 C 
BRANCH  16  17
ATOM     17  C   UNL     1       3.527   6.309  17.562  0.00  0.00    +0.000 A 
ATOM     18  C   UNL     1       4.579   6.937  16.877  0.00  0.00    +0.000 A 
ATOM     19  C   UNL     1       5.512   6.183  16.158  0.00  0.00    +0.000 A 
ATOM     20  C   UNL     1       5.399   4.794  16.118  0.00  0.00    +0.000 A 
ATOM     21 CL   UNL     1       6.545   3.870  15.228  0.00  0.00    +0.000 Cl
ATOM     22  C   UNL     1       4.366   4.151  16.792  0.00  0.00    +0.000 A 
ATOM     23  C   UNL     1       3.432   4.906  17.512  0.00  0.00    +0.000 A 
ATOM     24 CL   UNL     1       2.174   4.051  18.334  0.00  0.00    +0.000 Cl
ENDBRANCH  16  17
ENDBRANCH   2  15
TORSDOF 4
ENDMDL
MODEL 7
REMARK VINA RESULT:      -7.2      6.804      9.310
REMARK  Name = 
REMARK  4 active torsions:
REMARK  status: ('A' for Active; 'I' for Inactive)
REMARK    1  A    between atoms: C_2  and  C_3
REMARK    2  A    between atoms: C_4  and  C_5
REMARK    3  A    between atoms: N_13  and  N_14
REMARK    4  A    between atoms: C_15  and  C_17
REMARK                            x       y       z     vdW  Elec       q    Type
REMARK                         _______ _______ _______ _____ _____    ______ ____
ROOT
ATOM      1  O   UNL     1       1.295   9.021  19.983  0.00  0.00    +0.000 OA
ATOM      2  C   UNL     1       1.346   9.083  18.760  0.00  0.00    +0.000 C 
ATOM      3  N   UNL     1       0.526   9.883  17.994  0.00  0.00    +0.000 N 
ATOM      4  H   UNL     1       0.583   9.969  16.982  0.00  0.00    +0.000 HD
ENDROOT
BRANCH   3   5
ATOM      5  N   UNL     1      -0.406  10.717  18.625  0.00  0.00    +0.000 N 
ATOM      6  C   UNL     1      -1.704  10.718  18.148  0.00  0.00    +0.000 C 
ATOM      7  O   UNL     1      -2.063  10.029  17.197  0.00  0.00    +0.000 OA
ATOM      8  H   UNL     1      -0.128  11.122  19.517  0.00  0.00    +0.000 HD
BRANCH   6   9
ATOM      9  C   UNL     1      -2.672  11.593  18.865  0.00  0.00    +0.000 A 
ATOM     10  C   UNL     1      -2.256  12.451  19.892  0.00  0.00    +0.000 A 
ATOM     11  C   UNL     1      -3.188  13.263  20.543  0.00  0.00    +0.000 A 
ATOM     12  C   UNL     1      -4.530  13.228  20.170  0.00  0.00    +0.000 A 
ATOM     13  C   UNL     1      -4.946  12.392  19.134  0.00  0.00    +0.000 A 
ATOM     14  C   UNL     1      -4.017  11.580  18.476  0.00  0.00    +0.000 A 
ENDBRANCH   6   9
ENDBRANCH   3   5
BRANCH   2  15
ATOM     15  C   UNL     1       2.313   8.299  17.942  0.00  0.00    +0.000 C 
ATOM     16  C   UNL     1       2.724   7.086  18.342  0.00  0.00    +0.000 C 
BRANCH  16  17
ATOM     17  C   UNL     1       3.663   6.280  17.548  0.00  0.00    +0.000 A 
ATOM     18  C   UNL     1       4.716   6.934  16.887  0.00  0.00    +0.000 A 
ATOM     19  C   UNL     1       5.633   6.211  16.118  0.00  0.00    +0.000 A 
ATOM     20  C   UNL     1       5.504   4.828  16.001  0.00  0.00    +0.000 A 
ATOM     21 CL   UNL     1       6.630   3.943  15.049  0.00  0.00    +0.000 Cl
ATOM     22  C   UNL     1       4.470   4.159  16.650  0.00  0.00    +0.000 A 
ATOM     23  C   UNL     1       3.553   4.883  17.421  0.00  0.00    +0.000 A 
ATOM     24 CL   UNL     1       2.293   3.996  18.208  0.00  0.00    +0.000 Cl
ENDBRANCH  16  17
ENDBRANCH   2  15
TORSDOF 4
ENDMDL
MODEL 8
REMARK VINA RESULT:      -7.1      1.394      1.641
REMARK  Name = 
REMARK  4 active torsions:
REMARK  status: ('A' for Active; 'I' for Inactive)
REMARK    1  A    between atoms: C_2  and  C_3
REMARK    2  A    between atoms: C_4  and  C_5
REMARK    3  A    between atoms: N_13  and  N_14
REMARK    4  A    between atoms: C_15  and  C_17
REMARK                            x       y       z     vdW  Elec       q    Type
REMARK                         _______ _______ _______ _____ _____    ______ ____
ROOT
ATOM      1  O   UNL     1       8.547   7.323  18.773  0.00  0.00    +0.000 OA
ATOM      2  C   UNL     1       7.892   8.041  18.027  0.00  0.00    +0.000 C 
ATOM      3  N   UNL     1       6.733   7.644  17.396  0.00  0.00    +0.000 N 
ATOM      4  H   UNL     1       6.163   8.243  16.803  0.00  0.00    +0.000 HD
ENDROOT
BRANCH   3   5
ATOM      5  N   UNL     1       6.226   6.361  17.634  0.00  0.00    +0.000 N 
ATOM      6  C   UNL     1       4.854   6.212  17.725  0.00  0.00    +0.000 C 
ATOM      7  O   UNL     1       4.075   7.154  17.615  0.00  0.00    +0.000 OA
ATOM      8  H   UNL     1       6.877   5.585  17.528  0.00  0.00    +0.000 HD
BRANCH   6   9
ATOM      9  C   UNL     1       4.353   4.827  17.946  0.00  0.00    +0.000 A 
ATOM     10  C   UNL     1       4.916   3.995  18.922  0.00  0.00    +0.000 A 
ATOM     11  C   UNL     1       4.420   2.702  19.109  0.00  0.00    +0.000 A 
ATOM     12  C   UNL     1       3.362   2.239  18.329  0.00  0.00    +0.000 A 
ATOM     13  C   UNL     1       2.783   3.070  17.370  0.00  0.00    +0.000 A 
ATOM     14  C   UNL     1       3.272   4.366  17.183  0.00  0.00    +0.000 A 
ENDBRANCH   6   9
ENDBRANCH   3   5
BRANCH   2  15
ATOM     15  C   UNL     1       8.268   9.448  17.709  0.00  0.00    +0.000 C 
ATOM     16  C   UNL     1       8.907  10.208  18.612  0.00  0.00    +0.000 C 
BRANCH  16  17
ATOM     17  C   UNL     1       9.306  11.593  18.324  0.00  0.00    +0.000 A 
ATOM     18  C   UNL     1       8.419  12.411  17.604  0.00  0.00    +0.000 A 
ATOM     19  C   UNL     1       8.756  13.734  17.303  0.00  0.00    +0.000 A 
ATOM     20  C   UNL     1       9.983  14.250  17.716  0.00  0.00    +0.000 A 
ATOM     21 CL   UNL     1      10.395  15.877  17.337  0.00  0.00    +0.000 Cl
ATOM     22  C   UNL     1      10.875  13.459  18.432  0.00  0.00    +0.000 A 
ATOM     23  C   UNL     1      10.538  12.134  18.735  0.00  0.00    +0.000 A 
ATOM     24 CL   UNL     1      11.685  11.201  19.632  0.00  0.00    +0.000 Cl
ENDBRANCH  16  17
ENDBRANCH   2  15
TORSDOF 4
ENDMDL
MODEL 9
REMARK VINA RESULT:      -7.1      6.134      8.466
REMARK  Name = 
REMARK  4 active torsions:
REMARK  status: ('A' for Active; 'I' for Inactive)
REMARK    1  A    between atoms: C_2  and  C_3
REMARK    2  A    between atoms: C_4  and  C_5
REMARK    3  A    between atoms: N_13  and  N_14
REMARK    4  A    between atoms: C_15  and  C_17
REMARK                            x       y       z     vdW  Elec       q    Type
REMARK                         _______ _______ _______ _____ _____    ______ ____
ROOT
ATOM      1  O   UNL     1       2.029   9.820  17.435  0.00  0.00    +0.000 OA
ATOM      2  C   UNL     1       1.677   9.172  18.414  0.00  0.00    +0.000 C 
ATOM      3  N   UNL     1       2.243   7.971  18.787  0.00  0.00    +0.000 N 
ATOM      4  H   UNL     1       1.983   7.443  19.617  0.00  0.00    +0.000 HD
ENDROOT
BRANCH   3   5
ATOM      5  N   UNL     1       3.312   7.455  18.045  0.00  0.00    +0.000 N 
ATOM      6  C   UNL     1       3.552   6.094  18.112  0.00  0.00    +0.000 C 
ATOM      7  O   UNL     1       2.874   5.334  18.798  0.00  0.00    +0.000 OA
ATOM      8  H   UNL     1       3.727   8.071  17.349  0.00  0.00    +0.000 HD
BRANCH   6   9
ATOM      9  C   UNL     1       4.677   5.580  17.285  0.00  0.00    +0.000 A 
ATOM     10  C   UNL     1       5.882   6.285  17.173  0.00  0.00    +0.000 A 
ATOM     11  C   UNL     1       6.922   5.773  16.392  0.00  0.00    +0.000 A 
ATOM     12  C   UNL     1       6.765   4.558  15.728  0.00  0.00    +0.000 A 
ATOM     13  C   UNL     1       5.576   3.841  15.852  0.00  0.00    +0.000 A 
ATOM     14  C   UNL     1       4.535   4.346  16.637  0.00  0.00    +0.000 A 
ENDBRANCH   6   9
ENDBRANCH   3   5
BRANCH   2  15
ATOM     15  C   UNL     1       0.589   9.607  19.334  0.00  0.00    +0.000 C 
ATOM     16  C   UNL     1       0.764  10.650  20.159  0.00  0.00    +0.000 C 
BRANCH  16  17
ATOM     17  C   UNL     1      -0.296  11.114  21.066  0.00  0.00    +0.000 A 
ATOM     18  C   UNL     1      -1.174  12.113  20.615  0.00  0.00    +0.000 A 
ATOM     19  C   UNL     1      -2.196  12.589  21.442  0.00  0.00    +0.000 A 
ATOM     20  C   UNL     1      -2.347  12.072  22.728  0.00  0.00    +0.000 A 
ATOM     21 CL   UNL     1      -3.602  12.665  23.744  0.00  0.00    +0.000 Cl
ATOM     22  C   UNL     1      -1.490  11.080  23.194  0.00  0.00    +0.000 A 
ATOM     23  C   UNL     1      -0.468  10.602  22.365  0.00  0.00    +0.000 A 
ATOM     24 CL   UNL     1       0.562   9.365  22.997  0.00  0.00    +0.000 Cl
ENDBRANCH  16  17
ENDBRANCH   2  15
TORSDOF 4
ENDMDL
