MODEL 1
REMARK VINA RESULT:      -7.8      0.000      0.000
REMARK  Name = 
REMARK  10 active torsions:
REMARK  status: ('A' for Active; 'I' for Inactive)
REMARK    1  A    between atoms: C_1  and  C_2
REMARK    2  A    between atoms: C_2  and  O_3
REMARK    3  A    between atoms: O_3  and  C_4
REMARK    4  A    between atoms: C_7  and  C_8
REMARK    5  A    between atoms: C_10  and  C_11
REMARK    6  A    between atoms: C_11  and  N_12
REMARK    7  A    between atoms: N_12  and  C_13
REMARK    8  A    between atoms: N_12  and  C_15
REMARK    9  A    between atoms: C_13  and  C_14
REMARK   10  A    between atoms: C_19  and  C_20
REMARK                            x       y       z     vdW  Elec       q    Type
REMARK                         _______ _______ _______ _____ _____    ______ ____
ROOT
ATOM      1  C   UNL     1       3.019   5.420  18.515  0.00  0.00    +0.000 A 
ATOM      2  N   UNL     1       3.539   5.426  17.311  0.00  0.00    +0.000 NA
ATOM      3  C   UNL     1       4.201   4.225  17.215  0.00  0.00    +0.000 A 
ATOM      4  C   UNL     1       3.865   3.452  18.305  0.00  0.00    +0.000 A 
ATOM      5  O   UNL     1       3.131   4.219  19.166  0.00  0.00    +0.000 OA
ENDROOT
BRANCH   1   9
ATOM      6  C   UNL     1       1.084   8.601  20.613  0.00  0.00    +0.000 A 
ATOM      7  C   UNL     1       1.234   7.339  21.193  0.00  0.00    +0.000 A 
ATOM      8  C   UNL     1       1.903   6.322  20.508  0.00  0.00    +0.000 A 
ATOM      9  C   UNL     1       2.446   6.546  19.236  0.00  0.00    +0.000 A 
ATOM     10  C   UNL     1       2.308   7.815  18.663  0.00  0.00    +0.000 A 
ATOM     11  C   UNL     1       1.624   8.832  19.345  0.00  0.00    +0.000 A 
BRANCH   6  12
ATOM     12  O   UNL     1       0.422   9.657  21.185  0.00  0.00    +0.000 OA
BRANCH  12  14
ATOM     13  C   UNL     1      -0.885  10.622  22.971  0.00  0.00    +0.000 C 
ATOM     14  C   UNL     1      -0.288   9.355  22.390  0.00  0.00    +0.000 C 
ENDBRANCH  12  14
ENDBRANCH   6  12
ENDBRANCH   1   9
BRANCH   3  15
ATOM     15  C   UNL     1       5.120   3.939  16.067  0.00  0.00    +0.000 C 
BRANCH  15  16
ATOM     16  N   UNL     1       6.215   4.884  15.755  0.00  0.00    +0.000 N 
BRANCH  16  17
ATOM     17  C   UNL     1       6.946   5.513  16.764  0.00  0.00    +0.000 A 
ATOM     18  C   UNL     1       7.381   4.775  17.875  0.00  0.00    +0.000 A 
ATOM     19  C   UNL     1       8.012   5.389  18.961  0.00  0.00    +0.000 A 
ATOM     20  C   UNL     1       8.218   6.764  18.971  0.00  0.00    +0.000 A 
ATOM     21  C   UNL     1       7.821   7.527  17.875  0.00  0.00    +0.000 A 
ATOM     22  C   UNL     1       7.980   9.018  17.860  0.00  0.00    +0.000 C 
ATOM     23  C   UNL     1       7.216   6.886  16.780  0.00  0.00    +0.000 A 
ENDBRANCH  16  17
BRANCH  16  24
ATOM     24  C   UNL     1       6.886   4.750  14.453  0.00  0.00    +0.000 C 
ATOM     25  C   UNL     1       6.180   3.779  13.512  0.00  0.00    +0.000 C 
ENDBRANCH  16  24
ENDBRANCH  15  16
ENDBRANCH   3  15
TORSDOF 7
ENDMDL
MODEL 2
REMARK VINA RESULT:      -7.6      0.692      1.190
REMARK  Name = 
REMARK  10 active torsions:
REMARK  status: ('A' for Active; 'I' for Inactive)
REMARK    1  A    between atoms: C_1  and  C_2
REMARK    2  A    between atoms: C_2  and  O_3
REMARK    3  A    between atoms: O_3  and  C_4
REMARK    4  A    between atoms: C_7  and  C_8
REMARK    5  A    between atoms: C_10  and  C_11
REMARK    6  A    between atoms: C_11  and  N_12
REMARK    7  A    between atoms: N_12  and  C_13
REMARK    8  A    between atoms: N_12  and  C_15
REMARK    9  A    between atoms: C_13  and  C_14
REMARK   10  A    between atoms: C_19  and  C_20
REMARK                            x       y       z     vdW  Elec       q    Type
REMARK                         _______ _______ _______ _____ _____    ______ ____
ROOT
ATOM      1  C   UNL     1       2.756   5.659  18.061  0.00  0.00    +0.000 A 
ATOM      2  N   UNL     1       3.723   5.612  17.176  0.00  0.00    +0.000 NA
ATOM      3  C   UNL     1       4.085   4.287  17.130  0.00  0.00    +0.000 A 
ATOM      4  C   UNL     1       3.164   3.557  17.848  0.00  0.00    +0.000 A 
ATOM      5  O   UNL     1       2.321   4.428  18.478  0.00  0.00    +0.000 OA
ENDROOT
BRANCH   1   9
ATOM      6  C   UNL     1       1.348   9.265  19.871  0.00  0.00    +0.000 A 
ATOM      7  C   UNL     1       1.594   9.194  18.498  0.00  0.00    +0.000 A 
ATOM      8  C   UNL     1       2.017   7.997  17.917  0.00  0.00    +0.000 A 
ATOM      9  C   UNL     1       2.192   6.842  18.692  0.00  0.00    +0.000 A 
ATOM     10  C   UNL     1       1.931   6.911  20.065  0.00  0.00    +0.000 A 
ATOM     11  C   UNL     1       1.519   8.118  20.650  0.00  0.00    +0.000 A 
BRANCH   6  12
ATOM     12  O   UNL     1       0.958  10.395  20.544  0.00  0.00    +0.000 OA
BRANCH  12  14
ATOM     13  C   UNL     1      -0.507  11.259  22.256  0.00  0.00    +0.000 C 
ATOM     14  C   UNL     1      -0.391  10.391  21.019  0.00  0.00    +0.000 C 
ENDBRANCH  12  14
ENDBRANCH   6  12
ENDBRANCH   1   9
BRANCH   3  15
ATOM     15  C   UNL     1       5.317   3.848  16.398  0.00  0.00    +0.000 C 
BRANCH  15  16
ATOM     16  N   UNL     1       6.332   4.851  16.009  0.00  0.00    +0.000 N 
BRANCH  16  17
ATOM     17  C   UNL     1       7.057   5.564  16.964  0.00  0.00    +0.000 A 
ATOM     18  C   UNL     1       7.510   4.918  18.123  0.00  0.00    +0.000 A 
ATOM     19  C   UNL     1       8.136   5.620  19.158  0.00  0.00    +0.000 A 
ATOM     20  C   UNL     1       8.317   6.996  19.066  0.00  0.00    +0.000 A 
ATOM     21  C   UNL     1       7.902   7.669  17.919  0.00  0.00    +0.000 A 
ATOM     22  C   UNL     1       8.035   9.158  17.794  0.00  0.00    +0.000 C 
ATOM     23  C   UNL     1       7.303   6.940  16.878  0.00  0.00    +0.000 A 
ENDBRANCH  16  17
BRANCH  16  24
ATOM     24  C   UNL     1       6.960   4.713  14.686  0.00  0.00    +0.000 C 
ATOM     25  C   UNL     1       6.118   3.903  13.704  0.00  0.00    +0.000 C 
ENDBRANCH  16  24
ENDBRANCH  15  16
ENDBRANCH   3  15
TORSDOF 7
ENDMDL
MODEL 3
REMARK VINA RESULT:      -7.6      1.547      3.753
REMARK  Name = 
REMARK  10 active torsions:
REMARK  status: ('A' for Active; 'I' for Inactive)
REMARK    1  A    between atoms: C_1  and  C_2
REMARK    2  A    between atoms: C_2  and  O_3
REMARK    3  A    between atoms: O_3  and  C_4
REMARK    4  A    between atoms: C_7  and  C_8
REMARK    5  A    between atoms: C_10  and  C_11
REMARK    6  A    between atoms: C_11  and  N_12
REMARK    7  A    between atoms: N_12  and  C_13
REMARK    8  A    between atoms: N_12  and  C_15
REMARK    9  A    between atoms: C_13  and  C_14
REMARK   10  A    between atoms: C_19  and  C_20
REMARK                            x       y       z     vdW  Elec       q    Type
REMARK                         _______ _______ _______ _____ _____    ______ ____
ROOT
ATOM      1  C   UNL     1       3.058   6.078  18.763  0.00  0.00    +0.000 A 
ATOM      2  N   UNL     1       3.347   5.571  17.589  0.00  0.00    +0.000 NA
ATOM      3  C   UNL     1       4.218   4.543  17.861  0.00  0.00    +0.000 A 
ATOM      4  C   UNL     1       4.248   4.345  19.224  0.00  0.00    +0.000 A 
ATOM      5  O   UNL     1       3.531   5.345  19.819  0.00  0.00    +0.000 OA
ENDROOT
BRANCH   1   9
ATOM      6  C   UNL     1       0.878   9.652  19.622  0.00  0.00    +0.000 A 
ATOM      7  C   UNL     1       1.157   8.717  20.622  0.00  0.00    +0.000 A 
ATOM      8  C   UNL     1       1.904   7.575  20.332  0.00  0.00    +0.000 A 
ATOM      9  C   UNL     1       2.397   7.344  19.041  0.00  0.00    +0.000 A 
ATOM     10  C   UNL     1       2.129   8.288  18.044  0.00  0.00    +0.000 A 
ATOM     11  C   UNL     1       1.367   9.430  18.332  0.00  0.00    +0.000 A 
BRANCH   6  12
ATOM     12  O   UNL     1       0.132  10.790  19.794  0.00  0.00    +0.000 OA
BRANCH  12  14
ATOM     13  C   UNL     1      -1.866  11.272  18.528  0.00  0.00    +0.000 C 
ATOM     14  C   UNL     1      -0.356  11.390  18.591  0.00  0.00    +0.000 C 
ENDBRANCH  12  14
ENDBRANCH   6  12
ENDBRANCH   1   9
BRANCH   3  15
ATOM     15  C   UNL     1       4.961   3.848  16.761  0.00  0.00    +0.000 C 
BRANCH  15  16
ATOM     16  N   UNL     1       6.184   4.465  16.202  0.00  0.00    +0.000 N 
BRANCH  16  17
ATOM     17  C   UNL     1       6.501   4.360  14.847  0.00  0.00    +0.000 A 
ATOM     18  C   UNL     1       7.535   5.139  14.309  0.00  0.00    +0.000 A 
ATOM     19  C   UNL     1       7.808   5.151  12.937  0.00  0.00    +0.000 A 
ATOM     20  C   UNL     1       7.044   4.389  12.062  0.00  0.00    +0.000 A 
ATOM     21  C   UNL     1       6.023   3.583  12.561  0.00  0.00    +0.000 A 
ATOM     22  C   UNL     1       5.143   2.779  11.650  0.00  0.00    +0.000 C 
ATOM     23  C   UNL     1       5.786   3.562  13.946  0.00  0.00    +0.000 A 
ENDBRANCH  16  17
BRANCH  16  24
ATOM     24  C   UNL     1       6.760   5.614  16.917  0.00  0.00    +0.000 C 
ATOM     25  C   UNL     1       7.695   5.205  18.052  0.00  0.00    +0.000 C 
ENDBRANCH  16  24
ENDBRANCH  15  16
ENDBRANCH   3  15
TORSDOF 7
ENDMDL
MODEL 4
REMARK VINA RESULT:      -7.6      1.540      1.838
REMARK  Name = 
REMARK  10 active torsions:
REMARK  status: ('A' for Active; 'I' for Inactive)
REMARK    1  A    between atoms: C_1  and  C_2
REMARK    2  A    between atoms: C_2  and  O_3
REMARK    3  A    between atoms: O_3  and  C_4
REMARK    4  A    between atoms: C_7  and  C_8
REMARK    5  A    between atoms: C_10  and  C_11
REMARK    6  A    between atoms: C_11  and  N_12
REMARK    7  A    between atoms: N_12  and  C_13
REMARK    8  A    between atoms: N_12  and  C_15
REMARK    9  A    between atoms: C_13  and  C_14
REMARK   10  A    between atoms: C_19  and  C_20
REMARK                            x       y       z     vdW  Elec       q    Type
REMARK                         _______ _______ _______ _____ _____    ______ ____
ROOT
ATOM      1  C   UNL     1       2.678   6.567  18.818  0.00  0.00    +0.000 A 
ATOM      2  N   UNL     1       2.918   5.971  17.674  0.00  0.00    +0.000 NA
ATOM      3  C   UNL     1       3.693   4.886  18.006  0.00  0.00    +0.000 A 
ATOM      4  C   UNL     1       3.707   4.761  19.377  0.00  0.00    +0.000 A 
ATOM      5  O   UNL     1       3.084   5.853  19.914  0.00  0.00    +0.000 OA
ENDROOT
BRANCH   1   9
ATOM      6  C   UNL     1       0.824  10.367  19.437  0.00  0.00    +0.000 A 
ATOM      7  C   UNL     1       0.890   9.419  20.462  0.00  0.00    +0.000 A 
ATOM      8  C   UNL     1       1.534   8.198  20.254  0.00  0.00    +0.000 A 
ATOM      9  C   UNL     1       2.134   7.900  19.023  0.00  0.00    +0.000 A 
ATOM     10  C   UNL     1       2.079   8.856  18.003  0.00  0.00    +0.000 A 
ATOM     11  C   UNL     1       1.421  10.077  18.208  0.00  0.00    +0.000 A 
BRANCH   6  12
ATOM     12  O   UNL     1       0.193  11.581  19.528  0.00  0.00    +0.000 OA
BRANCH  12  14
ATOM     13  C   UNL     1      -1.908  10.875  18.573  0.00  0.00    +0.000 C 
ATOM     14  C   UNL     1      -0.756  11.857  18.494  0.00  0.00    +0.000 C 
ENDBRANCH  12  14
ENDBRANCH   6  12
ENDBRANCH   1   9
BRANCH   3  15
ATOM     15  C   UNL     1       4.370   4.067  16.948  0.00  0.00    +0.000 C 
BRANCH  15  16
ATOM     16  N   UNL     1       5.661   4.521  16.388  0.00  0.00    +0.000 N 
BRANCH  16  17
ATOM     17  C   UNL     1       6.566   5.264  17.147  0.00  0.00    +0.000 A 
ATOM     18  C   UNL     1       7.229   4.664  18.228  0.00  0.00    +0.000 A 
ATOM     19  C   UNL     1       8.052   5.401  19.086  0.00  0.00    +0.000 A 
ATOM     20  C   UNL     1       8.227   6.766  18.890  0.00  0.00    +0.000 A 
ATOM     21  C   UNL     1       7.605   7.393  17.813  0.00  0.00    +0.000 A 
ATOM     22  C   UNL     1       7.729   8.872  17.590  0.00  0.00    +0.000 C 
ATOM     23  C   UNL     1       6.807   6.628  16.946  0.00  0.00    +0.000 A 
ENDBRANCH  16  17
BRANCH  16  24
ATOM     24  C   UNL     1       6.228   3.759  15.265  0.00  0.00    +0.000 C 
ATOM     25  C   UNL     1       6.513   4.621  14.039  0.00  0.00    +0.000 C 
ENDBRANCH  16  24
ENDBRANCH  15  16
ENDBRANCH   3  15
TORSDOF 7
ENDMDL
MODEL 5
REMARK VINA RESULT:      -7.5      2.040      3.908
REMARK  Name = 
REMARK  10 active torsions:
REMARK  status: ('A' for Active; 'I' for Inactive)
REMARK    1  A    between atoms: C_1  and  C_2
REMARK    2  A    between atoms: C_2  and  O_3
REMARK    3  A    between atoms: O_3  and  C_4
REMARK    4  A    between atoms: C_7  and  C_8
REMARK    5  A    between atoms: C_10  and  C_11
REMARK    6  A    between atoms: C_11  and  N_12
REMARK    7  A    between atoms: N_12  and  C_13
REMARK    8  A    between atoms: N_12  and  C_15
REMARK    9  A    between atoms: C_13  and  C_14
REMARK   10  A    between atoms: C_19  and  C_20
REMARK                            x       y       z     vdW  Elec       q    Type
REMARK                         _______ _______ _______ _____ _____    ______ ____
ROOT
ATOM      1  C   UNL     1       1.853   8.071  19.690  0.00  0.00    +0.000 A 
ATOM      2  N   UNL     1       1.954   6.765  19.765  0.00  0.00    +0.000 NA
ATOM      3  C   UNL     1       2.406   6.383  18.524  0.00  0.00    +0.000 A 
ATOM      4  C   UNL     1       2.760   7.513  17.820  0.00  0.00    +0.000 A 
ATOM      5  O   UNL     1       2.381   8.607  18.546  0.00  0.00    +0.000 OA
ENDROOT
BRANCH   1   9
ATOM      6  C   UNL     1      -0.323  10.468  22.480  0.00  0.00    +0.000 A 
ATOM      7  C   UNL     1       0.458   9.391  22.907  0.00  0.00    +0.000 A 
ATOM      8  C   UNL     1       1.193   8.643  21.986  0.00  0.00    +0.000 A 
ATOM      9  C   UNL     1       1.173   8.959  20.621  0.00  0.00    +0.000 A 
ATOM     10  C   UNL     1       0.402  10.046  20.197  0.00  0.00    +0.000 A 
ATOM     11  C   UNL     1      -0.347  10.790  21.121  0.00  0.00    +0.000 A 
BRANCH   6  12
ATOM     12  O   UNL     1      -1.102  11.247  23.296  0.00  0.00    +0.000 OA
BRANCH  12  14
ATOM     13  C   UNL     1      -3.251  12.318  23.550  0.00  0.00    +0.000 C 
ATOM     14  C   UNL     1      -2.078  12.050  22.626  0.00  0.00    +0.000 C 
ENDBRANCH  12  14
ENDBRANCH   6  12
ENDBRANCH   1   9
BRANCH   3  15
ATOM     15  C   UNL     1       2.440   4.938  18.126  0.00  0.00    +0.000 C 
BRANCH  15  16
ATOM     16  N   UNL     1       3.605   4.105  18.496  0.00  0.00    +0.000 N 
BRANCH  16  17
ATOM     17  C   UNL     1       4.810   4.184  17.797  0.00  0.00    +0.000 A 
ATOM     18  C   UNL     1       5.976   4.596  18.459  0.00  0.00    +0.000 A 
ATOM     19  C   UNL     1       7.177   4.802  17.771  0.00  0.00    +0.000 A 
ATOM     20  C   UNL     1       7.241   4.609  16.396  0.00  0.00    +0.000 A 
ATOM     21  C   UNL     1       6.111   4.177  15.707  0.00  0.00    +0.000 A 
ATOM     22  C   UNL     1       6.121   4.000  14.218  0.00  0.00    +0.000 C 
ATOM     23  C   UNL     1       4.922   3.947  16.422  0.00  0.00    +0.000 A 
ENDBRANCH  16  17
BRANCH  16  24
ATOM     24  C   UNL     1       3.688   3.619  19.881  0.00  0.00    +0.000 C 
ATOM     25  C   UNL     1       2.406   2.941  20.356  0.00  0.00    +0.000 C 
ENDBRANCH  16  24
ENDBRANCH  15  16
ENDBRANCH   3  15
TORSDOF 7
ENDMDL
MODEL 6
REMARK VINA RESULT:      -7.5      3.670      7.153
REMARK  Name = 
REMARK  10 active torsions:
REMARK  status: ('A' for Active; 'I' for Inactive)
REMARK    1  A    between atoms: C_1  and  C_2
REMARK    2  A    between atoms: C_2  and  O_3
REMARK    3  A    between atoms: O_3  and  C_4
REMARK    4  A    between atoms: C_7  and  C_8
REMARK    5  A    between atoms: C_10  and  C_11
REMARK    6  A    between atoms: C_11  and  N_12
REMARK    7  A    between atoms: N_12  and  C_13
REMARK    8  A    between atoms: N_12  and  C_15
REMARK    9  A    between atoms: C_13  and  C_14
REMARK   10  A    between atoms: C_19  and  C_20
REMARK                            x       y       z     vdW  Elec       q    Type
REMARK                         _______ _______ _______ _____ _____    ______ ____
ROOT
ATOM      1  C   UNL     1       8.003   8.652  18.144  0.00  0.00    +0.000 A 
ATOM      2  N   UNL     1       7.050   8.393  17.282  0.00  0.00    +0.000 NA
ATOM      3  C   UNL     1       7.016   7.021  17.205  0.00  0.00    +0.000 A 
ATOM      4  C   UNL     1       7.821   6.508  18.198  0.00  0.00    +0.000 A 
ATOM      5  O   UNL     1       8.487   7.545  18.790  0.00  0.00    +0.000 OA
ENDROOT
BRANCH   1   9
ATOM      6  C   UNL     1       9.999  12.398  18.642  0.00  0.00    +0.000 A 
ATOM      7  C   UNL     1       8.977  12.243  17.703  0.00  0.00    +0.000 A 
ATOM      8  C   UNL     1       8.309  11.023  17.581  0.00  0.00    +0.000 A 
ATOM      9  C   UNL     1       8.640   9.935  18.400  0.00  0.00    +0.000 A 
ATOM     10  C   UNL     1       9.654  10.096  19.349  0.00  0.00    +0.000 A 
ATOM     11  C   UNL     1      10.334  11.318  19.463  0.00  0.00    +0.000 A 
BRANCH   6  12
ATOM     12  O   UNL     1      10.735  13.541  18.823  0.00  0.00    +0.000 OA
BRANCH  12  14
ATOM     13  C   UNL     1      10.119  14.662  20.870  0.00  0.00    +0.000 C 
ATOM     14  C   UNL     1      11.148  13.797  20.168  0.00  0.00    +0.000 C 
ENDBRANCH  12  14
ENDBRANCH   6  12
ENDBRANCH   1   9
BRANCH   3  15
ATOM     15  C   UNL     1       6.206   6.326  16.153  0.00  0.00    +0.000 C 
BRANCH  15  16
ATOM     16  N   UNL     1       5.597   5.011  16.451  0.00  0.00    +0.000 N 
BRANCH  16  17
ATOM     17  C   UNL     1       4.338   4.908  17.044  0.00  0.00    +0.000 A 
ATOM     18  C   UNL     1       3.712   6.053  17.558  0.00  0.00    +0.000 A 
ATOM     19  C   UNL     1       2.507   5.976  18.264  0.00  0.00    +0.000 A 
ATOM     20  C   UNL     1       1.897   4.746  18.483  0.00  0.00    +0.000 A 
ATOM     21  C   UNL     1       2.476   3.589  17.967  0.00  0.00    +0.000 A 
ATOM     22  C   UNL     1       1.879   2.236  18.218  0.00  0.00    +0.000 C 
ATOM     23  C   UNL     1       3.671   3.692  17.235  0.00  0.00    +0.000 A 
ENDBRANCH  16  17
BRANCH  16  24
ATOM     24  C   UNL     1       6.037   3.855  15.656  0.00  0.00    +0.000 C 
ATOM     25  C   UNL     1       6.450   4.228  14.235  0.00  0.00    +0.000 C 
ENDBRANCH  16  24
ENDBRANCH  15  16
ENDBRANCH   3  15
TORSDOF 7
ENDMDL
MODEL 7
REMARK VINA RESULT:      -7.4      1.582      3.885
REMARK  Name = 
REMARK  10 active torsions:
REMARK  status: ('A' for Active; 'I' for Inactive)
REMARK    1  A    between atoms: C_1  and  C_2
REMARK    2  A    between atoms: C_2  and  O_3
REMARK    3  A    between atoms: O_3  and  C_4
REMARK    4  A    between atoms: C_7  and  C_8
REMARK    5  A    between atoms: C_10  and  C_11
REMARK    6  A    between atoms: C_11  and  N_12
REMARK    7  A    between atoms: N_12  and  C_13
REMARK    8  A    between atoms: N_12  and  C_15
REMARK    9  A    between atoms: C_13  and  C_14
REMARK   10  A    between atoms: C_19  and  C_20
REMARK                            x       y       z     vdW  Elec       q    Type
REMARK                         _______ _______ _______ _____ _____    ______ ____
ROOT
ATOM      1  C   UNL     1       2.944   6.163  18.735  0.00  0.00    +0.000 A 
ATOM      2  N   UNL     1       3.173   5.596  17.574  0.00  0.00    +0.000 NA
ATOM      3  C   UNL     1       4.149   4.663  17.833  0.00  0.00    +0.000 A 
ATOM      4  C   UNL     1       4.313   4.568  19.197  0.00  0.00    +0.000 A 
ATOM      5  O   UNL     1       3.567   5.548  19.789  0.00  0.00    +0.000 OA
ENDROOT
BRANCH   1   9
ATOM      6  C   UNL     1       1.010   9.908  19.443  0.00  0.00    +0.000 A 
ATOM      7  C   UNL     1       1.479   9.565  18.172  0.00  0.00    +0.000 A 
ATOM      8  C   UNL     1       2.073   8.321  17.950  0.00  0.00    +0.000 A 
ATOM      9  C   UNL     1       2.203   7.389  18.988  0.00  0.00    +0.000 A 
ATOM     10  C   UNL     1       1.721   7.729  20.257  0.00  0.00    +0.000 A 
ATOM     11  C   UNL     1       1.136   8.983  20.483  0.00  0.00    +0.000 A 
BRANCH   6  12
ATOM     12  O   UNL     1       0.439  11.110  19.773  0.00  0.00    +0.000 OA
BRANCH  12  14
ATOM     13  C   UNL     1      -1.583  12.247  19.106  0.00  0.00    +0.000 C 
ATOM     14  C   UNL     1      -0.192  11.805  18.694  0.00  0.00    +0.000 C 
ENDBRANCH  12  14
ENDBRANCH   6  12
ENDBRANCH   1   9
BRANCH   3  15
ATOM     15  C   UNL     1       4.852   3.952  16.717  0.00  0.00    +0.000 C 
BRANCH  15  16
ATOM     16  N   UNL     1       6.115   4.504  16.179  0.00  0.00    +0.000 N 
BRANCH  16  17
ATOM     17  C   UNL     1       6.453   4.373  14.832  0.00  0.00    +0.000 A 
ATOM     18  C   UNL     1       7.507   5.130  14.299  0.00  0.00    +0.000 A 
ATOM     19  C   UNL     1       7.803   5.117  12.932  0.00  0.00    +0.000 A 
ATOM     20  C   UNL     1       7.043   4.350  12.055  0.00  0.00    +0.000 A 
ATOM     21  C   UNL     1       6.003   3.566  12.550  0.00  0.00    +0.000 A 
ATOM     22  C   UNL     1       5.128   2.760  11.637  0.00  0.00    +0.000 C 
ATOM     23  C   UNL     1       5.742   3.571  13.931  0.00  0.00    +0.000 A 
ENDBRANCH  16  17
BRANCH  16  24
ATOM     24  C   UNL     1       6.732   5.629  16.897  0.00  0.00    +0.000 C 
ATOM     25  C   UNL     1       7.671   5.183  18.015  0.00  0.00    +0.000 C 
ENDBRANCH  16  24
ENDBRANCH  15  16
ENDBRANCH   3  15
TORSDOF 7
ENDMDL
MODEL 8
REMARK VINA RESULT:      -7.4      3.620      6.846
REMARK  Name = 
REMARK  10 active torsions:
REMARK  status: ('A' for Active; 'I' for Inactive)
REMARK    1  A    between atoms: C_1  and  C_2
REMARK    2  A    between atoms: C_2  and  O_3
REMARK    3  A    between atoms: O_3  and  C_4
REMARK    4  A    between atoms: C_7  and  C_8
REMARK    5  A    between atoms: C_10  and  C_11
REMARK    6  A    between atoms: C_11  and  N_12
REMARK    7  A    between atoms: N_12  and  C_13
REMARK    8  A    between atoms: N_12  and  C_15
REMARK    9  A    between atoms: C_13  and  C_14
REMARK   10  A    between atoms: C_19  and  C_20
REMARK                            x       y       z     vdW  Elec       q    Type
REMARK                         _______ _______ _______ _____ _____    ______ ____
ROOT
ATOM      1  C   UNL     1       8.023   8.578  18.113  0.00  0.00    +0.000 A 
ATOM      2  N   UNL     1       7.056   8.307  17.270  0.00  0.00    +0.000 NA
ATOM      3  C   UNL     1       6.989   6.934  17.250  0.00  0.00    +0.000 A 
ATOM      4  C   UNL     1       7.791   6.443  18.257  0.00  0.00    +0.000 A 
ATOM      5  O   UNL     1       8.486   7.487  18.800  0.00  0.00    +0.000 OA
ENDROOT
BRANCH   1   9
ATOM      6  C   UNL     1       9.840  12.358  18.933  0.00  0.00    +0.000 A 
ATOM      7  C   UNL     1      10.129  11.233  19.710  0.00  0.00    +0.000 A 
ATOM      8  C   UNL     1       9.556   9.998  19.404  0.00  0.00    +0.000 A 
ATOM      9  C   UNL     1       8.691   9.855  18.311  0.00  0.00    +0.000 A 
ATOM     10  C   UNL     1       8.414  10.979  17.525  0.00  0.00    +0.000 A 
ATOM     11  C   UNL     1       8.980  12.224  17.841  0.00  0.00    +0.000 A 
BRANCH   6  12
ATOM     12  O   UNL     1      10.326  13.620  19.164  0.00  0.00    +0.000 OA
BRANCH  12  14
ATOM     13  C   UNL     1      10.429  15.272  20.921  0.00  0.00    +0.000 C 
ATOM     14  C   UNL     1       9.531  14.433  20.032  0.00  0.00    +0.000 C 
ENDBRANCH  12  14
ENDBRANCH   6  12
ENDBRANCH   1   9
BRANCH   3  15
ATOM     15  C   UNL     1       6.155   6.216  16.234  0.00  0.00    +0.000 C 
BRANCH  15  16
ATOM     16  N   UNL     1       5.580   4.893  16.564  0.00  0.00    +0.000 N 
BRANCH  16  17
ATOM     17  C   UNL     1       4.383   4.774  17.272  0.00  0.00    +0.000 A 
ATOM     18  C   UNL     1       3.499   3.726  16.977  0.00  0.00    +0.000 A 
ATOM     19  C   UNL     1       2.239   3.637  17.578  0.00  0.00    +0.000 A 
ATOM     20  C   UNL     1       1.824   4.603  18.488  0.00  0.00    +0.000 A 
ATOM     21  C   UNL     1       2.684   5.646  18.824  0.00  0.00    +0.000 A 
ATOM     22  C   UNL     1       2.262   6.737  19.764  0.00  0.00    +0.000 C 
ATOM     23  C   UNL     1       3.957   5.700  18.231  0.00  0.00    +0.000 A 
ENDBRANCH  16  17
BRANCH  16  24
ATOM     24  C   UNL     1       5.946   3.754  15.710  0.00  0.00    +0.000 C 
ATOM     25  C   UNL     1       6.470   4.176  14.340  0.00  0.00    +0.000 C 
ENDBRANCH  16  24
ENDBRANCH  15  16
ENDBRANCH   3  15
TORSDOF 7
ENDMDL
MODEL 9
REMARK VINA RESULT:      -7.3      1.908      3.978
REMARK  Name = 
REMARK  10 active torsions:
REMARK  status: ('A' for Active; 'I' for Inactive)
REMARK    1  A    between atoms: C_1  and  C_2
REMARK    2  A    between atoms: C_2  and  O_3
REMARK    3  A    between atoms: O_3  and  C_4
REMARK    4  A    between atoms: C_7  and  C_8
REMARK    5  A    between atoms: C_10  and  C_11
REMARK    6  A    between atoms: C_11  and  N_12
REMARK    7  A    between atoms: N_12  and  C_13
REMARK    8  A    between atoms: N_12  and  C_15
REMARK    9  A    between atoms: C_13  and  C_14
REMARK   10  A    between atoms: C_19  and  C_20
REMARK                            x       y       z     vdW  Elec       q    Type
REMARK                         _______ _______ _______ _____ _____    ______ ____
ROOT
ATOM      1  C   UNL     1       1.500   8.548  20.011  0.00  0.00    +0.000 A 
ATOM      2  N   UNL     1       1.930   7.368  20.390  0.00  0.00    +0.000 NA
ATOM      3  C   UNL     1       2.374   6.774  19.232  0.00  0.00    +0.000 A 
ATOM      4  C   UNL     1       2.383   7.721  18.231  0.00  0.00    +0.000 A 
ATOM      5  O   UNL     1       1.794   8.858  18.709  0.00  0.00    +0.000 OA
ENDROOT
BRANCH   1   9
ATOM      6  C   UNL     1      -0.647  11.399  22.360  0.00  0.00    +0.000 A 
ATOM      7  C   UNL     1       0.088  11.793  21.240  0.00  0.00    +0.000 A 
ATOM      8  C   UNL     1       0.752  10.843  20.461  0.00  0.00    +0.000 A 
ATOM      9  C   UNL     1       0.687   9.480  20.778  0.00  0.00    +0.000 A 
ATOM     10  C   UNL     1      -0.061   9.085  21.892  0.00  0.00    +0.000 A 
ATOM     11  C   UNL     1      -0.717  10.041  22.681  0.00  0.00    +0.000 A 
BRANCH   6  12
ATOM     12  O   UNL     1      -1.311  12.251  23.206  0.00  0.00    +0.000 OA
BRANCH  12  14
ATOM     13  C   UNL     1      -3.581  12.789  22.588  0.00  0.00    +0.000 C 
ATOM     14  C   UNL     1      -2.682  11.927  23.452  0.00  0.00    +0.000 C 
ENDBRANCH  12  14
ENDBRANCH   6  12
ENDBRANCH   1   9
BRANCH   3  15
ATOM     15  C   UNL     1       2.741   5.322  19.200  0.00  0.00    +0.000 C 
BRANCH  15  16
ATOM     16  N   UNL     1       3.223   4.718  17.939  0.00  0.00    +0.000 N 
BRANCH  16  17
ATOM     17  C   UNL     1       4.568   4.769  17.572  0.00  0.00    +0.000 A 
ATOM     18  C   UNL     1       4.992   4.162  16.381  0.00  0.00    +0.000 A 
ATOM     19  C   UNL     1       6.345   4.088  16.035  0.00  0.00    +0.000 A 
ATOM     20  C   UNL     1       7.316   4.613  16.880  0.00  0.00    +0.000 A 
ATOM     21  C   UNL     1       6.933   5.245  18.061  0.00  0.00    +0.000 A 
ATOM     22  C   UNL     1       7.948   5.784  19.026  0.00  0.00    +0.000 C 
ATOM     23  C   UNL     1       5.566   5.335  18.375  0.00  0.00    +0.000 A 
ENDBRANCH  16  17
BRANCH  16  24
ATOM     24  C   UNL     1       2.433   3.623  17.356  0.00  0.00    +0.000 C 
ATOM     25  C   UNL     1       2.502   2.334  18.172  0.00  0.00    +0.000 C 
ENDBRANCH  16  24
ENDBRANCH  15  16
ENDBRANCH   3  15
TORSDOF 7
ENDMDL
