MODEL 1
REMARK VINA RESULT:      -7.8      0.000      0.000
REMARK  Name = 
REMARK  7 active torsions:
REMARK  status: ('A' for Active; 'I' for Inactive)
REMARK    1  A    between atoms: C_1  and  O_2
REMARK    2  A    between atoms: O_2  and  C_3
REMARK    3  A    between atoms: C_7  and  N_8
REMARK    4  A    between atoms: C_12  and  C_14
REMARK    5  A    between atoms: C_16  and  C_17
REMARK    6  A    between atoms: C_21  and  C_22
REMARK    7  A    between atoms: N_24  and  C_25
REMARK                            x       y       z     vdW  Elec       q    Type
REMARK                         _______ _______ _______ _____ _____    ______ ____
ROOT
ATOM      1  C   UNL     1      -1.696  12.625  20.149  0.00  0.00    +0.000 A 
ATOM      2  C   UNL     1      -0.936  13.097  21.228  0.00  0.00    +0.000 A 
ATOM      3  C   UNL     1      -1.559  13.758  22.271  0.00  0.00    +0.000 A 
ATOM      4  C   UNL     1      -0.746  14.417  23.346  0.00  0.00    +0.000 C 
ATOM      5  N   UNL     1      -2.889  13.870  22.383  0.00  0.00    +0.000 NA
ATOM      6  C   UNL     1      -3.613  13.282  21.405  0.00  0.00    +0.000 A 
ATOM      7  C   UNL     1      -3.106  12.654  20.266  0.00  0.00    +0.000 A 
ATOM      8  C   UNL     1      -4.273  12.233  19.561  0.00  0.00    +0.000 A 
ATOM      9  C   UNL     1      -4.440  11.530  18.260  0.00  0.00    +0.000 C 
ATOM     10  N   UNL     1      -5.397  12.522  20.230  0.00  0.00    +0.000 NA
ATOM     11  N   UNL     1      -4.998  13.170  21.354  0.00  0.00    +0.000 N 
ENDROOT
BRANCH   1  16
ATOM     12  N   UNL     1       1.541   8.714  19.316  0.00  0.00    +0.000 N 
ATOM     13  C   UNL     1       1.702   9.694  18.232  0.00  0.00    +0.000 C 
ATOM     14  C   UNL     1       0.316  10.280  17.870  0.00  0.00    +0.000 C 
ATOM     15  N   UNL     1      -0.401  10.789  19.056  0.00  0.00    +0.000 N 
ATOM     16  C   UNL     1      -1.010  12.044  18.975  0.00  0.00    +0.000 C 
ATOM     17  O   UNL     1      -0.997  12.713  17.945  0.00  0.00    +0.000 OA
ATOM     18  C   UNL     1      -0.466   9.819  20.168  0.00  0.00    +0.000 C 
ATOM     19  C   UNL     1       0.907   9.244  20.526  0.00  0.00    +0.000 C 
BRANCH  12  24
ATOM     20  C   UNL     1       3.616   5.845  18.225  0.00  0.00    +0.000 A 
ATOM     21  C   UNL     1       3.404   4.953  19.273  0.00  0.00    +0.000 A 
ATOM     22  C   UNL     1       2.583   5.307  20.340  0.00  0.00    +0.000 A 
ATOM     23  C   UNL     1       1.960   6.558  20.361  0.00  0.00    +0.000 A 
ATOM     24  C   UNL     1       2.139   7.474  19.319  0.00  0.00    +0.000 A 
ATOM     25  C   UNL     1       2.986   7.093  18.263  0.00  0.00    +0.000 A 
BRANCH  20  27
ATOM     26  C   UNL     1       4.429   4.005  16.960  0.00  0.00    +0.000 C 
ATOM     27  O   UNL     1       4.449   5.401  17.237  0.00  0.00    +0.000 OA
ENDBRANCH  20  27
ENDBRANCH  12  24
ENDBRANCH   1  16
BRANCH  11  28
ATOM     28  C   UNL     1      -5.974  13.625  22.296  0.00  0.00    +0.000 A 
ATOM     29  C   UNL     1      -6.501  12.777  23.283  0.00  0.00    +0.000 A 
ATOM     30  C   UNL     1      -7.460  13.242  24.192  0.00  0.00    +0.000 A 
ATOM     31  C   UNL     1      -7.902  14.561  24.116  0.00  0.00    +0.000 A 
ATOM     32  C   UNL     1      -7.381  15.401  23.140  0.00  0.00    +0.000 A 
ATOM     33  F   UNL     1      -7.813  16.666  23.067  0.00  0.00    +0.000 F 
ATOM     34  C   UNL     1      -6.422  14.952  22.235  0.00  0.00    +0.000 A 
ENDBRANCH  11  28
TORSDOF 4
ENDMDL
MODEL 2
REMARK VINA RESULT:      -7.5      0.949      1.248
REMARK  Name = 
REMARK  7 active torsions:
REMARK  status: ('A' for Active; 'I' for Inactive)
REMARK    1  A    between atoms: C_1  and  O_2
REMARK    2  A    between atoms: O_2  and  C_3
REMARK    3  A    between atoms: C_7  and  N_8
REMARK    4  A    between atoms: C_12  and  C_14
REMARK    5  A    between atoms: C_16  and  C_17
REMARK    6  A    between atoms: C_21  and  C_22
REMARK    7  A    between atoms: N_24  and  C_25
REMARK                            x       y       z     vdW  Elec       q    Type
REMARK                         _______ _______ _______ _____ _____    ______ ____
ROOT
ATOM      1  C   UNL     1      -1.282  12.629  19.970  0.00  0.00    +0.000 A 
ATOM      2  C   UNL     1      -0.629  13.199  21.072  0.00  0.00    +0.000 A 
ATOM      3  C   UNL     1      -1.350  13.937  21.993  0.00  0.00    +0.000 A 
ATOM      4  C   UNL     1      -0.644  14.694  23.079  0.00  0.00    +0.000 C 
ATOM      5  N   UNL     1      -2.685  14.042  21.971  0.00  0.00    +0.000 NA
ATOM      6  C   UNL     1      -3.311  13.364  20.983  0.00  0.00    +0.000 A 
ATOM      7  C   UNL     1      -2.697  12.650  19.953  0.00  0.00    +0.000 A 
ATOM      8  C   UNL     1      -3.791  12.157  19.180  0.00  0.00    +0.000 A 
ATOM      9  C   UNL     1      -3.831  11.345  17.934  0.00  0.00    +0.000 C 
ATOM     10  N   UNL     1      -4.974  12.487  19.715  0.00  0.00    +0.000 NA
ATOM     11  N   UNL     1      -4.685  13.231  20.813  0.00  0.00    +0.000 N 
ENDROOT
BRANCH   1  16
ATOM     12  N   UNL     1       1.631   8.401  19.660  0.00  0.00    +0.000 N 
ATOM     13  C   UNL     1       2.055   9.339  18.611  0.00  0.00    +0.000 C 
ATOM     14  C   UNL     1       0.808  10.053  18.037  0.00  0.00    +0.000 C 
ATOM     15  N   UNL     1      -0.028  10.653  19.096  0.00  0.00    +0.000 N 
ATOM     16  C   UNL     1      -0.487  11.961  18.918  0.00  0.00    +0.000 C 
ATOM     17  O   UNL     1      -0.247  12.606  17.901  0.00  0.00    +0.000 OA
ATOM     18  C   UNL     1      -0.360   9.716  20.189  0.00  0.00    +0.000 C 
ATOM     19  C   UNL     1       0.876   9.013  20.756  0.00  0.00    +0.000 C 
BRANCH  12  24
ATOM     20  C   UNL     1       3.615   5.348  18.973  0.00  0.00    +0.000 A 
ATOM     21  C   UNL     1       3.091   4.474  19.922  0.00  0.00    +0.000 A 
ATOM     22  C   UNL     1       2.089   4.899  20.790  0.00  0.00    +0.000 A 
ATOM     23  C   UNL     1       1.599   6.206  20.709  0.00  0.00    +0.000 A 
ATOM     24  C   UNL     1       2.093   7.107  19.760  0.00  0.00    +0.000 A 
ATOM     25  C   UNL     1       3.114   6.651  18.907  0.00  0.00    +0.000 A 
BRANCH  20  27
ATOM     26  C   UNL     1       4.221   3.807  17.269  0.00  0.00    +0.000 C 
ATOM     27  O   UNL     1       4.602   4.830  18.182  0.00  0.00    +0.000 OA
ENDBRANCH  20  27
ENDBRANCH  12  24
ENDBRANCH   1  16
BRANCH  11  28
ATOM     28  C   UNL     1      -5.747  13.751  21.619  0.00  0.00    +0.000 A 
ATOM     29  C   UNL     1      -6.493  14.873  21.225  0.00  0.00    +0.000 A 
ATOM     30  C   UNL     1      -7.526  15.368  22.032  0.00  0.00    +0.000 A 
ATOM     31  C   UNL     1      -7.818  14.742  23.242  0.00  0.00    +0.000 A 
ATOM     32  C   UNL     1      -7.080  13.632  23.632  0.00  0.00    +0.000 A 
ATOM     33  F   UNL     1      -7.360  13.038  24.799  0.00  0.00    +0.000 F 
ATOM     34  C   UNL     1      -6.055  13.127  22.836  0.00  0.00    +0.000 A 
ENDBRANCH  11  28
TORSDOF 4
ENDMDL
MODEL 3
REMARK VINA RESULT:      -7.4      2.262      2.960
REMARK  Name = 
REMARK  7 active torsions:
REMARK  status: ('A' for Active; 'I' for Inactive)
REMARK    1  A    between atoms: C_1  and  O_2
REMARK    2  A    between atoms: O_2  and  C_3
REMARK    3  A    between atoms: C_7  and  N_8
REMARK    4  A    between atoms: C_12  and  C_14
REMARK    5  A    between atoms: C_16  and  C_17
REMARK    6  A    between atoms: C_21  and  C_22
REMARK    7  A    between atoms: N_24  and  C_25
REMARK                            x       y       z     vdW  Elec       q    Type
REMARK                         _______ _______ _______ _____ _____    ______ ____
ROOT
ATOM      1  C   UNL     1       1.038  11.920  19.345  0.00  0.00    +0.000 A 
ATOM      2  C   UNL     1       1.910  12.660  20.155  0.00  0.00    +0.000 A 
ATOM      3  C   UNL     1       1.421  13.699  20.924  0.00  0.00    +0.000 A 
ATOM      4  C   UNL     1       2.361  14.607  21.661  0.00  0.00    +0.000 C 
ATOM      5  N   UNL     1       0.115  13.974  21.046  0.00  0.00    +0.000 NA
ATOM      6  C   UNL     1      -0.723  13.157  20.370  0.00  0.00    +0.000 A 
ATOM      7  C   UNL     1      -0.353  12.127  19.505  0.00  0.00    +0.000 A 
ATOM      8  C   UNL     1      -1.598  11.605  19.044  0.00  0.00    +0.000 A 
ATOM      9  C   UNL     1      -1.916  10.514  18.083  0.00  0.00    +0.000 C 
ATOM     10  N   UNL     1      -2.644  12.218  19.615  0.00  0.00    +0.000 NA
ATOM     11  N   UNL     1      -2.112  13.173  20.421  0.00  0.00    +0.000 N 
ENDROOT
BRANCH   1  16
ATOM     12  N   UNL     1       2.174   6.910  19.616  0.00  0.00    +0.000 N 
ATOM     13  C   UNL     1       2.979   7.515  18.545  0.00  0.00    +0.000 C 
ATOM     14  C   UNL     1       2.125   8.574  17.808  0.00  0.00    +0.000 C 
ATOM     15  N   UNL     1       1.513   9.544  18.738  0.00  0.00    +0.000 N 
ATOM     16  C   UNL     1       1.587  10.903  18.423  0.00  0.00    +0.000 C 
ATOM     17  O   UNL     1       2.109  11.308  17.388  0.00  0.00    +0.000 OA
ATOM     18  C   UNL     1       0.791   8.910  19.860  0.00  0.00    +0.000 C 
ATOM     19  C   UNL     1       1.639   7.865  20.590  0.00  0.00    +0.000 C 
BRANCH  12  24
ATOM     20  C   UNL     1       2.179   3.260  18.979  0.00  0.00    +0.000 A 
ATOM     21  C   UNL     1       2.008   2.767  20.271  0.00  0.00    +0.000 A 
ATOM     22  C   UNL     1       1.899   3.643  21.347  0.00  0.00    +0.000 A 
ATOM     23  C   UNL     1       1.955   5.024  21.137  0.00  0.00    +0.000 A 
ATOM     24  C   UNL     1       2.113   5.554  19.852  0.00  0.00    +0.000 A 
ATOM     25  C   UNL     1       2.234   4.643  18.787  0.00  0.00    +0.000 A 
BRANCH  20  27
ATOM     26  C   UNL     1       3.558   1.691  17.847  0.00  0.00    +0.000 C 
ATOM     27  O   UNL     1       2.287   2.313  18.001  0.00  0.00    +0.000 OA
ENDBRANCH  20  27
ENDBRANCH  12  24
ENDBRANCH   1  16
BRANCH  11  28
ATOM     28  C   UNL     1      -2.977  14.020  21.183  0.00  0.00    +0.000 A 
ATOM     29  C   UNL     1      -3.761  13.522  22.236  0.00  0.00    +0.000 A 
ATOM     30  C   UNL     1      -4.605  14.369  22.966  0.00  0.00    +0.000 A 
ATOM     31  C   UNL     1      -4.673  15.723  22.643  0.00  0.00    +0.000 A 
ATOM     32  C   UNL     1      -3.898  16.216  21.601  0.00  0.00    +0.000 A 
ATOM     33  F   UNL     1      -3.972  17.516  21.290  0.00  0.00    +0.000 F 
ATOM     34  C   UNL     1      -3.050  15.385  20.873  0.00  0.00    +0.000 A 
ENDBRANCH  11  28
TORSDOF 4
ENDMDL
MODEL 4
REMARK VINA RESULT:      -7.3      5.222     12.506
REMARK  Name = 
REMARK  7 active torsions:
REMARK  status: ('A' for Active; 'I' for Inactive)
REMARK    1  A    between atoms: C_1  and  O_2
REMARK    2  A    between atoms: O_2  and  C_3
REMARK    3  A    between atoms: C_7  and  N_8
REMARK    4  A    between atoms: C_12  and  C_14
REMARK    5  A    between atoms: C_16  and  C_17
REMARK    6  A    between atoms: C_21  and  C_22
REMARK    7  A    between atoms: N_24  and  C_25
REMARK                            x       y       z     vdW  Elec       q    Type
REMARK                         _______ _______ _______ _____ _____    ______ ____
ROOT
ATOM      1  C   UNL     1       4.446   6.077  18.297  0.00  0.00    +0.000 A 
ATOM      2  C   UNL     1       5.427   7.077  18.276  0.00  0.00    +0.000 A 
ATOM      3  C   UNL     1       6.420   7.049  17.315  0.00  0.00    +0.000 A 
ATOM      4  C   UNL     1       7.571   8.008  17.382  0.00  0.00    +0.000 C 
ATOM      5  N   UNL     1       6.436   6.176  16.298  0.00  0.00    +0.000 NA
ATOM      6  C   UNL     1       5.400   5.309  16.251  0.00  0.00    +0.000 A 
ATOM      7  C   UNL     1       4.383   5.187  17.197  0.00  0.00    +0.000 A 
ATOM      8  C   UNL     1       3.573   4.125  16.693  0.00  0.00    +0.000 A 
ATOM      9  C   UNL     1       2.347   3.477  17.232  0.00  0.00    +0.000 C 
ATOM     10  N   UNL     1       4.017   3.670  15.514  0.00  0.00    +0.000 NA
ATOM     11  N   UNL     1       5.139   4.387  15.244  0.00  0.00    +0.000 N 
ENDROOT
BRANCH   1  16
ATOM     12  N   UNL     1       0.991   9.312  20.310  0.00  0.00    +0.000 N 
ATOM     13  C   UNL     1       1.371   8.333  21.339  0.00  0.00    +0.000 C 
ATOM     14  C   UNL     1       1.561   6.949  20.674  0.00  0.00    +0.000 C 
ATOM     15  N   UNL     1       2.474   7.007  19.516  0.00  0.00    +0.000 N 
ATOM     16  C   UNL     1       3.472   6.035  19.407  0.00  0.00    +0.000 C 
ATOM     17  O   UNL     1       3.587   5.122  20.220  0.00  0.00    +0.000 OA
ATOM     18  C   UNL     1       2.128   8.064  18.543  0.00  0.00    +0.000 C 
ATOM     19  C   UNL     1       1.943   9.433  19.203  0.00  0.00    +0.000 C 
BRANCH  12  24
ATOM     20  C   UNL     1      -1.359  11.671  21.937  0.00  0.00    +0.000 A 
ATOM     21  C   UNL     1      -2.101  12.102  20.840  0.00  0.00    +0.000 A 
ATOM     22  C   UNL     1      -1.817  11.616  19.567  0.00  0.00    +0.000 A 
ATOM     23  C   UNL     1      -0.788  10.688  19.383  0.00  0.00    +0.000 A 
ATOM     24  C   UNL     1      -0.031  10.223  20.463  0.00  0.00    +0.000 A 
ATOM     25  C   UNL     1      -0.332  10.743  21.735  0.00  0.00    +0.000 A 
BRANCH  20  27
ATOM     26  C   UNL     1      -3.105  12.286  23.425  0.00  0.00    +0.000 C 
ATOM     27  O   UNL     1      -1.713  12.220  23.137  0.00  0.00    +0.000 OA
ENDBRANCH  20  27
ENDBRANCH  12  24
ENDBRANCH   1  16
BRANCH  11  28
ATOM     28  C   UNL     1       5.868   4.138  14.038  0.00  0.00    +0.000 A 
ATOM     29  C   UNL     1       7.008   4.881  13.696  0.00  0.00    +0.000 A 
ATOM     30  C   UNL     1       7.704   4.623  12.508  0.00  0.00    +0.000 A 
ATOM     31  C   UNL     1       7.258   3.619  11.650  0.00  0.00    +0.000 A 
ATOM     32  C   UNL     1       6.129   2.884  11.988  0.00  0.00    +0.000 A 
ATOM     33  F   UNL     1       5.701   1.925  11.157  0.00  0.00    +0.000 F 
ATOM     34  C   UNL     1       5.434   3.126  13.170  0.00  0.00    +0.000 A 
ENDBRANCH  11  28
TORSDOF 4
ENDMDL
MODEL 5
REMARK VINA RESULT:      -7.3      2.413      3.237
REMARK  Name = 
REMARK  7 active torsions:
REMARK  status: ('A' for Active; 'I' for Inactive)
REMARK    1  A    between atoms: C_1  and  O_2
REMARK    2  A    between atoms: O_2  and  C_3
REMARK    3  A    between atoms: C_7  and  N_8
REMARK    4  A    between atoms: C_12  and  C_14
REMARK    5  A    between atoms: C_16  and  C_17
REMARK    6  A    between atoms: C_21  and  C_22
REMARK    7  A    between atoms: N_24  and  C_25
REMARK                            x       y       z     vdW  Elec       q    Type
REMARK                         _______ _______ _______ _____ _____    ______ ____
ROOT
ATOM      1  C   UNL     1       1.159  11.888  19.393  0.00  0.00    +0.000 A 
ATOM      2  C   UNL     1       2.081  12.620  20.154  0.00  0.00    +0.000 A 
ATOM      3  C   UNL     1       1.645  13.667  20.945  0.00  0.00    +0.000 A 
ATOM      4  C   UNL     1       2.633  14.566  21.628  0.00  0.00    +0.000 C 
ATOM      5  N   UNL     1       0.351  13.956  21.136  0.00  0.00    +0.000 NA
ATOM      6  C   UNL     1      -0.531  13.147  20.508  0.00  0.00    +0.000 A 
ATOM      7  C   UNL     1      -0.219  12.111  19.628  0.00  0.00    +0.000 A 
ATOM      8  C   UNL     1      -1.493  11.601  19.235  0.00  0.00    +0.000 A 
ATOM      9  C   UNL     1      -1.874  10.513  18.296  0.00  0.00    +0.000 C 
ATOM     10  N   UNL     1      -2.500  12.227  19.861  0.00  0.00    +0.000 NA
ATOM     11  N   UNL     1      -1.915  13.178  20.635  0.00  0.00    +0.000 N 
ENDROOT
BRANCH   1  16
ATOM     12  N   UNL     1       2.288   6.875  19.624  0.00  0.00    +0.000 N 
ATOM     13  C   UNL     1       3.029   7.471  18.502  0.00  0.00    +0.000 C 
ATOM     14  C   UNL     1       2.136   8.529  17.812  0.00  0.00    +0.000 C 
ATOM     15  N   UNL     1       1.586   9.507  18.772  0.00  0.00    +0.000 N 
ATOM     16  C   UNL     1       1.646  10.864  18.446  0.00  0.00    +0.000 C 
ATOM     17  O   UNL     1       2.106  11.261  17.378  0.00  0.00    +0.000 OA
ATOM     18  C   UNL     1       0.931   8.883  19.940  0.00  0.00    +0.000 C 
ATOM     19  C   UNL     1       1.817   7.838  20.623  0.00  0.00    +0.000 C 
BRANCH  12  24
ATOM     20  C   UNL     1       3.317   3.318  19.771  0.00  0.00    +0.000 A 
ATOM     21  C   UNL     1       2.195   2.744  20.364  0.00  0.00    +0.000 A 
ATOM     22  C   UNL     1       1.107   3.536  20.720  0.00  0.00    +0.000 A 
ATOM     23  C   UNL     1       1.131   4.913  20.477  0.00  0.00    +0.000 A 
ATOM     24  C   UNL     1       2.235   5.521  19.872  0.00  0.00    +0.000 A 
ATOM     25  C   UNL     1       3.325   4.697  19.537  0.00  0.00    +0.000 A 
BRANCH  20  27
ATOM     26  C   UNL     1       4.949   1.789  20.572  0.00  0.00    +0.000 C 
ATOM     27  O   UNL     1       4.331   2.452  19.475  0.00  0.00    +0.000 OA
ENDBRANCH  20  27
ENDBRANCH  12  24
ENDBRANCH   1  16
BRANCH  11  28
ATOM     28  C   UNL     1      -2.729  14.036  21.440  0.00  0.00    +0.000 A 
ATOM     29  C   UNL     1      -3.322  15.196  20.918  0.00  0.00    +0.000 A 
ATOM     30  C   UNL     1      -4.111  16.025  21.726  0.00  0.00    +0.000 A 
ATOM     31  C   UNL     1      -4.309  15.698  23.067  0.00  0.00    +0.000 A 
ATOM     32  C   UNL     1      -3.722  14.551  23.583  0.00  0.00    +0.000 A 
ATOM     33  F   UNL     1      -3.909  14.244  24.873  0.00  0.00    +0.000 F 
ATOM     34  C   UNL     1      -2.941  13.715  22.788  0.00  0.00    +0.000 A 
ENDBRANCH  11  28
TORSDOF 4
ENDMDL
MODEL 6
REMARK VINA RESULT:      -7.3      5.311     12.419
REMARK  Name = 
REMARK  7 active torsions:
REMARK  status: ('A' for Active; 'I' for Inactive)
REMARK    1  A    between atoms: C_1  and  O_2
REMARK    2  A    between atoms: O_2  and  C_3
REMARK    3  A    between atoms: C_7  and  N_8
REMARK    4  A    between atoms: C_12  and  C_14
REMARK    5  A    between atoms: C_16  and  C_17
REMARK    6  A    between atoms: C_21  and  C_22
REMARK    7  A    between atoms: N_24  and  C_25
REMARK                            x       y       z     vdW  Elec       q    Type
REMARK                         _______ _______ _______ _____ _____    ______ ____
ROOT
ATOM      1  C   UNL     1       4.467   6.147  18.256  0.00  0.00    +0.000 A 
ATOM      2  C   UNL     1       5.479   7.116  18.238  0.00  0.00    +0.000 A 
ATOM      3  C   UNL     1       6.479   7.050  17.286  0.00  0.00    +0.000 A 
ATOM      4  C   UNL     1       7.659   7.974  17.357  0.00  0.00    +0.000 C 
ATOM      5  N   UNL     1       6.477   6.170  16.275  0.00  0.00    +0.000 NA
ATOM      6  C   UNL     1       5.416   5.335  16.225  0.00  0.00    +0.000 A 
ATOM      7  C   UNL     1       4.386   5.251  17.163  0.00  0.00    +0.000 A 
ATOM      8  C   UNL     1       3.549   4.211  16.659  0.00  0.00    +0.000 A 
ATOM      9  C   UNL     1       2.299   3.605  17.191  0.00  0.00    +0.000 C 
ATOM     10  N   UNL     1       3.990   3.734  15.487  0.00  0.00    +0.000 NA
ATOM     11  N   UNL     1       5.135   4.414  15.223  0.00  0.00    +0.000 N 
ENDROOT
BRANCH   1  16
ATOM     12  N   UNL     1       0.907   9.400  20.045  0.00  0.00    +0.000 N 
ATOM     13  C   UNL     1       1.300   8.493  21.133  0.00  0.00    +0.000 C 
ATOM     14  C   UNL     1       1.534   7.078  20.552  0.00  0.00    +0.000 C 
ATOM     15  N   UNL     1       2.458   7.093  19.401  0.00  0.00    +0.000 N 
ATOM     16  C   UNL     1       3.482   6.143  19.358  0.00  0.00    +0.000 C 
ATOM     17  O   UNL     1       3.612   5.282  20.224  0.00  0.00    +0.000 OA
ATOM     18  C   UNL     1       2.095   8.082  18.365  0.00  0.00    +0.000 C 
ATOM     19  C   UNL     1       1.867   9.481  18.942  0.00  0.00    +0.000 C 
BRANCH  12  24
ATOM     20  C   UNL     1      -2.057  11.400  19.073  0.00  0.00    +0.000 A 
ATOM     21  C   UNL     1      -2.309  12.091  20.256  0.00  0.00    +0.000 A 
ATOM     22  C   UNL     1      -1.501  11.887  21.372  0.00  0.00    +0.000 A 
ATOM     23  C   UNL     1      -0.430  10.992  21.309  0.00  0.00    +0.000 A 
ATOM     24  C   UNL     1      -0.140  10.291  20.134  0.00  0.00    +0.000 A 
ATOM     25  C   UNL     1      -0.982  10.508  19.028  0.00  0.00    +0.000 A 
BRANCH  20  27
ATOM     26  C   UNL     1      -4.304  11.697  18.361  0.00  0.00    +0.000 C 
ATOM     27  O   UNL     1      -2.917  11.666  18.045  0.00  0.00    +0.000 OA
ENDBRANCH  20  27
ENDBRANCH  12  24
ENDBRANCH   1  16
BRANCH  11  28
ATOM     28  C   UNL     1       5.867   4.133  14.026  0.00  0.00    +0.000 A 
ATOM     29  C   UNL     1       7.035   4.834  13.691  0.00  0.00    +0.000 A 
ATOM     30  C   UNL     1       7.733   4.546  12.511  0.00  0.00    +0.000 A 
ATOM     31  C   UNL     1       7.262   3.553  11.654  0.00  0.00    +0.000 A 
ATOM     32  C   UNL     1       6.106   2.859  11.985  0.00  0.00    +0.000 A 
ATOM     33  F   UNL     1       5.653   1.910  11.155  0.00  0.00    +0.000 F 
ATOM     34  C   UNL     1       5.407   3.132  13.158  0.00  0.00    +0.000 A 
ENDBRANCH  11  28
TORSDOF 4
ENDMDL
MODEL 7
REMARK VINA RESULT:      -7.3      3.967      5.367
REMARK  Name = 
REMARK  7 active torsions:
REMARK  status: ('A' for Active; 'I' for Inactive)
REMARK    1  A    between atoms: C_1  and  O_2
REMARK    2  A    between atoms: O_2  and  C_3
REMARK    3  A    between atoms: C_7  and  N_8
REMARK    4  A    between atoms: C_12  and  C_14
REMARK    5  A    between atoms: C_16  and  C_17
REMARK    6  A    between atoms: C_21  and  C_22
REMARK    7  A    between atoms: N_24  and  C_25
REMARK                            x       y       z     vdW  Elec       q    Type
REMARK                         _______ _______ _______ _____ _____    ______ ____
ROOT
ATOM      1  C   UNL     1      -0.443  10.662  19.779  0.00  0.00    +0.000 A 
ATOM      2  C   UNL     1      -1.499  10.418  18.889  0.00  0.00    +0.000 A 
ATOM      3  C   UNL     1      -2.246  11.473  18.401  0.00  0.00    +0.000 A 
ATOM      4  C   UNL     1      -3.481  11.218  17.588  0.00  0.00    +0.000 C 
ATOM      5  N   UNL     1      -1.942  12.759  18.628  0.00  0.00    +0.000 NA
ATOM      6  C   UNL     1      -0.834  12.978  19.370  0.00  0.00    +0.000 A 
ATOM      7  C   UNL     1      -0.043  12.005  19.980  0.00  0.00    +0.000 A 
ATOM      8  C   UNL     1       0.968  12.757  20.650  0.00  0.00    +0.000 A 
ATOM      9  C   UNL     1       2.108  12.334  21.508  0.00  0.00    +0.000 C 
ATOM     10  N   UNL     1       0.847  14.073  20.427  0.00  0.00    +0.000 NA
ATOM     11  N   UNL     1      -0.259  14.212  19.650  0.00  0.00    +0.000 N 
ENDROOT
BRANCH   1  16
ATOM     12  N   UNL     1       2.853   7.039  18.208  0.00  0.00    +0.000 N 
ATOM     13  C   UNL     1       2.153   6.548  19.403  0.00  0.00    +0.000 C 
ATOM     14  C   UNL     1       1.950   7.723  20.389  0.00  0.00    +0.000 C 
ATOM     15  N   UNL     1       1.317   8.891  19.743  0.00  0.00    +0.000 N 
ATOM     16  C   UNL     1       0.261   9.523  20.404  0.00  0.00    +0.000 C 
ATOM     17  O   UNL     1      -0.129   9.161  21.511  0.00  0.00    +0.000 OA
ATOM     18  C   UNL     1       1.983   9.305  18.491  0.00  0.00    +0.000 C 
ATOM     19  C   UNL     1       2.179   8.141  17.516  0.00  0.00    +0.000 C 
BRANCH  12  24
ATOM     20  C   UNL     1       6.252   6.430  16.864  0.00  0.00    +0.000 A 
ATOM     21  C   UNL     1       6.138   5.106  16.448  0.00  0.00    +0.000 A 
ATOM     22  C   UNL     1       4.940   4.418  16.620  0.00  0.00    +0.000 A 
ATOM     23  C   UNL     1       3.842   5.055  17.206  0.00  0.00    +0.000 A 
ATOM     24  C   UNL     1       3.917   6.388  17.624  0.00  0.00    +0.000 A 
ATOM     25  C   UNL     1       5.145   7.052  17.449  0.00  0.00    +0.000 A 
BRANCH  20  27
ATOM     26  C   UNL     1       7.872   8.014  17.580  0.00  0.00    +0.000 C 
ATOM     27  O   UNL     1       7.474   7.005  16.658  0.00  0.00    +0.000 OA
ENDBRANCH  20  27
ENDBRANCH  12  24
ENDBRANCH   1  16
BRANCH  11  28
ATOM     28  C   UNL     1      -0.672  15.516  19.232  0.00  0.00    +0.000 A 
ATOM     29  C   UNL     1      -1.672  16.229  19.912  0.00  0.00    +0.000 A 
ATOM     30  C   UNL     1      -2.065  17.503  19.482  0.00  0.00    +0.000 A 
ATOM     31  C   UNL     1      -1.460  18.072  18.362  0.00  0.00    +0.000 A 
ATOM     32  C   UNL     1      -0.470  17.367  17.689  0.00  0.00    +0.000 A 
ATOM     33  F   UNL     1       0.104  17.915  16.611  0.00  0.00    +0.000 F 
ATOM     34  C   UNL     1      -0.066  16.103  18.112  0.00  0.00    +0.000 A 
ENDBRANCH  11  28
TORSDOF 4
ENDMDL
MODEL 8
REMARK VINA RESULT:      -7.2      2.476      3.096
REMARK  Name = 
REMARK  7 active torsions:
REMARK  status: ('A' for Active; 'I' for Inactive)
REMARK    1  A    between atoms: C_1  and  O_2
REMARK    2  A    between atoms: O_2  and  C_3
REMARK    3  A    between atoms: C_7  and  N_8
REMARK    4  A    between atoms: C_12  and  C_14
REMARK    5  A    between atoms: C_16  and  C_17
REMARK    6  A    between atoms: C_21  and  C_22
REMARK    7  A    between atoms: N_24  and  C_25
REMARK                            x       y       z     vdW  Elec       q    Type
REMARK                         _______ _______ _______ _____ _____    ______ ____
ROOT
ATOM      1  C   UNL     1       1.127  12.448  19.710  0.00  0.00    +0.000 A 
ATOM      2  C   UNL     1       2.141  13.101  20.422  0.00  0.00    +0.000 A 
ATOM      3  C   UNL     1       1.816  14.083  21.340  0.00  0.00    +0.000 A 
ATOM      4  C   UNL     1       2.891  14.908  21.984  0.00  0.00    +0.000 C 
ATOM      5  N   UNL     1       0.556  14.372  21.695  0.00  0.00    +0.000 NA
ATOM      6  C   UNL     1      -0.406  13.630  21.102  0.00  0.00    +0.000 A 
ATOM      7  C   UNL     1      -0.213  12.668  20.110  0.00  0.00    +0.000 A 
ATOM      8  C   UNL     1      -1.533  12.210  19.818  0.00  0.00    +0.000 A 
ATOM      9  C   UNL     1      -2.036  11.209  18.839  0.00  0.00    +0.000 C 
ATOM     10  N   UNL     1      -2.452  12.793  20.599  0.00  0.00    +0.000 NA
ATOM     11  N   UNL     1      -1.767  13.667  21.381  0.00  0.00    +0.000 N 
ENDROOT
BRANCH   1  16
ATOM     12  N   UNL     1       2.116   7.410  19.393  0.00  0.00    +0.000 N 
ATOM     13  C   UNL     1       2.761   8.086  18.258  0.00  0.00    +0.000 C 
ATOM     14  C   UNL     1       1.838   9.222  17.755  0.00  0.00    +0.000 C 
ATOM     15  N   UNL     1       1.416  10.122  18.846  0.00  0.00    +0.000 N 
ATOM     16  C   UNL     1       1.486  11.501  18.633  0.00  0.00    +0.000 C 
ATOM     17  O   UNL     1       1.852  11.981  17.563  0.00  0.00    +0.000 OA
ATOM     18  C   UNL     1       0.859   9.412  20.015  0.00  0.00    +0.000 C 
ATOM     19  C   UNL     1       1.775   8.291  20.513  0.00  0.00    +0.000 C 
BRANCH  12  24
ATOM     20  C   UNL     1       2.518   3.809  18.618  0.00  0.00    +0.000 A 
ATOM     21  C   UNL     1       1.943   3.231  19.747  0.00  0.00    +0.000 A 
ATOM     22  C   UNL     1       1.432   4.034  20.763  0.00  0.00    +0.000 A 
ATOM     23  C   UNL     1       1.487   5.426  20.652  0.00  0.00    +0.000 A 
ATOM     24  C   UNL     1       2.045   6.041  19.527  0.00  0.00    +0.000 A 
ATOM     25  C   UNL     1       2.566   5.203  18.524  0.00  0.00    +0.000 A 
BRANCH  20  27
ATOM     26  C   UNL     1       4.314   3.168  17.201  0.00  0.00    +0.000 C 
ATOM     27  O   UNL     1       2.999   2.929  17.690  0.00  0.00    +0.000 OA
ENDBRANCH  20  27
ENDBRANCH  12  24
ENDBRANCH   1  16
BRANCH  11  28
ATOM     28  C   UNL     1      -2.471  14.465  22.338  0.00  0.00    +0.000 A 
ATOM     29  C   UNL     1      -3.292  15.534  21.949  0.00  0.00    +0.000 A 
ATOM     30  C   UNL     1      -3.968  16.305  22.904  0.00  0.00    +0.000 A 
ATOM     31  C   UNL     1      -3.822  16.012  24.258  0.00  0.00    +0.000 A 
ATOM     32  C   UNL     1      -3.009  14.954  24.644  0.00  0.00    +0.000 A 
ATOM     33  F   UNL     1      -2.866  14.680  25.947  0.00  0.00    +0.000 F 
ATOM     34  C   UNL     1      -2.338  14.176  23.703  0.00  0.00    +0.000 A 
ENDBRANCH  11  28
TORSDOF 4
ENDMDL
MODEL 9
REMARK VINA RESULT:      -7.2      2.211      4.041
REMARK  Name = 
REMARK  7 active torsions:
REMARK  status: ('A' for Active; 'I' for Inactive)
REMARK    1  A    between atoms: C_1  and  O_2
REMARK    2  A    between atoms: O_2  and  C_3
REMARK    3  A    between atoms: C_7  and  N_8
REMARK    4  A    between atoms: C_12  and  C_14
REMARK    5  A    between atoms: C_16  and  C_17
REMARK    6  A    between atoms: C_21  and  C_22
REMARK    7  A    between atoms: N_24  and  C_25
REMARK                            x       y       z     vdW  Elec       q    Type
REMARK                         _______ _______ _______ _____ _____    ______ ____
ROOT
ATOM      1  C   UNL     1      -1.652  12.588  20.111  0.00  0.00    +0.000 A 
ATOM      2  C   UNL     1      -3.039  12.671  20.299  0.00  0.00    +0.000 A 
ATOM      3  C   UNL     1      -3.544  13.250  21.448  0.00  0.00    +0.000 A 
ATOM      4  C   UNL     1      -5.014  13.193  21.745  0.00  0.00    +0.000 C 
ATOM      5  N   UNL     1      -2.780  13.866  22.361  0.00  0.00    +0.000 NA
ATOM      6  C   UNL     1      -1.456  13.903  22.090  0.00  0.00    +0.000 A 
ATOM      7  C   UNL     1      -0.817  13.294  21.010  0.00  0.00    +0.000 A 
ATOM      8  C   UNL     1       0.561  13.613  21.203  0.00  0.00    +0.000 A 
ATOM      9  C   UNL     1       1.776  13.251  20.427  0.00  0.00    +0.000 C 
ATOM     10  N   UNL     1       0.749  14.397  22.274  0.00  0.00    +0.000 NA
ATOM     11  N   UNL     1      -0.481  14.570  22.823  0.00  0.00    +0.000 N 
ENDROOT
BRANCH   1  16
ATOM     12  N   UNL     1       1.492   8.577  19.410  0.00  0.00    +0.000 N 
ATOM     13  C   UNL     1       1.500   9.397  18.190  0.00  0.00    +0.000 C 
ATOM     14  C   UNL     1       0.073   9.937  17.934  0.00  0.00    +0.000 C 
ATOM     15  N   UNL     1      -0.490  10.610  19.122  0.00  0.00    +0.000 N 
ATOM     16  C   UNL     1      -1.118  11.846  18.949  0.00  0.00    +0.000 C 
ATOM     17  O   UNL     1      -1.245  12.367  17.844  0.00  0.00    +0.000 OA
ATOM     18  C   UNL     1      -0.400   9.803  20.356  0.00  0.00    +0.000 C 
ATOM     19  C   UNL     1       1.014   9.272  20.609  0.00  0.00    +0.000 C 
BRANCH  12  24
ATOM     20  C   UNL     1       3.707   5.714  18.620  0.00  0.00    +0.000 A 
ATOM     21  C   UNL     1       3.387   4.839  19.655  0.00  0.00    +0.000 A 
ATOM     22  C   UNL     1       2.446   5.203  20.614  0.00  0.00    +0.000 A 
ATOM     23  C   UNL     1       1.812   6.446  20.540  0.00  0.00    +0.000 A 
ATOM     24  C   UNL     1       2.098   7.344  19.507  0.00  0.00    +0.000 A 
ATOM     25  C   UNL     1       3.064   6.954  18.561  0.00  0.00    +0.000 A 
BRANCH  20  27
ATOM     26  C   UNL     1       5.316   4.051  18.082  0.00  0.00    +0.000 C 
ATOM     27  O   UNL     1       4.651   5.262  17.742  0.00  0.00    +0.000 OA
ENDBRANCH  20  27
ENDBRANCH  12  24
ENDBRANCH   1  16
BRANCH  11  28
ATOM     28  C   UNL     1      -0.626  15.367  24.002  0.00  0.00    +0.000 A 
ATOM     29  C   UNL     1      -1.474  14.985  25.053  0.00  0.00    +0.000 A 
ATOM     30  C   UNL     1      -1.605  15.783  26.197  0.00  0.00    +0.000 A 
ATOM     31  C   UNL     1      -0.889  16.975  26.293  0.00  0.00    +0.000 A 
ATOM     32  C   UNL     1      -0.050  17.354  25.253  0.00  0.00    +0.000 A 
ATOM     33  F   UNL     1       0.631  18.503  25.348  0.00  0.00    +0.000 F 
ATOM     34  C   UNL     1       0.094  16.565  24.114  0.00  0.00    +0.000 A 
ENDBRANCH  11  28
TORSDOF 4
ENDMDL
