MODEL 1
REMARK VINA RESULT:      -6.7      0.000      0.000
REMARK  Name = 
REMARK  11 active torsions:
REMARK  status: ('A' for Active; 'I' for Inactive)
REMARK    1  A    between atoms: C_1  and  O_2
REMARK    2  A    between atoms: O_2  and  C_3
REMARK    3  A    between atoms: C_4  and  N_5
REMARK    4  A    between atoms: C_6  and  O_8
REMARK    5  A    between atoms: O_8  and  C_9
REMARK    6  A    between atoms: C_15  and  O_16
REMARK    7  A    between atoms: O_16  and  C_17
REMARK    8  A    between atoms: C_17  and  C_18
REMARK    9  A    between atoms: C_18  and  N_19
REMARK   10  A    between atoms: C_25  and  O_26
REMARK   11  A    between atoms: O_26  and  C_27
REMARK                            x       y       z     vdW  Elec       q    Type
REMARK                         _______ _______ _______ _____ _____    ______ ____
ROOT
ATOM      1  C   UNL     1       1.324  10.231  18.528  0.00  0.00    +0.000 A 
ATOM      2  C   UNL     1       1.770   8.974  19.031  0.00  0.00    +0.000 A 
ATOM      3  C   UNL     1       1.265   8.493  20.275  0.00  0.00    +0.000 A 
ATOM      4  C   UNL     1       0.120   9.076  20.861  0.00  0.00    +0.000 A 
ATOM      5  C   UNL     1      -0.270  10.311  20.332  0.00  0.00    +0.000 A 
ATOM      6  O   UNL     1      -1.240  11.110  20.875  0.00  0.00    +0.000 OA
ATOM      7  C   UNL     1      -1.196  12.300  20.219  0.00  0.00    +0.000 A 
ATOM      8  C   UNL     1      -0.225  12.265  19.249  0.00  0.00    +0.000 A 
ATOM      9  C   UNL     1       0.332  10.943  19.245  0.00  0.00    +0.000 A 
ENDROOT
BRANCH   2  10
ATOM     10  N   UNL     1       2.850   8.332  18.365  0.00  0.00    +0.000 N 
ATOM     11  C   UNL     1       2.841   7.110  17.751  0.00  0.00    +0.000 C 
ATOM     12  O   UNL     1       1.887   6.368  17.582  0.00  0.00    +0.000 OA
ATOM     13  H   UNL     1       3.783   8.682  18.468  0.00  0.00    +0.000 HD
BRANCH  11  14
ATOM     14  O   UNL     1       4.134   6.820  17.400  0.00  0.00    +0.000 OA
BRANCH  14  15
ATOM     15  C   UNL     1       4.678   5.527  17.767  0.00  0.00    +0.000 C 
ATOM     16  C   UNL     1       4.685   4.611  16.540  0.00  0.00    +0.000 C 
ATOM     17  C   UNL     1       5.607   5.134  15.438  0.00  0.00    +0.000 C 
ATOM     18  C   UNL     1       7.038   5.335  15.925  0.00  0.00    +0.000 C 
ATOM     19  C   UNL     1       7.113   6.158  17.207  0.00  0.00    +0.000 C 
ATOM     20  C   UNL     1       6.121   5.700  18.280  0.00  0.00    +0.000 C 
ENDBRANCH  14  15
ENDBRANCH  11  14
ENDBRANCH   2  10
BRANCH   1  22
ATOM     21  C   UNL     1       2.723  12.042  17.873  0.00  0.00    +0.000 C 
ATOM     22  O   UNL     1       2.129  10.797  17.541  0.00  0.00    +0.000 OA
ENDBRANCH   1  22
BRANCH   4  23
ATOM     23  O   UNL     1      -0.481   8.660  22.022  0.00  0.00    +0.000 OA
ATOM     24  C   UNL     1      -0.089   9.380  23.186  0.00  0.00    +0.000 C 
ENDBRANCH   4  23
BRANCH   3  25
ATOM     25  O   UNL     1       1.847   7.480  21.036  0.00  0.00    +0.000 OA
BRANCH  25  26
ATOM     26  C   UNL     1       1.293   6.188  20.780  0.00  0.00    +0.000 C 
BRANCH  26  27
ATOM     27  C   UNL     1       2.162   4.985  21.180  0.00  0.00    +0.000 C 
BRANCH  27  28
ATOM     28  N   UNL     1       2.574   4.109  20.044  0.00  0.00    +0.000 NA
ATOM     29  C   UNL     1       3.460   3.014  20.467  0.00  0.00    +0.000 C 
ATOM     30  C   UNL     1       3.994   2.216  19.280  0.00  0.00    +0.000 C 
ATOM     31  C   UNL     1       2.876   1.673  18.401  0.00  0.00    +0.000 C 
ATOM     32  C   UNL     1       1.825   2.731  18.084  0.00  0.00    +0.000 C 
ATOM     33  C   UNL     1       1.423   3.592  19.289  0.00  0.00    +0.000 C 
ENDBRANCH  27  28
ENDBRANCH  26  27
ENDBRANCH  25  26
ENDBRANCH   3  25
TORSDOF 9
ENDMDL
MODEL 2
REMARK VINA RESULT:      -5.9      0.788      1.312
REMARK  Name = 
REMARK  11 active torsions:
REMARK  status: ('A' for Active; 'I' for Inactive)
REMARK    1  A    between atoms: C_1  and  O_2
REMARK    2  A    between atoms: O_2  and  C_3
REMARK    3  A    between atoms: C_4  and  N_5
REMARK    4  A    between atoms: C_6  and  O_8
REMARK    5  A    between atoms: O_8  and  C_9
REMARK    6  A    between atoms: C_15  and  O_16
REMARK    7  A    between atoms: O_16  and  C_17
REMARK    8  A    between atoms: C_17  and  C_18
REMARK    9  A    between atoms: C_18  and  N_19
REMARK   10  A    between atoms: C_25  and  O_26
REMARK   11  A    between atoms: O_26  and  C_27
REMARK                            x       y       z     vdW  Elec       q    Type
REMARK                         _______ _______ _______ _____ _____    ______ ____
ROOT
ATOM      1  C   UNL     1       1.445   9.836  18.465  0.00  0.00    +0.000 A 
ATOM      2  C   UNL     1       1.878   8.584  18.991  0.00  0.00    +0.000 A 
ATOM      3  C   UNL     1       1.416   8.158  20.272  0.00  0.00    +0.000 A 
ATOM      4  C   UNL     1       0.316   8.793  20.887  0.00  0.00    +0.000 A 
ATOM      5  C   UNL     1      -0.064  10.021  20.334  0.00  0.00    +0.000 A 
ATOM      6  O   UNL     1      -0.986  10.866  20.891  0.00  0.00    +0.000 OA
ATOM      7  C   UNL     1      -0.938  12.032  20.194  0.00  0.00    +0.000 A 
ATOM      8  C   UNL     1      -0.013  11.937  19.184  0.00  0.00    +0.000 A 
ATOM      9  C   UNL     1       0.506  10.600  19.200  0.00  0.00    +0.000 A 
ENDROOT
BRANCH   2  10
ATOM     10  N   UNL     1       2.909   7.889  18.300  0.00  0.00    +0.000 N 
ATOM     11  C   UNL     1       2.848   6.635  17.756  0.00  0.00    +0.000 C 
ATOM     12  O   UNL     1       1.877   5.901  17.683  0.00  0.00    +0.000 OA
ATOM     13  H   UNL     1       3.851   8.229  18.330  0.00  0.00    +0.000 HD
BRANCH  11  14
ATOM     14  O   UNL     1       4.115   6.306  17.348  0.00  0.00    +0.000 OA
BRANCH  14  15
ATOM     15  C   UNL     1       5.236   6.727  18.165  0.00  0.00    +0.000 C 
ATOM     16  C   UNL     1       5.686   5.562  19.051  0.00  0.00    +0.000 C 
ATOM     17  C   UNL     1       6.210   4.384  18.229  0.00  0.00    +0.000 C 
ATOM     18  C   UNL     1       7.355   4.785  17.303  0.00  0.00    +0.000 C 
ATOM     19  C   UNL     1       7.023   6.007  16.453  0.00  0.00    +0.000 C 
ATOM     20  C   UNL     1       6.406   7.155  17.256  0.00  0.00    +0.000 C 
ENDBRANCH  14  15
ENDBRANCH  11  14
ENDBRANCH   2  10
BRANCH   1  22
ATOM     21  C   UNL     1       2.789  11.626  17.653  0.00  0.00    +0.000 C 
ATOM     22  O   UNL     1       2.220  10.345  17.425  0.00  0.00    +0.000 OA
ENDBRANCH   1  22
BRANCH   4  23
ATOM     23  O   UNL     1      -0.245   8.433  22.087  0.00  0.00    +0.000 OA
ATOM     24  C   UNL     1       0.079   9.292  23.176  0.00  0.00    +0.000 C 
ENDBRANCH   4  23
BRANCH   3  25
ATOM     25  O   UNL     1       2.004   7.155  21.040  0.00  0.00    +0.000 OA
BRANCH  25  26
ATOM     26  C   UNL     1       1.371   5.881  20.890  0.00  0.00    +0.000 C 
BRANCH  26  27
ATOM     27  C   UNL     1       2.170   4.665  21.384  0.00  0.00    +0.000 C 
BRANCH  27  28
ATOM     28  N   UNL     1       2.106   3.473  20.488  0.00  0.00    +0.000 NA
ATOM     29  C   UNL     1       0.991   3.543  19.532  0.00  0.00    +0.000 C 
ATOM     30  C   UNL     1       0.845   2.256  18.723  0.00  0.00    +0.000 C 
ATOM     31  C   UNL     1       2.131   1.883  17.998  0.00  0.00    +0.000 C 
ATOM     32  C   UNL     1       3.353   1.975  18.906  0.00  0.00    +0.000 C 
ATOM     33  C   UNL     1       3.379   3.226  19.793  0.00  0.00    +0.000 C 
ENDBRANCH  27  28
ENDBRANCH  26  27
ENDBRANCH  25  26
ENDBRANCH   3  25
TORSDOF 9
ENDMDL
MODEL 3
REMARK VINA RESULT:      -5.8      4.722      9.933
REMARK  Name = 
REMARK  11 active torsions:
REMARK  status: ('A' for Active; 'I' for Inactive)
REMARK    1  A    between atoms: C_1  and  O_2
REMARK    2  A    between atoms: O_2  and  C_3
REMARK    3  A    between atoms: C_4  and  N_5
REMARK    4  A    between atoms: C_6  and  O_8
REMARK    5  A    between atoms: O_8  and  C_9
REMARK    6  A    between atoms: C_15  and  O_16
REMARK    7  A    between atoms: O_16  and  C_17
REMARK    8  A    between atoms: C_17  and  C_18
REMARK    9  A    between atoms: C_18  and  N_19
REMARK   10  A    between atoms: C_25  and  O_26
REMARK   11  A    between atoms: O_26  and  C_27
REMARK                            x       y       z     vdW  Elec       q    Type
REMARK                         _______ _______ _______ _____ _____    ______ ____
ROOT
ATOM      1  C   UNL     1       0.010  10.658  21.249  0.00  0.00    +0.000 A 
ATOM      2  C   UNL     1      -0.873  11.777  21.247  0.00  0.00    +0.000 A 
ATOM      3  C   UNL     1      -1.308  12.331  20.007  0.00  0.00    +0.000 A 
ATOM      4  C   UNL     1      -1.134  11.619  18.800  0.00  0.00    +0.000 A 
ATOM      5  C   UNL     1      -0.252  10.534  18.857  0.00  0.00    +0.000 A 
ATOM      6  O   UNL     1       0.180   9.833  17.764  0.00  0.00    +0.000 OA
ATOM      7  C   UNL     1       1.170   9.002  18.183  0.00  0.00    +0.000 A 
ATOM      8  C   UNL     1       1.363   9.145  19.534  0.00  0.00    +0.000 A 
ATOM      9  C   UNL     1       0.382  10.077  20.012  0.00  0.00    +0.000 A 
ENDROOT
BRANCH   2  10
ATOM     10  N   UNL     1      -1.139  12.420  22.487  0.00  0.00    +0.000 N 
ATOM     11  C   UNL     1      -2.352  12.578  23.100  0.00  0.00    +0.000 C 
ATOM     12  O   UNL     1      -3.430  12.128  22.747  0.00  0.00    +0.000 OA
ATOM     13  H   UNL     1      -0.434  12.983  22.922  0.00  0.00    +0.000 HD
BRANCH  11  14
ATOM     14  O   UNL     1      -2.160  13.403  24.178  0.00  0.00    +0.000 OA
BRANCH  14  15
ATOM     15  C   UNL     1      -2.972  14.599  24.287  0.00  0.00    +0.000 C 
ATOM     16  C   UNL     1      -2.832  15.183  25.696  0.00  0.00    +0.000 C 
ATOM     17  C   UNL     1      -1.402  15.642  25.988  0.00  0.00    +0.000 C 
ATOM     18  C   UNL     1      -0.899  16.659  24.969  0.00  0.00    +0.000 C 
ATOM     19  C   UNL     1      -1.096  16.195  23.529  0.00  0.00    +0.000 C 
ATOM     20  C   UNL     1      -2.497  15.642  23.255  0.00  0.00    +0.000 C 
ENDBRANCH  14  15
ENDBRANCH  11  14
ENDBRANCH   2  10
BRANCH   1  22
ATOM     21  C   UNL     1       0.148   9.393  23.261  0.00  0.00    +0.000 C 
ATOM     22  O   UNL     1       0.679  10.429  22.450  0.00  0.00    +0.000 OA
ENDBRANCH   1  22
BRANCH   4  23
ATOM     23  O   UNL     1      -1.560  12.031  17.562  0.00  0.00    +0.000 OA
ATOM     24  C   UNL     1      -2.786  11.448  17.131  0.00  0.00    +0.000 C 
ENDBRANCH   4  23
BRANCH   3  25
ATOM     25  O   UNL     1      -1.875  13.595  19.852  0.00  0.00    +0.000 OA
BRANCH  25  26
ATOM     26  C   UNL     1      -0.952  14.663  20.078  0.00  0.00    +0.000 C 
BRANCH  26  27
ATOM     27  C   UNL     1      -0.228  15.208  18.837  0.00  0.00    +0.000 C 
BRANCH  27  28
ATOM     28  N   UNL     1       1.262  15.140  18.907  0.00  0.00    +0.000 NA
ATOM     29  C   UNL     1       1.798  13.890  18.347  0.00  0.00    +0.000 C 
ATOM     30  C   UNL     1       3.305  13.766  18.557  0.00  0.00    +0.000 C 
ATOM     31  C   UNL     1       4.066  14.958  17.994  0.00  0.00    +0.000 C 
ATOM     32  C   UNL     1       3.436  16.287  18.397  0.00  0.00    +0.000 C 
ATOM     33  C   UNL     1       1.905  16.311  18.290  0.00  0.00    +0.000 C 
ENDBRANCH  27  28
ENDBRANCH  26  27
ENDBRANCH  25  26
ENDBRANCH   3  25
TORSDOF 9
ENDMDL
MODEL 4
REMARK VINA RESULT:      -5.7      5.385     10.497
REMARK  Name = 
REMARK  11 active torsions:
REMARK  status: ('A' for Active; 'I' for Inactive)
REMARK    1  A    between atoms: C_1  and  O_2
REMARK    2  A    between atoms: O_2  and  C_3
REMARK    3  A    between atoms: C_4  and  N_5
REMARK    4  A    between atoms: C_6  and  O_8
REMARK    5  A    between atoms: O_8  and  C_9
REMARK    6  A    between atoms: C_15  and  O_16
REMARK    7  A    between atoms: O_16  and  C_17
REMARK    8  A    between atoms: C_17  and  C_18
REMARK    9  A    between atoms: C_18  and  N_19
REMARK   10  A    between atoms: C_25  and  O_26
REMARK   11  A    between atoms: O_26  and  C_27
REMARK                            x       y       z     vdW  Elec       q    Type
REMARK                         _______ _______ _______ _____ _____    ______ ____
ROOT
ATOM      1  C   UNL     1      -0.554  14.387  19.752  0.00  0.00    +0.000 A 
ATOM      2  C   UNL     1      -1.527  13.350  19.844  0.00  0.00    +0.000 A 
ATOM      3  C   UNL     1      -1.247  12.068  19.284  0.00  0.00    +0.000 A 
ATOM      4  C   UNL     1       0.069  11.714  18.920  0.00  0.00    +0.000 A 
ATOM      5  C   UNL     1       0.983  12.771  18.840  0.00  0.00    +0.000 A 
ATOM      6  O   UNL     1       2.251  12.658  18.339  0.00  0.00    +0.000 OA
ATOM      7  C   UNL     1       2.756  13.916  18.232  0.00  0.00    +0.000 A 
ATOM      8  C   UNL     1       1.835  14.830  18.680  0.00  0.00    +0.000 A 
ATOM      9  C   UNL     1       0.703  14.098  19.166  0.00  0.00    +0.000 A 
ENDROOT
BRANCH   2  10
ATOM     10  N   UNL     1      -2.822  13.689  20.324  0.00  0.00    +0.000 N 
ATOM     11  C   UNL     1      -3.456  13.192  21.430  0.00  0.00    +0.000 C 
ATOM     12  O   UNL     1      -3.006  12.426  22.266  0.00  0.00    +0.000 OA
ATOM     13  H   UNL     1      -3.452  14.210  19.745  0.00  0.00    +0.000 HD
BRANCH  11  14
ATOM     14  O   UNL     1      -4.743  13.666  21.410  0.00  0.00    +0.000 OA
BRANCH  14  15
ATOM     15  C   UNL     1      -5.159  14.581  22.454  0.00  0.00    +0.000 C 
ATOM     16  C   UNL     1      -5.474  15.948  21.838  0.00  0.00    +0.000 C 
ATOM     17  C   UNL     1      -6.655  15.882  20.868  0.00  0.00    +0.000 C 
ATOM     18  C   UNL     1      -7.914  15.323  21.523  0.00  0.00    +0.000 C 
ATOM     19  C   UNL     1      -7.663  14.005  22.249  0.00  0.00    +0.000 C 
ATOM     20  C   UNL     1      -6.423  14.033  23.147  0.00  0.00    +0.000 C 
ENDBRANCH  14  15
ENDBRANCH  11  14
ENDBRANCH   2  10
BRANCH   1  22
ATOM     21  C   UNL     1      -0.534  16.341  21.113  0.00  0.00    +0.000 C 
ATOM     22  O   UNL     1      -1.037  15.677  19.963  0.00  0.00    +0.000 OA
ENDBRANCH   1  22
BRANCH   4  23
ATOM     23  O   UNL     1       0.460  10.494  18.426  0.00  0.00    +0.000 OA
ATOM     24  C   UNL     1       0.909   9.569  19.411  0.00  0.00    +0.000 C 
ENDBRANCH   4  23
BRANCH   3  25
ATOM     25  O   UNL     1      -2.203  11.094  19.001  0.00  0.00    +0.000 OA
BRANCH  25  26
ATOM     26  C   UNL     1      -2.945  11.356  17.807  0.00  0.00    +0.000 C 
BRANCH  26  27
ATOM     27  C   UNL     1      -4.138  10.427  17.532  0.00  0.00    +0.000 C 
BRANCH  27  28
ATOM     28  N   UNL     1      -5.476  11.059  17.726  0.00  0.00    +0.000 NA
ATOM     29  C   UNL     1      -5.848  11.171  19.145  0.00  0.00    +0.000 C 
ATOM     30  C   UNL     1      -7.277  11.680  19.326  0.00  0.00    +0.000 C 
ATOM     31  C   UNL     1      -7.509  13.008  18.619  0.00  0.00    +0.000 C 
ATOM     32  C   UNL     1      -6.970  13.005  17.193  0.00  0.00    +0.000 C 
ATOM     33  C   UNL     1      -5.585  12.361  17.050  0.00  0.00    +0.000 C 
ENDBRANCH  27  28
ENDBRANCH  26  27
ENDBRANCH  25  26
ENDBRANCH   3  25
TORSDOF 9
ENDMDL
MODEL 5
REMARK VINA RESULT:      -5.7      0.733      1.380
REMARK  Name = 
REMARK  11 active torsions:
REMARK  status: ('A' for Active; 'I' for Inactive)
REMARK    1  A    between atoms: C_1  and  O_2
REMARK    2  A    between atoms: O_2  and  C_3
REMARK    3  A    between atoms: C_4  and  N_5
REMARK    4  A    between atoms: C_6  and  O_8
REMARK    5  A    between atoms: O_8  and  C_9
REMARK    6  A    between atoms: C_15  and  O_16
REMARK    7  A    between atoms: O_16  and  C_17
REMARK    8  A    between atoms: C_17  and  C_18
REMARK    9  A    between atoms: C_18  and  N_19
REMARK   10  A    between atoms: C_25  and  O_26
REMARK   11  A    between atoms: O_26  and  C_27
REMARK                            x       y       z     vdW  Elec       q    Type
REMARK                         _______ _______ _______ _____ _____    ______ ____
ROOT
ATOM      1  C   UNL     1       1.132  10.412  18.521  0.00  0.00    +0.000 A 
ATOM      2  C   UNL     1       1.670   9.239  19.128  0.00  0.00    +0.000 A 
ATOM      3  C   UNL     1       1.158   8.796  20.383  0.00  0.00    +0.000 A 
ATOM      4  C   UNL     1      -0.060   9.305  20.883  0.00  0.00    +0.000 A 
ATOM      5  C   UNL     1      -0.539  10.460  20.255  0.00  0.00    +0.000 A 
ATOM      6  O   UNL     1      -1.600  11.198  20.705  0.00  0.00    +0.000 OA
ATOM      7  C   UNL     1      -1.637  12.341  19.969  0.00  0.00    +0.000 A 
ATOM      8  C   UNL     1      -0.626  12.334  19.041  0.00  0.00    +0.000 A 
ATOM      9  C   UNL     1       0.049  11.073  19.150  0.00  0.00    +0.000 A 
ENDROOT
BRANCH   2  10
ATOM     10  N   UNL     1       2.832   8.660  18.548  0.00  0.00    +0.000 N 
ATOM     11  C   UNL     1       2.901   7.547  17.756  0.00  0.00    +0.000 C 
ATOM     12  O   UNL     1       1.974   6.882  17.323  0.00  0.00    +0.000 OA
ATOM     13  H   UNL     1       3.742   8.949  18.851  0.00  0.00    +0.000 HD
BRANCH  11  14
ATOM     14  O   UNL     1       4.229   7.258  17.573  0.00  0.00    +0.000 OA
BRANCH  14  15
ATOM     15  C   UNL     1       4.588   5.948  17.066  0.00  0.00    +0.000 C 
ATOM     16  C   UNL     1       5.902   6.047  16.286  0.00  0.00    +0.000 C 
ATOM     17  C   UNL     1       7.071   6.464  17.181  0.00  0.00    +0.000 C 
ATOM     18  C   UNL     1       7.258   5.524  18.367  0.00  0.00    +0.000 C 
ATOM     19  C   UNL     1       5.965   5.291  19.143  0.00  0.00    +0.000 C 
ATOM     20  C   UNL     1       4.768   4.970  18.243  0.00  0.00    +0.000 C 
ENDBRANCH  14  15
ENDBRANCH  11  14
ENDBRANCH   2  10
BRANCH   1  22
ATOM     21  C   UNL     1       2.641  12.150  17.909  0.00  0.00    +0.000 C 
ATOM     22  O   UNL     1       1.924  10.985  17.528  0.00  0.00    +0.000 OA
ENDBRANCH   1  22
BRANCH   4  23
ATOM     23  O   UNL     1      -0.671   8.912  22.048  0.00  0.00    +0.000 OA
ATOM     24  C   UNL     1      -0.219   9.591  23.215  0.00  0.00    +0.000 C 
ENDBRANCH   4  23
BRANCH   3  25
ATOM     25  O   UNL     1       1.797   7.895  21.233  0.00  0.00    +0.000 OA
BRANCH  25  26
ATOM     26  C   UNL     1       2.071   6.633  20.621  0.00  0.00    +0.000 C 
BRANCH  26  27
ATOM     27  C   UNL     1       0.895   5.646  20.547  0.00  0.00    +0.000 C 
BRANCH  27  28
ATOM     28  N   UNL     1       1.289   4.227  20.301  0.00  0.00    +0.000 NA
ATOM     29  C   UNL     1       1.249   3.869  18.875  0.00  0.00    +0.000 C 
ATOM     30  C   UNL     1       1.507   2.381  18.649  0.00  0.00    +0.000 C 
ATOM     31  C   UNL     1       2.822   1.924  19.266  0.00  0.00    +0.000 C 
ATOM     32  C   UNL     1       2.996   2.429  20.694  0.00  0.00    +0.000 C 
ATOM     33  C   UNL     1       2.596   3.897  20.890  0.00  0.00    +0.000 C 
ENDBRANCH  27  28
ENDBRANCH  26  27
ENDBRANCH  25  26
ENDBRANCH   3  25
TORSDOF 9
ENDMDL
MODEL 6
REMARK VINA RESULT:      -5.7      2.849      6.673
REMARK  Name = 
REMARK  11 active torsions:
REMARK  status: ('A' for Active; 'I' for Inactive)
REMARK    1  A    between atoms: C_1  and  O_2
REMARK    2  A    between atoms: O_2  and  C_3
REMARK    3  A    between atoms: C_4  and  N_5
REMARK    4  A    between atoms: C_6  and  O_8
REMARK    5  A    between atoms: O_8  and  C_9
REMARK    6  A    between atoms: C_15  and  O_16
REMARK    7  A    between atoms: O_16  and  C_17
REMARK    8  A    between atoms: C_17  and  C_18
REMARK    9  A    between atoms: C_18  and  N_19
REMARK   10  A    between atoms: C_25  and  O_26
REMARK   11  A    between atoms: O_26  and  C_27
REMARK                            x       y       z     vdW  Elec       q    Type
REMARK                         _______ _______ _______ _____ _____    ______ ____
ROOT
ATOM      1  C   UNL     1       0.413  10.604  21.276  0.00  0.00    +0.000 A 
ATOM      2  C   UNL     1       0.487  10.208  19.908  0.00  0.00    +0.000 A 
ATOM      3  C   UNL     1      -0.027  11.071  18.895  0.00  0.00    +0.000 A 
ATOM      4  C   UNL     1      -0.321  12.421  19.182  0.00  0.00    +0.000 A 
ATOM      5  C   UNL     1      -0.386  12.753  20.540  0.00  0.00    +0.000 A 
ATOM      6  O   UNL     1      -0.827  13.957  21.019  0.00  0.00    +0.000 OA
ATOM      7  C   UNL     1      -0.942  13.837  22.368  0.00  0.00    +0.000 A 
ATOM      8  C   UNL     1      -0.561  12.578  22.761  0.00  0.00    +0.000 A 
ATOM      9  C   UNL     1      -0.108  11.882  21.592  0.00  0.00    +0.000 A 
ENDROOT
BRANCH   2  10
ATOM     10  N   UNL     1       0.899   8.878  19.618  0.00  0.00    +0.000 N 
ATOM     11  C   UNL     1       1.901   8.482  18.775  0.00  0.00    +0.000 C 
ATOM     12  O   UNL     1       2.691   9.190  18.172  0.00  0.00    +0.000 OA
ATOM     13  H   UNL     1       0.328   8.104  19.895  0.00  0.00    +0.000 HD
BRANCH  11  14
ATOM     14  O   UNL     1       1.830   7.117  18.670  0.00  0.00    +0.000 OA
BRANCH  14  15
ATOM     15  C   UNL     1       2.924   6.325  19.197  0.00  0.00    +0.000 C 
ATOM     16  C   UNL     1       2.428   5.497  20.386  0.00  0.00    +0.000 C 
ATOM     17  C   UNL     1       1.360   4.482  19.973  0.00  0.00    +0.000 C 
ATOM     18  C   UNL     1       1.847   3.543  18.873  0.00  0.00    +0.000 C 
ATOM     19  C   UNL     1       2.452   4.289  17.688  0.00  0.00    +0.000 C 
ATOM     20  C   UNL     1       3.449   5.376  18.101  0.00  0.00    +0.000 C 
ENDBRANCH  14  15
ENDBRANCH  11  14
ENDBRANCH   2  10
BRANCH   1  22
ATOM     21  C   UNL     1      -0.626   9.113  22.814  0.00  0.00    +0.000 C 
ATOM     22  O   UNL     1       0.569   9.574  22.203  0.00  0.00    +0.000 OA
ENDBRANCH   1  22
BRANCH   4  23
ATOM     23  O   UNL     1      -0.766  13.351  18.276  0.00  0.00    +0.000 OA
ATOM     24  C   UNL     1      -0.044  14.578  18.279  0.00  0.00    +0.000 C 
ENDBRANCH   4  23
BRANCH   3  25
ATOM     25  O   UNL     1      -0.327  10.682  17.591  0.00  0.00    +0.000 OA
BRANCH  25  26
ATOM     26  C   UNL     1      -1.632  10.111  17.456  0.00  0.00    +0.000 C 
BRANCH  26  27
ATOM     27  C   UNL     1      -2.605  10.857  16.530  0.00  0.00    +0.000 C 
BRANCH  27  28
ATOM     28  N   UNL     1      -3.627  11.684  17.237  0.00  0.00    +0.000 NA
ATOM     29  C   UNL     1      -4.976  11.519  16.673  0.00  0.00    +0.000 C 
ATOM     30  C   UNL     1      -5.982  12.479  17.304  0.00  0.00    +0.000 C 
ATOM     31  C   UNL     1      -6.031  12.349  18.820  0.00  0.00    +0.000 C 
ATOM     32  C   UNL     1      -4.638  12.328  19.442  0.00  0.00    +0.000 C 
ATOM     33  C   UNL     1      -3.631  11.449  18.689  0.00  0.00    +0.000 C 
ENDBRANCH  27  28
ENDBRANCH  26  27
ENDBRANCH  25  26
ENDBRANCH   3  25
TORSDOF 9
ENDMDL
MODEL 7
REMARK VINA RESULT:      -5.6      8.182     11.775
REMARK  Name = 
REMARK  11 active torsions:
REMARK  status: ('A' for Active; 'I' for Inactive)
REMARK    1  A    between atoms: C_1  and  O_2
REMARK    2  A    between atoms: O_2  and  C_3
REMARK    3  A    between atoms: C_4  and  N_5
REMARK    4  A    between atoms: C_6  and  O_8
REMARK    5  A    between atoms: O_8  and  C_9
REMARK    6  A    between atoms: C_15  and  O_16
REMARK    7  A    between atoms: O_16  and  C_17
REMARK    8  A    between atoms: C_17  and  C_18
REMARK    9  A    between atoms: C_18  and  N_19
REMARK   10  A    between atoms: C_25  and  O_26
REMARK   11  A    between atoms: O_26  and  C_27
REMARK                            x       y       z     vdW  Elec       q    Type
REMARK                         _______ _______ _______ _____ _____    ______ ____
ROOT
ATOM      1  C   UNL     1       9.822  13.024  19.460  0.00  0.00    +0.000 A 
ATOM      2  C   UNL     1       9.048  14.140  19.895  0.00  0.00    +0.000 A 
ATOM      3  C   UNL     1       9.185  15.395  19.232  0.00  0.00    +0.000 A 
ATOM      4  C   UNL     1       9.829  15.480  17.978  0.00  0.00    +0.000 A 
ATOM      5  C   UNL     1      10.579  14.359  17.603  0.00  0.00    +0.000 A 
ATOM      6  O   UNL     1      11.410  14.317  16.516  0.00  0.00    +0.000 OA
ATOM      7  C   UNL     1      12.113  13.156  16.593  0.00  0.00    +0.000 A 
ATOM      8  C   UNL     1      11.728  12.446  17.702  0.00  0.00    +0.000 A 
ATOM      9  C   UNL     1      10.662  13.172  18.329  0.00  0.00    +0.000 A 
ENDROOT
BRANCH   2  10
ATOM     10  N   UNL     1       8.306  14.009  21.100  0.00  0.00    +0.000 N 
ATOM     11  C   UNL     1       8.688  14.386  22.359  0.00  0.00    +0.000 C 
ATOM     12  O   UNL     1       9.702  14.982  22.682  0.00  0.00    +0.000 OA
ATOM     13  H   UNL     1       7.484  13.437  21.125  0.00  0.00    +0.000 HD
BRANCH  11  14
ATOM     14  O   UNL     1       7.741  13.914  23.231  0.00  0.00    +0.000 OA
BRANCH  14  15
ATOM     15  C   UNL     1       8.098  13.775  24.629  0.00  0.00    +0.000 C 
ATOM     16  C   UNL     1       7.003  14.400  25.499  0.00  0.00    +0.000 C 
ATOM     17  C   UNL     1       5.666  13.671  25.352  0.00  0.00    +0.000 C 
ATOM     18  C   UNL     1       5.777  12.184  25.673  0.00  0.00    +0.000 C 
ATOM     19  C   UNL     1       6.916  11.503  24.920  0.00  0.00    +0.000 C 
ATOM     20  C   UNL     1       8.234  12.280  24.981  0.00  0.00    +0.000 C 
ENDBRANCH  14  15
ENDBRANCH  11  14
ENDBRANCH   2  10
BRANCH   1  22
ATOM     21  C   UNL     1       9.389  10.734  19.945  0.00  0.00    +0.000 C 
ATOM     22  O   UNL     1       9.924  11.977  20.374  0.00  0.00    +0.000 OA
ENDBRANCH   1  22
BRANCH   4  23
ATOM     23  O   UNL     1       9.968  16.621  17.229  0.00  0.00    +0.000 OA
ATOM     24  C   UNL     1      11.121  17.398  17.537  0.00  0.00    +0.000 C 
ENDBRANCH   4  23
BRANCH   3  25
ATOM     25  O   UNL     1       8.766  16.621  19.747  0.00  0.00    +0.000 OA
BRANCH  25  26
ATOM     26  C   UNL     1       7.461  17.005  19.306  0.00  0.00    +0.000 C 
BRANCH  26  27
ATOM     27  C   UNL     1       6.323  16.832  20.324  0.00  0.00    +0.000 C 
BRANCH  27  28
ATOM     28  N   UNL     1       5.152  16.054  19.823  0.00  0.00    +0.000 NA
ATOM     29  C   UNL     1       3.977  16.901  19.570  0.00  0.00    +0.000 C 
ATOM     30  C   UNL     1       2.744  16.079  19.202  0.00  0.00    +0.000 C 
ATOM     31  C   UNL     1       2.995  15.166  18.010  0.00  0.00    +0.000 C 
ATOM     32  C   UNL     1       4.306  14.397  18.138  0.00  0.00    +0.000 C 
ATOM     33  C   UNL     1       5.482  15.245  18.639  0.00  0.00    +0.000 C 
ENDBRANCH  27  28
ENDBRANCH  26  27
ENDBRANCH  25  26
ENDBRANCH   3  25
TORSDOF 9
ENDMDL
MODEL 8
REMARK VINA RESULT:      -5.6      6.481      8.948
REMARK  Name = 
REMARK  11 active torsions:
REMARK  status: ('A' for Active; 'I' for Inactive)
REMARK    1  A    between atoms: C_1  and  O_2
REMARK    2  A    between atoms: O_2  and  C_3
REMARK    3  A    between atoms: C_4  and  N_5
REMARK    4  A    between atoms: C_6  and  O_8
REMARK    5  A    between atoms: O_8  and  C_9
REMARK    6  A    between atoms: C_15  and  O_16
REMARK    7  A    between atoms: O_16  and  C_17
REMARK    8  A    between atoms: C_17  and  C_18
REMARK    9  A    between atoms: C_18  and  N_19
REMARK   10  A    between atoms: C_25  and  O_26
REMARK   11  A    between atoms: O_26  and  C_27
REMARK                            x       y       z     vdW  Elec       q    Type
REMARK                         _______ _______ _______ _____ _____    ______ ____
ROOT
ATOM      1  C   UNL     1       1.334  14.041  19.886  0.00  0.00    +0.000 A 
ATOM      2  C   UNL     1       0.002  13.586  20.115  0.00  0.00    +0.000 A 
ATOM      3  C   UNL     1      -0.576  13.721  21.412  0.00  0.00    +0.000 A 
ATOM      4  C   UNL     1       0.016  14.562  22.380  0.00  0.00    +0.000 A 
ATOM      5  C   UNL     1       1.325  14.974  22.107  0.00  0.00    +0.000 A 
ATOM      6  O   UNL     1       2.124  15.641  22.995  0.00  0.00    +0.000 OA
ATOM      7  C   UNL     1       3.373  15.687  22.459  0.00  0.00    +0.000 A 
ATOM      8  C   UNL     1       3.377  15.078  21.229  0.00  0.00    +0.000 A 
ATOM      9  C   UNL     1       2.029  14.684  20.939  0.00  0.00    +0.000 A 
ENDROOT
BRANCH   2  10
ATOM     10  N   UNL     1      -0.635  12.838  19.088  0.00  0.00    +0.000 N 
ATOM     11  C   UNL     1      -0.759  11.478  19.003  0.00  0.00    +0.000 C 
ATOM     12  O   UNL     1      -0.424  10.646  19.830  0.00  0.00    +0.000 OA
ATOM     13  H   UNL     1      -0.888  13.282  18.227  0.00  0.00    +0.000 HD
BRANCH  11  14
ATOM     14  O   UNL     1      -1.286  11.193  17.770  0.00  0.00    +0.000 OA
BRANCH  14  15
ATOM     15  C   UNL     1      -2.186  10.063  17.647  0.00  0.00    +0.000 C 
ATOM     16  C   UNL     1      -3.571  10.457  18.168  0.00  0.00    +0.000 C 
ATOM     17  C   UNL     1      -4.206  11.568  17.329  0.00  0.00    +0.000 C 
ATOM     18  C   UNL     1      -4.309  11.194  15.854  0.00  0.00    +0.000 C 
ATOM     19  C   UNL     1      -2.988  10.693  15.280  0.00  0.00    +0.000 C 
ATOM     20  C   UNL     1      -2.299   9.651  16.165  0.00  0.00    +0.000 C 
ENDBRANCH  14  15
ENDBRANCH  11  14
ENDBRANCH   2  10
BRANCH   1  22
ATOM     21  C   UNL     1       2.741  14.456  18.011  0.00  0.00    +0.000 C 
ATOM     22  O   UNL     1       1.948  13.534  18.742  0.00  0.00    +0.000 OA
ENDBRANCH   1  22
BRANCH   4  23
ATOM     23  O   UNL     1      -0.482  14.808  23.635  0.00  0.00    +0.000 OA
ATOM     24  C   UNL     1      -1.202  16.030  23.760  0.00  0.00    +0.000 C 
ENDBRANCH   4  23
BRANCH   3  25
ATOM     25  O   UNL     1      -1.702  13.033  21.861  0.00  0.00    +0.000 OA
BRANCH  25  26
ATOM     26  C   UNL     1      -2.933  13.680  21.527  0.00  0.00    +0.000 C 
BRANCH  26  27
ATOM     27  C   UNL     1      -4.044  12.778  20.968  0.00  0.00    +0.000 C 
BRANCH  27  28
ATOM     28  N   UNL     1      -5.126  12.447  21.942  0.00  0.00    +0.000 NA
ATOM     29  C   UNL     1      -4.882  13.022  23.274  0.00  0.00    +0.000 C 
ATOM     30  C   UNL     1      -5.914  12.556  24.299  0.00  0.00    +0.000 C 
ATOM     31  C   UNL     1      -7.340  12.851  23.856  0.00  0.00    +0.000 C 
ATOM     32  C   UNL     1      -7.592  12.439  22.409  0.00  0.00    +0.000 C 
ATOM     33  C   UNL     1      -6.460  12.818  21.445  0.00  0.00    +0.000 C 
ENDBRANCH  27  28
ENDBRANCH  26  27
ENDBRANCH  25  26
ENDBRANCH   3  25
TORSDOF 9
ENDMDL
MODEL 9
REMARK VINA RESULT:      -5.5      4.756     10.085
REMARK  Name = 
REMARK  11 active torsions:
REMARK  status: ('A' for Active; 'I' for Inactive)
REMARK    1  A    between atoms: C_1  and  O_2
REMARK    2  A    between atoms: O_2  and  C_3
REMARK    3  A    between atoms: C_4  and  N_5
REMARK    4  A    between atoms: C_6  and  O_8
REMARK    5  A    between atoms: O_8  and  C_9
REMARK    6  A    between atoms: C_15  and  O_16
REMARK    7  A    between atoms: O_16  and  C_17
REMARK    8  A    between atoms: C_17  and  C_18
REMARK    9  A    between atoms: C_18  and  N_19
REMARK   10  A    between atoms: C_25  and  O_26
REMARK   11  A    between atoms: O_26  and  C_27
REMARK                            x       y       z     vdW  Elec       q    Type
REMARK                         _______ _______ _______ _____ _____    ______ ____
ROOT
ATOM      1  C   UNL     1      -0.078  10.655  21.284  0.00  0.00    +0.000 A 
ATOM      2  C   UNL     1      -0.987  11.753  21.284  0.00  0.00    +0.000 A 
ATOM      3  C   UNL     1      -1.437  12.297  20.045  0.00  0.00    +0.000 A 
ATOM      4  C   UNL     1      -1.248  11.589  18.838  0.00  0.00    +0.000 A 
ATOM      5  C   UNL     1      -0.341  10.524  18.894  0.00  0.00    +0.000 A 
ATOM      6  O   UNL     1       0.105   9.834  17.799  0.00  0.00    +0.000 OA
ATOM      7  C   UNL     1       1.116   9.026  18.217  0.00  0.00    +0.000 A 
ATOM      8  C   UNL     1       1.307   9.174  19.568  0.00  0.00    +0.000 A 
ATOM      9  C   UNL     1       0.306  10.082  20.047  0.00  0.00    +0.000 A 
ENDROOT
BRANCH   2  10
ATOM     10  N   UNL     1      -1.266  12.390  22.524  0.00  0.00    +0.000 N 
ATOM     11  C   UNL     1      -2.488  12.567  23.113  0.00  0.00    +0.000 C 
ATOM     12  O   UNL     1      -3.567  12.143  22.734  0.00  0.00    +0.000 OA
ATOM     13  H   UNL     1      -0.559  12.934  22.979  0.00  0.00    +0.000 HD
BRANCH  11  14
ATOM     14  O   UNL     1      -2.302  13.378  24.203  0.00  0.00    +0.000 OA
BRANCH  14  15
ATOM     15  C   UNL     1      -2.981  14.658  24.237  0.00  0.00    +0.000 C 
ATOM     16  C   UNL     1      -2.836  15.275  25.631  0.00  0.00    +0.000 C 
ATOM     17  C   UNL     1      -1.378  15.586  25.973  0.00  0.00    +0.000 C 
ATOM     18  C   UNL     1      -0.724  16.504  24.945  0.00  0.00    +0.000 C 
ATOM     19  C   UNL     1      -0.910  16.011  23.513  0.00  0.00    +0.000 C 
ATOM     20  C   UNL     1      -2.352  15.604  23.195  0.00  0.00    +0.000 C 
ENDBRANCH  14  15
ENDBRANCH  11  14
ENDBRANCH   2  10
BRANCH   1  22
ATOM     21  C   UNL     1       0.111   9.376  23.284  0.00  0.00    +0.000 C 
ATOM     22  O   UNL     1       0.599  10.442  22.484  0.00  0.00    +0.000 OA
ENDBRANCH   1  22
BRANCH   4  23
ATOM     23  O   UNL     1      -1.686  11.990  17.601  0.00  0.00    +0.000 OA
ATOM     24  C   UNL     1      -2.916  11.405  17.186  0.00  0.00    +0.000 C 
ENDBRANCH   4  23
BRANCH   3  25
ATOM     25  O   UNL     1      -2.034  13.546  19.891  0.00  0.00    +0.000 OA
BRANCH  25  26
ATOM     26  C   UNL     1      -1.092  14.620  19.816  0.00  0.00    +0.000 C 
BRANCH  26  27
ATOM     27  C   UNL     1       0.390  14.219  19.771  0.00  0.00    +0.000 C 
BRANCH  27  28
ATOM     28  N   UNL     1       1.208  14.970  18.772  0.00  0.00    +0.000 NA
ATOM     29  C   UNL     1       1.181  16.423  18.998  0.00  0.00    +0.000 C 
ATOM     30  C   UNL     1       1.895  17.190  17.887  0.00  0.00    +0.000 C 
ATOM     31  C   UNL     1       3.329  16.719  17.691  0.00  0.00    +0.000 C 
ATOM     32  C   UNL     1       3.434  15.199  17.637  0.00  0.00    +0.000 C 
ATOM     33  C   UNL     1       2.591  14.475  18.694  0.00  0.00    +0.000 C 
ENDBRANCH  27  28
ENDBRANCH  26  27
ENDBRANCH  25  26
ENDBRANCH   3  25
TORSDOF 9
ENDMDL
