MODEL 1
REMARK VINA RESULT:      -8.0      0.000      0.000
REMARK  Name = 
REMARK  11 active torsions:
REMARK  status: ('A' for Active; 'I' for Inactive)
REMARK    1  A    between atoms: C_1  and  C_2
REMARK    2  A    between atoms: C_2  and  O_3
REMARK    3  A    between atoms: O_3  and  C_4
REMARK    4  A    between atoms: C_4  and  C_5
REMARK    5  A    between atoms: C_4  and  C_30
REMARK    6  A    between atoms: C_5  and  C_6
REMARK    7  A    between atoms: C_9  and  O_10
REMARK    8  A    between atoms: O_10  and  C_11
REMARK    9  A    between atoms: C_11  and  C_12
REMARK   10  A    between atoms: C_12  and  C_13
REMARK   11  A    between atoms: C_30  and  O_32
REMARK                            x       y       z     vdW  Elec       q    Type
REMARK                         _______ _______ _______ _____ _____    ______ ____
ROOT
ATOM      1  C   UNL     1       1.626   8.140  21.130  0.00  0.00    +0.000 C 
ENDROOT
BRANCH   1   2
ATOM      2  O   UNL     1       0.827   8.996  20.302  0.00  0.00    +0.000 OA
BRANCH   2   6
ATOM      3  C   UNL     1      -1.516  11.597  22.577  0.00  0.00    +0.000 A 
ATOM      4  C   UNL     1      -1.392  11.802  21.207  0.00  0.00    +0.000 A 
ATOM      5  C   UNL     1      -0.621  10.943  20.421  0.00  0.00    +0.000 A 
ATOM      6  C   UNL     1       0.003   9.844  20.986  0.00  0.00    +0.000 A 
ATOM      7  C   UNL     1      -0.184   9.567  22.340  0.00  0.00    +0.000 A 
ATOM      8  C   UNL     1      -0.942  10.449  23.131  0.00  0.00    +0.000 A 
BRANCH   3   9
ATOM      9  C   UNL     1      -2.211  12.588  23.495  0.00  0.00    +0.000 C 
BRANCH   9  10
ATOM     10  C   UNL     1      -3.585  13.140  23.064  0.00  0.00    +0.000 C 
BRANCH  10  11
ATOM     11  C   UNL     1      -4.645  12.877  24.144  0.00  0.00    +0.000 C 
ATOM     12  O   UNL     1      -4.658  11.917  24.896  0.00  0.00    +0.000 OA
BRANCH  11  13
ATOM     13  O   UNL     1      -5.609  13.836  24.157  0.00  0.00    +0.000 OA
ATOM     14  H   UNL     1      -5.491  14.399  23.357  0.00  0.00    +0.000 HD
ENDBRANCH  11  13
ENDBRANCH  10  11
BRANCH  10  15
ATOM     15  O   UNL     1      -3.594  14.548  22.740  0.00  0.00    +0.000 OA
BRANCH  15  17
ATOM     16  C   UNL     1      -2.821  16.143  24.359  0.00  0.00    +0.000 C 
ATOM     17  C   UNL     1      -2.432  15.236  23.206  0.00  0.00    +0.000 C 
ENDBRANCH  15  17
ENDBRANCH  10  15
ENDBRANCH   9  10
ENDBRANCH   3   9
ENDBRANCH   2   6
ENDBRANCH   1   2
BRANCH   1  18
ATOM     18  C   UNL     1       1.344   6.726  20.683  0.00  0.00    +0.000 C 
BRANCH  18  19
ATOM     19  C   UNL     1       2.462   6.084  19.839  0.00  0.00    +0.000 C 
ATOM     20  S   UNL     1       2.697   6.834  18.230  0.00  0.00    +0.000 S 
ATOM     21  C   UNL     1       4.169   5.993  17.645  0.00  0.00    +0.000 A 
ATOM     22  C   UNL     1       4.748   6.650  16.535  0.00  0.00    +0.000 A 
ATOM     23  C   UNL     1       5.848   6.127  15.853  0.00  0.00    +0.000 A 
ATOM     24  C   UNL     1       6.365   4.902  16.243  0.00  0.00    +0.000 A 
ATOM     25  C   UNL     1       5.837   4.256  17.364  0.00  0.00    +0.000 A 
ATOM     26  C   UNL     1       4.772   4.808  18.108  0.00  0.00    +0.000 A 
ATOM     27  O   UNL     1       4.629   4.195  19.344  0.00  0.00    +0.000 OA
ATOM     28  C   UNL     1       3.413   3.825  19.855  0.00  0.00    +0.000 A 
ATOM     29  C   UNL     1       3.408   2.799  20.800  0.00  0.00    +0.000 A 
ATOM     30  C   UNL     1       2.227   2.452  21.469  0.00  0.00    +0.000 A 
ATOM     31  C   UNL     1       1.017   3.007  21.067  0.00  0.00    +0.000 A 
ATOM     32  C   UNL     1       1.023   4.025  20.127  0.00  0.00    +0.000 A 
ATOM     33  C   UNL     1       2.257   4.581  19.750  0.00  0.00    +0.000 A 
ENDBRANCH  18  19
ENDBRANCH   1  18
TORSDOF 10
ENDMDL
MODEL 2
REMARK VINA RESULT:      -7.9      1.042      1.497
REMARK  Name = 
REMARK  11 active torsions:
REMARK  status: ('A' for Active; 'I' for Inactive)
REMARK    1  A    between atoms: C_1  and  C_2
REMARK    2  A    between atoms: C_2  and  O_3
REMARK    3  A    between atoms: O_3  and  C_4
REMARK    4  A    between atoms: C_4  and  C_5
REMARK    5  A    between atoms: C_4  and  C_30
REMARK    6  A    between atoms: C_5  and  C_6
REMARK    7  A    between atoms: C_9  and  O_10
REMARK    8  A    between atoms: O_10  and  C_11
REMARK    9  A    between atoms: C_11  and  C_12
REMARK   10  A    between atoms: C_12  and  C_13
REMARK   11  A    between atoms: C_30  and  O_32
REMARK                            x       y       z     vdW  Elec       q    Type
REMARK                         _______ _______ _______ _____ _____    ______ ____
ROOT
ATOM      1  C   UNL     1       1.824   8.314  20.716  0.00  0.00    +0.000 C 
ENDROOT
BRANCH   1   2
ATOM      2  O   UNL     1       0.653   8.937  20.173  0.00  0.00    +0.000 OA
BRANCH   2   6
ATOM      3  C   UNL     1      -1.566  11.455  22.657  0.00  0.00    +0.000 A 
ATOM      4  C   UNL     1      -0.904  10.360  23.201  0.00  0.00    +0.000 A 
ATOM      5  C   UNL     1      -0.149   9.506  22.396  0.00  0.00    +0.000 A 
ATOM      6  C   UNL     1      -0.011   9.757  21.041  0.00  0.00    +0.000 A 
ATOM      7  C   UNL     1      -0.589  10.901  20.492  0.00  0.00    +0.000 A 
ATOM      8  C   UNL     1      -1.368  11.744  21.303  0.00  0.00    +0.000 A 
BRANCH   3   9
ATOM      9  C   UNL     1      -2.523  12.318  23.462  0.00  0.00    +0.000 C 
BRANCH   9  10
ATOM     10  C   UNL     1      -2.216  13.824  23.586  0.00  0.00    +0.000 C 
BRANCH  10  11
ATOM     11  C   UNL     1      -3.014  14.453  24.739  0.00  0.00    +0.000 C 
ATOM     12  O   UNL     1      -2.527  15.022  25.701  0.00  0.00    +0.000 OA
BRANCH  11  13
ATOM     13  O   UNL     1      -4.354  14.281  24.585  0.00  0.00    +0.000 OA
ATOM     14  H   UNL     1      -4.497  13.544  23.948  0.00  0.00    +0.000 HD
ENDBRANCH  11  13
ENDBRANCH  10  11
BRANCH  10  15
ATOM     15  O   UNL     1      -0.818  14.141  23.764  0.00  0.00    +0.000 OA
BRANCH  15  17
ATOM     16  C   UNL     1      -1.456  15.478  21.874  0.00  0.00    +0.000 C 
ATOM     17  C   UNL     1      -0.309  15.011  22.750  0.00  0.00    +0.000 C 
ENDBRANCH  15  17
ENDBRANCH  10  15
ENDBRANCH   9  10
ENDBRANCH   3   9
ENDBRANCH   2   6
ENDBRANCH   1   2
BRANCH   1  18
ATOM     18  C   UNL     1       1.617   6.825  20.586  0.00  0.00    +0.000 C 
BRANCH  18  19
ATOM     19  C   UNL     1       2.650   6.106  19.697  0.00  0.00    +0.000 C 
ATOM     20  S   UNL     1       2.853   6.827  18.070  0.00  0.00    +0.000 S 
ATOM     21  C   UNL     1       4.240   5.891  17.425  0.00  0.00    +0.000 A 
ATOM     22  C   UNL     1       4.805   6.501  16.281  0.00  0.00    +0.000 A 
ATOM     23  C   UNL     1       5.836   5.905  15.554  0.00  0.00    +0.000 A 
ATOM     24  C   UNL     1       6.294   4.653  15.932  0.00  0.00    +0.000 A 
ATOM     25  C   UNL     1       5.781   4.050  17.084  0.00  0.00    +0.000 A 
ATOM     26  C   UNL     1       4.789   4.674  17.872  0.00  0.00    +0.000 A 
ATOM     27  O   UNL     1       4.669   4.082  19.120  0.00  0.00    +0.000 OA
ATOM     28  C   UNL     1       3.458   3.793  19.692  0.00  0.00    +0.000 A 
ATOM     29  C   UNL     1       3.434   2.776  20.648  0.00  0.00    +0.000 A 
ATOM     30  C   UNL     1       2.268   2.510  21.376  0.00  0.00    +0.000 A 
ATOM     31  C   UNL     1       1.077   3.136  21.026  0.00  0.00    +0.000 A 
ATOM     32  C   UNL     1       1.101   4.144  20.076  0.00  0.00    +0.000 A 
ATOM     33  C   UNL     1       2.348   4.619  19.634  0.00  0.00    +0.000 A 
ENDBRANCH  18  19
ENDBRANCH   1  18
TORSDOF 10
ENDMDL
MODEL 3
REMARK VINA RESULT:      -7.9      2.803     10.841
REMARK  Name = 
REMARK  11 active torsions:
REMARK  status: ('A' for Active; 'I' for Inactive)
REMARK    1  A    between atoms: C_1  and  C_2
REMARK    2  A    between atoms: C_2  and  O_3
REMARK    3  A    between atoms: O_3  and  C_4
REMARK    4  A    between atoms: C_4  and  C_5
REMARK    5  A    between atoms: C_4  and  C_30
REMARK    6  A    between atoms: C_5  and  C_6
REMARK    7  A    between atoms: C_9  and  O_10
REMARK    8  A    between atoms: O_10  and  C_11
REMARK    9  A    between atoms: C_11  and  C_12
REMARK   10  A    between atoms: C_12  and  C_13
REMARK   11  A    between atoms: C_30  and  O_32
REMARK                            x       y       z     vdW  Elec       q    Type
REMARK                         _______ _______ _______ _____ _____    ______ ____
ROOT
ATOM      1  C   UNL     1       1.005  11.126  19.376  0.00  0.00    +0.000 C 
ENDROOT
BRANCH   1   2
ATOM      2  O   UNL     1       0.587   9.785  19.666  0.00  0.00    +0.000 OA
BRANCH   2   6
ATOM      3  C   UNL     1       3.143   6.655  18.618  0.00  0.00    +0.000 A 
ATOM      4  C   UNL     1       2.992   7.737  17.759  0.00  0.00    +0.000 A 
ATOM      5  C   UNL     1       2.150   8.802  18.087  0.00  0.00    +0.000 A 
ATOM      6  C   UNL     1       1.478   8.817  19.298  0.00  0.00    +0.000 A 
ATOM      7  C   UNL     1       1.687   7.788  20.214  0.00  0.00    +0.000 A 
ATOM      8  C   UNL     1       2.518   6.707  19.868  0.00  0.00    +0.000 A 
BRANCH   3   9
ATOM      9  C   UNL     1       3.921   5.407  18.237  0.00  0.00    +0.000 C 
BRANCH   9  10
ATOM     10  C   UNL     1       4.729   4.688  19.335  0.00  0.00    +0.000 C 
BRANCH  10  11
ATOM     11  C   UNL     1       4.589   3.163  19.211  0.00  0.00    +0.000 C 
ATOM     12  O   UNL     1       4.680   2.372  20.135  0.00  0.00    +0.000 OA
BRANCH  11  13
ATOM     13  O   UNL     1       4.375   2.774  17.926  0.00  0.00    +0.000 OA
ATOM     14  H   UNL     1       3.481   3.088  17.656  0.00  0.00    +0.000 HD
ENDBRANCH  11  13
ENDBRANCH  10  11
BRANCH  10  15
ATOM     15  O   UNL     1       6.135   5.023  19.365  0.00  0.00    +0.000 OA
BRANCH  15  17
ATOM     16  C   UNL     1       7.530   4.660  17.445  0.00  0.00    +0.000 C 
ATOM     17  C   UNL     1       6.593   5.622  18.151  0.00  0.00    +0.000 C 
ENDBRANCH  15  17
ENDBRANCH  10  15
ENDBRANCH   9  10
ENDBRANCH   3   9
ENDBRANCH   2   6
ENDBRANCH   1   2
BRANCH   1  18
ATOM     18  C   UNL     1      -0.076  11.734  18.515  0.00  0.00    +0.000 C 
BRANCH  18  19
ATOM     19  C   UNL     1      -1.408  11.996  19.243  0.00  0.00    +0.000 C 
ATOM     20  S   UNL     1      -1.311  11.871  21.027  0.00  0.00    +0.000 S 
ATOM     21  C   UNL     1      -2.942  12.431  21.523  0.00  0.00    +0.000 A 
ATOM     22  C   UNL     1      -2.999  12.740  22.902  0.00  0.00    +0.000 A 
ATOM     23  C   UNL     1      -4.189  13.107  23.531  0.00  0.00    +0.000 A 
ATOM     24  C   UNL     1      -5.364  13.126  22.798  0.00  0.00    +0.000 A 
ATOM     25  C   UNL     1      -5.325  12.868  21.425  0.00  0.00    +0.000 A 
ATOM     26  C   UNL     1      -4.117  12.567  20.759  0.00  0.00    +0.000 A 
ATOM     27  O   UNL     1      -4.241  12.676  19.382  0.00  0.00    +0.000 OA
ATOM     28  C   UNL     1      -3.734  11.747  18.513  0.00  0.00    +0.000 A 
ATOM     29  C   UNL     1      -4.331  11.663  17.254  0.00  0.00    +0.000 A 
ATOM     30  C   UNL     1      -3.789  10.836  16.263  0.00  0.00    +0.000 A 
ATOM     31  C   UNL     1      -2.759   9.959  16.581  0.00  0.00    +0.000 A 
ATOM     32  C   UNL     1      -2.168  10.041  17.832  0.00  0.00    +0.000 A 
ATOM     33  C   UNL     1      -2.507  11.122  18.663  0.00  0.00    +0.000 A 
ENDBRANCH  18  19
ENDBRANCH   1  18
TORSDOF 10
ENDMDL
MODEL 4
REMARK VINA RESULT:      -7.8      0.979      1.653
REMARK  Name = 
REMARK  11 active torsions:
REMARK  status: ('A' for Active; 'I' for Inactive)
REMARK    1  A    between atoms: C_1  and  C_2
REMARK    2  A    between atoms: C_2  and  O_3
REMARK    3  A    between atoms: O_3  and  C_4
REMARK    4  A    between atoms: C_4  and  C_5
REMARK    5  A    between atoms: C_4  and  C_30
REMARK    6  A    between atoms: C_5  and  C_6
REMARK    7  A    between atoms: C_9  and  O_10
REMARK    8  A    between atoms: O_10  and  C_11
REMARK    9  A    between atoms: C_11  and  C_12
REMARK   10  A    between atoms: C_12  and  C_13
REMARK   11  A    between atoms: C_30  and  O_32
REMARK                            x       y       z     vdW  Elec       q    Type
REMARK                         _______ _______ _______ _____ _____    ______ ____
ROOT
ATOM      1  C   UNL     1       1.355   8.292  20.559  0.00  0.00    +0.000 C 
ENDROOT
BRANCH   1   2
ATOM      2  O   UNL     1       1.168   8.986  21.800  0.00  0.00    +0.000 OA
BRANCH   2   6
ATOM      3  C   UNL     1      -1.745  11.973  21.953  0.00  0.00    +0.000 A 
ATOM      4  C   UNL     1      -1.180  11.624  20.731  0.00  0.00    +0.000 A 
ATOM      5  C   UNL     1      -0.210  10.623  20.649  0.00  0.00    +0.000 A 
ATOM      6  C   UNL     1       0.181   9.930  21.782  0.00  0.00    +0.000 A 
ATOM      7  C   UNL     1      -0.439  10.200  23.002  0.00  0.00    +0.000 A 
ATOM      8  C   UNL     1      -1.398  11.224  23.082  0.00  0.00    +0.000 A 
BRANCH   3   9
ATOM      9  C   UNL     1      -2.684  13.156  22.114  0.00  0.00    +0.000 C 
BRANCH   9  10
ATOM     10  C   UNL     1      -3.640  13.167  23.323  0.00  0.00    +0.000 C 
BRANCH  10  11
ATOM     11  C   UNL     1      -3.453  14.442  24.160  0.00  0.00    +0.000 C 
ATOM     12  O   UNL     1      -3.152  14.469  25.341  0.00  0.00    +0.000 OA
BRANCH  11  13
ATOM     13  O   UNL     1      -3.691  15.568  23.434  0.00  0.00    +0.000 OA
ATOM     14  H   UNL     1      -3.027  15.609  22.708  0.00  0.00    +0.000 HD
ENDBRANCH  11  13
ENDBRANCH  10  11
BRANCH  10  15
ATOM     15  O   UNL     1      -5.039  13.037  22.986  0.00  0.00    +0.000 OA
BRANCH  15  17
ATOM     16  C   UNL     1      -7.237  12.364  23.678  0.00  0.00    +0.000 C 
ATOM     17  C   UNL     1      -5.876  12.856  24.130  0.00  0.00    +0.000 C 
ENDBRANCH  15  17
ENDBRANCH  10  15
ENDBRANCH   9  10
ENDBRANCH   3   9
ENDBRANCH   2   6
ENDBRANCH   1   2
BRANCH   1  18
ATOM     18  C   UNL     1       1.710   6.868  20.914  0.00  0.00    +0.000 C 
BRANCH  18  19
ATOM     19  C   UNL     1       2.659   6.174  19.918  0.00  0.00    +0.000 C 
ATOM     20  S   UNL     1       2.774   6.982  18.323  0.00  0.00    +0.000 S 
ATOM     21  C   UNL     1       4.085   6.046  17.533  0.00  0.00    +0.000 A 
ATOM     22  C   UNL     1       4.590   6.706  16.389  0.00  0.00    +0.000 A 
ATOM     23  C   UNL     1       5.551   6.124  15.560  0.00  0.00    +0.000 A 
ATOM     24  C   UNL     1       5.994   4.841  15.836  0.00  0.00    +0.000 A 
ATOM     25  C   UNL     1       5.542   4.187  16.986  0.00  0.00    +0.000 A 
ATOM     26  C   UNL     1       4.625   4.791  17.874  0.00  0.00    +0.000 A 
ATOM     27  O   UNL     1       4.570   4.132  19.092  0.00  0.00    +0.000 OA
ATOM     28  C   UNL     1       3.393   3.844  19.730  0.00  0.00    +0.000 A 
ATOM     29  C   UNL     1       3.402   2.775  20.627  0.00  0.00    +0.000 A 
ATOM     30  C   UNL     1       2.280   2.499  21.418  0.00  0.00    +0.000 A 
ATOM     31  C   UNL     1       1.088   3.177  21.187  0.00  0.00    +0.000 A 
ATOM     32  C   UNL     1       1.079   4.237  20.294  0.00  0.00    +0.000 A 
ATOM     33  C   UNL     1       2.307   4.701  19.794  0.00  0.00    +0.000 A 
ENDBRANCH  18  19
ENDBRANCH   1  18
TORSDOF 10
ENDMDL
MODEL 5
REMARK VINA RESULT:      -7.8      0.913      1.237
REMARK  Name = 
REMARK  11 active torsions:
REMARK  status: ('A' for Active; 'I' for Inactive)
REMARK    1  A    between atoms: C_1  and  C_2
REMARK    2  A    between atoms: C_2  and  O_3
REMARK    3  A    between atoms: O_3  and  C_4
REMARK    4  A    between atoms: C_4  and  C_5
REMARK    5  A    between atoms: C_4  and  C_30
REMARK    6  A    between atoms: C_5  and  C_6
REMARK    7  A    between atoms: C_9  and  O_10
REMARK    8  A    between atoms: O_10  and  C_11
REMARK    9  A    between atoms: C_11  and  C_12
REMARK   10  A    between atoms: C_12  and  C_13
REMARK   11  A    between atoms: C_30  and  O_32
REMARK                            x       y       z     vdW  Elec       q    Type
REMARK                         _______ _______ _______ _____ _____    ______ ____
ROOT
ATOM      1  C   UNL     1       1.638   8.425  20.178  0.00  0.00    +0.000 C 
ENDROOT
BRANCH   1   2
ATOM      2  O   UNL     1       0.226   8.643  20.295  0.00  0.00    +0.000 OA
BRANCH   2   6
ATOM      3  C   UNL     1      -1.007  11.838  22.683  0.00  0.00    +0.000 A 
ATOM      4  C   UNL     1      -0.876  10.572  23.242  0.00  0.00    +0.000 A 
ATOM      5  C   UNL     1      -0.458   9.487  22.469  0.00  0.00    +0.000 A 
ATOM      6  C   UNL     1      -0.127   9.661  21.135  0.00  0.00    +0.000 A 
ATOM      7  C   UNL     1      -0.161  10.939  20.579  0.00  0.00    +0.000 A 
ATOM      8  C   UNL     1      -0.606  12.023  21.356  0.00  0.00    +0.000 A 
BRANCH   3   9
ATOM      9  C   UNL     1      -1.606  13.011  23.441  0.00  0.00    +0.000 C 
BRANCH   9  10
ATOM     10  C   UNL     1      -2.962  13.568  22.965  0.00  0.00    +0.000 C 
BRANCH  10  11
ATOM     11  C   UNL     1      -4.106  12.605  23.319  0.00  0.00    +0.000 C 
ATOM     12  O   UNL     1      -4.295  12.113  24.419  0.00  0.00    +0.000 OA
BRANCH  11  13
ATOM     13  O   UNL     1      -4.891  12.329  22.244  0.00  0.00    +0.000 OA
ATOM     14  H   UNL     1      -5.773  12.742  22.394  0.00  0.00    +0.000 HD
ENDBRANCH  11  13
ENDBRANCH  10  11
BRANCH  10  15
ATOM     15  O   UNL     1      -3.287  14.880  23.477  0.00  0.00    +0.000 OA
BRANCH  15  17
ATOM     16  C   UNL     1      -5.180  16.108  22.659  0.00  0.00    +0.000 C 
ATOM     17  C   UNL     1      -3.711  15.788  22.459  0.00  0.00    +0.000 C 
ENDBRANCH  15  17
ENDBRANCH  10  15
ENDBRANCH   9  10
ENDBRANCH   3   9
ENDBRANCH   2   6
ENDBRANCH   1   2
BRANCH   1  18
ATOM     18  C   UNL     1       1.883   6.989  20.576  0.00  0.00    +0.000 C 
BRANCH  18  19
ATOM     19  C   UNL     1       2.810   6.208  19.626  0.00  0.00    +0.000 C 
ATOM     20  S   UNL     1       3.001   6.948  18.006  0.00  0.00    +0.000 S 
ATOM     21  C   UNL     1       4.273   5.913  17.278  0.00  0.00    +0.000 A 
ATOM     22  C   UNL     1       4.836   6.501  16.122  0.00  0.00    +0.000 A 
ATOM     23  C   UNL     1       5.779   5.837  15.336  0.00  0.00    +0.000 A 
ATOM     24  C   UNL     1       6.144   4.542  15.667  0.00  0.00    +0.000 A 
ATOM     25  C   UNL     1       5.634   3.957  16.829  0.00  0.00    +0.000 A 
ATOM     26  C   UNL     1       4.736   4.644  17.675  0.00  0.00    +0.000 A 
ATOM     27  O   UNL     1       4.621   4.034  18.915  0.00  0.00    +0.000 OA
ATOM     28  C   UNL     1       3.417   3.835  19.538  0.00  0.00    +0.000 A 
ATOM     29  C   UNL     1       3.349   2.801  20.472  0.00  0.00    +0.000 A 
ATOM     30  C   UNL     1       2.198   2.617  21.249  0.00  0.00    +0.000 A 
ATOM     31  C   UNL     1       1.051   3.350  20.968  0.00  0.00    +0.000 A 
ATOM     32  C   UNL     1       1.118   4.375  20.037  0.00  0.00    +0.000 A 
ATOM     33  C   UNL     1       2.379   4.753  19.548  0.00  0.00    +0.000 A 
ENDBRANCH  18  19
ENDBRANCH   1  18
TORSDOF 10
ENDMDL
MODEL 6
REMARK VINA RESULT:      -7.8      2.777     10.334
REMARK  Name = 
REMARK  11 active torsions:
REMARK  status: ('A' for Active; 'I' for Inactive)
REMARK    1  A    between atoms: C_1  and  C_2
REMARK    2  A    between atoms: C_2  and  O_3
REMARK    3  A    between atoms: O_3  and  C_4
REMARK    4  A    between atoms: C_4  and  C_5
REMARK    5  A    between atoms: C_4  and  C_30
REMARK    6  A    between atoms: C_5  and  C_6
REMARK    7  A    between atoms: C_9  and  O_10
REMARK    8  A    between atoms: O_10  and  C_11
REMARK    9  A    between atoms: C_11  and  C_12
REMARK   10  A    between atoms: C_12  and  C_13
REMARK   11  A    between atoms: C_30  and  O_32
REMARK                            x       y       z     vdW  Elec       q    Type
REMARK                         _______ _______ _______ _____ _____    ______ ____
ROOT
ATOM      1  C   UNL     1       1.336  10.674  19.109  0.00  0.00    +0.000 C 
ENDROOT
BRANCH   1   2
ATOM      2  O   UNL     1       1.766   9.751  18.101  0.00  0.00    +0.000 OA
BRANCH   2   6
ATOM      3  C   UNL     1       3.021   6.010  19.466  0.00  0.00    +0.000 A 
ATOM      4  C   UNL     1       2.105   6.743  20.213  0.00  0.00    +0.000 A 
ATOM      5  C   UNL     1       1.662   7.994  19.776  0.00  0.00    +0.000 A 
ATOM      6  C   UNL     1       2.098   8.510  18.568  0.00  0.00    +0.000 A 
ATOM      7  C   UNL     1       2.943   7.750  17.760  0.00  0.00    +0.000 A 
ATOM      8  C   UNL     1       3.404   6.503  18.216  0.00  0.00    +0.000 A 
BRANCH   3   9
ATOM      9  C   UNL     1       3.649   4.723  19.974  0.00  0.00    +0.000 C 
BRANCH   9  10
ATOM     10  C   UNL     1       2.831   3.421  19.863  0.00  0.00    +0.000 C 
BRANCH  10  11
ATOM     11  C   UNL     1       1.981   3.196  21.123  0.00  0.00    +0.000 C 
ATOM     12  O   UNL     1       2.424   2.987  22.240  0.00  0.00    +0.000 OA
BRANCH  11  13
ATOM     13  O   UNL     1       0.649   3.228  20.853  0.00  0.00    +0.000 OA
ATOM     14  H   UNL     1       0.533   3.525  19.921  0.00  0.00    +0.000 HD
ENDBRANCH  11  13
ENDBRANCH  10  11
BRANCH  10  15
ATOM     15  O   UNL     1       1.969   3.348  18.705  0.00  0.00    +0.000 OA
BRANCH  15  17
ATOM     16  C   UNL     1       3.893   2.858  17.356  0.00  0.00    +0.000 C 
ATOM     17  C   UNL     1       2.466   2.470  17.693  0.00  0.00    +0.000 C 
ENDBRANCH  15  17
ENDBRANCH  10  15
ENDBRANCH   9  10
ENDBRANCH   3   9
ENDBRANCH   2   6
ENDBRANCH   1   2
BRANCH   1  18
ATOM     18  C   UNL     1       0.334  11.592  18.451  0.00  0.00    +0.000 C 
BRANCH  18  19
ATOM     19  C   UNL     1      -0.937  11.858  19.281  0.00  0.00    +0.000 C 
ATOM     20  S   UNL     1      -0.723  11.648  21.046  0.00  0.00    +0.000 S 
ATOM     21  C   UNL     1      -2.298  12.231  21.677  0.00  0.00    +0.000 A 
ATOM     22  C   UNL     1      -2.252  12.478  23.069  0.00  0.00    +0.000 A 
ATOM     23  C   UNL     1      -3.384  12.849  23.795  0.00  0.00    +0.000 A 
ATOM     24  C   UNL     1      -4.605  12.936  23.146  0.00  0.00    +0.000 A 
ATOM     25  C   UNL     1      -4.667  12.739  21.763  0.00  0.00    +0.000 A 
ATOM     26  C   UNL     1      -3.517  12.435  21.003  0.00  0.00    +0.000 A 
ATOM     27  O   UNL     1      -3.730  12.611  19.644  0.00  0.00    +0.000 OA
ATOM     28  C   UNL     1      -3.313  11.709  18.702  0.00  0.00    +0.000 A 
ATOM     29  C   UNL     1      -3.996  11.700  17.485  0.00  0.00    +0.000 A 
ATOM     30  C   UNL     1      -3.549  10.904  16.423  0.00  0.00    +0.000 A 
ATOM     31  C   UNL     1      -2.528   9.984  16.631  0.00  0.00    +0.000 A 
ATOM     32  C   UNL     1      -1.851   9.992  17.841  0.00  0.00    +0.000 A 
ATOM     33  C   UNL     1      -2.099  11.043  18.739  0.00  0.00    +0.000 A 
ENDBRANCH  18  19
ENDBRANCH   1  18
TORSDOF 10
ENDMDL
MODEL 7
REMARK VINA RESULT:      -7.7      2.906      4.148
REMARK  Name = 
REMARK  11 active torsions:
REMARK  status: ('A' for Active; 'I' for Inactive)
REMARK    1  A    between atoms: C_1  and  C_2
REMARK    2  A    between atoms: C_2  and  O_3
REMARK    3  A    between atoms: O_3  and  C_4
REMARK    4  A    between atoms: C_4  and  C_5
REMARK    5  A    between atoms: C_4  and  C_30
REMARK    6  A    between atoms: C_5  and  C_6
REMARK    7  A    between atoms: C_9  and  O_10
REMARK    8  A    between atoms: O_10  and  C_11
REMARK    9  A    between atoms: C_11  and  C_12
REMARK   10  A    between atoms: C_12  and  C_13
REMARK   11  A    between atoms: C_30  and  O_32
REMARK                            x       y       z     vdW  Elec       q    Type
REMARK                         _______ _______ _______ _____ _____    ______ ____
ROOT
ATOM      1  C   UNL     1       2.482   7.611  19.419  0.00  0.00    +0.000 C 
ENDROOT
BRANCH   1   2
ATOM      2  O   UNL     1       1.699   8.084  20.523  0.00  0.00    +0.000 OA
BRANCH   2   6
ATOM      3  C   UNL     1      -1.057  11.009  19.388  0.00  0.00    +0.000 A 
ATOM      4  C   UNL     1      -0.868  10.727  20.737  0.00  0.00    +0.000 A 
ATOM      5  C   UNL     1       0.053   9.760  21.145  0.00  0.00    +0.000 A 
ATOM      6  C   UNL     1       0.826   9.089  20.213  0.00  0.00    +0.000 A 
ATOM      7  C   UNL     1       0.719   9.422  18.863  0.00  0.00    +0.000 A 
ATOM      8  C   UNL     1      -0.226  10.379  18.456  0.00  0.00    +0.000 A 
BRANCH   3   9
ATOM      9  C   UNL     1      -2.153  11.935  18.890  0.00  0.00    +0.000 C 
BRANCH   9  10
ATOM     10  C   UNL     1      -3.252  11.342  17.986  0.00  0.00    +0.000 C 
BRANCH  10  11
ATOM     11  C   UNL     1      -4.593  12.058  18.211  0.00  0.00    +0.000 C 
ATOM     12  O   UNL     1      -5.530  12.054  17.431  0.00  0.00    +0.000 OA
BRANCH  11  13
ATOM     13  O   UNL     1      -4.617  12.738  19.388  0.00  0.00    +0.000 OA
ATOM     14  H   UNL     1      -5.547  12.755  19.713  0.00  0.00    +0.000 HD
ENDBRANCH  11  13
ENDBRANCH  10  11
BRANCH  10  15
ATOM     15  O   UNL     1      -2.948  11.363  16.574  0.00  0.00    +0.000 OA
BRANCH  15  17
ATOM     16  C   UNL     1      -3.235  10.191  14.498  0.00  0.00    +0.000 C 
ATOM     17  C   UNL     1      -2.948  10.062  15.982  0.00  0.00    +0.000 C 
ENDBRANCH  15  17
ENDBRANCH  10  15
ENDBRANCH   9  10
ENDBRANCH   3   9
ENDBRANCH   2   6
ENDBRANCH   1   2
BRANCH   1  18
ATOM     18  C   UNL     1       2.881   6.194  19.754  0.00  0.00    +0.000 C 
BRANCH  18  19
ATOM     19  C   UNL     1       3.592   5.439  18.615  0.00  0.00    +0.000 C 
ATOM     20  S   UNL     1       4.099   6.476  17.246  0.00  0.00    +0.000 S 
ATOM     21  C   UNL     1       5.048   5.326  16.247  0.00  0.00    +0.000 A 
ATOM     22  C   UNL     1       5.834   5.991  15.278  0.00  0.00    +0.000 A 
ATOM     23  C   UNL     1       6.584   5.297  14.327  0.00  0.00    +0.000 A 
ATOM     24  C   UNL     1       6.523   3.913  14.297  0.00  0.00    +0.000 A 
ATOM     25  C   UNL     1       5.788   3.234  15.272  0.00  0.00    +0.000 A 
ATOM     26  C   UNL     1       5.083   3.919  16.285  0.00  0.00    +0.000 A 
ATOM     27  O   UNL     1       4.711   3.076  17.322  0.00  0.00    +0.000 OA
ATOM     28  C   UNL     1       3.465   3.101  17.890  0.00  0.00    +0.000 A 
ATOM     29  C   UNL     1       3.031   1.934  18.519  0.00  0.00    +0.000 A 
ATOM     30  C   UNL     1       1.830   1.916  19.239  0.00  0.00    +0.000 A 
ATOM     31  C   UNL     1       0.975   3.011  19.183  0.00  0.00    +0.000 A 
ATOM     32  C   UNL     1       1.406   4.170  18.556  0.00  0.00    +0.000 A 
ATOM     33  C   UNL     1       2.752   4.257  18.162  0.00  0.00    +0.000 A 
ENDBRANCH  18  19
ENDBRANCH   1  18
TORSDOF 10
ENDMDL
MODEL 8
REMARK VINA RESULT:      -7.7      1.219      1.448
REMARK  Name = 
REMARK  11 active torsions:
REMARK  status: ('A' for Active; 'I' for Inactive)
REMARK    1  A    between atoms: C_1  and  C_2
REMARK    2  A    between atoms: C_2  and  O_3
REMARK    3  A    between atoms: O_3  and  C_4
REMARK    4  A    between atoms: C_4  and  C_5
REMARK    5  A    between atoms: C_4  and  C_30
REMARK    6  A    between atoms: C_5  and  C_6
REMARK    7  A    between atoms: C_9  and  O_10
REMARK    8  A    between atoms: O_10  and  C_11
REMARK    9  A    between atoms: C_11  and  C_12
REMARK   10  A    between atoms: C_12  and  C_13
REMARK   11  A    between atoms: C_30  and  O_32
REMARK                            x       y       z     vdW  Elec       q    Type
REMARK                         _______ _______ _______ _____ _____    ______ ____
ROOT
ATOM      1  C   UNL     1       1.462   8.198  20.364  0.00  0.00    +0.000 C 
ENDROOT
BRANCH   1   2
ATOM      2  O   UNL     1       1.563   8.970  21.568  0.00  0.00    +0.000 OA
BRANCH   2   6
ATOM      3  C   UNL     1      -1.506  11.662  22.441  0.00  0.00    +0.000 A 
ATOM      4  C   UNL     1      -0.852  11.738  21.217  0.00  0.00    +0.000 A 
ATOM      5  C   UNL     1       0.173  10.846  20.895  0.00  0.00    +0.000 A 
ATOM      6  C   UNL     1       0.530   9.840  21.777  0.00  0.00    +0.000 A 
ATOM      7  C   UNL     1      -0.175   9.688  22.970  0.00  0.00    +0.000 A 
ATOM      8  C   UNL     1      -1.190  10.604  23.298  0.00  0.00    +0.000 A 
BRANCH   3   9
ATOM      9  C   UNL     1      -2.514  12.703  22.898  0.00  0.00    +0.000 C 
BRANCH   9  10
ATOM     10  C   UNL     1      -2.461  14.101  22.249  0.00  0.00    +0.000 C 
BRANCH  10  11
ATOM     11  C   UNL     1      -3.597  14.276  21.228  0.00  0.00    +0.000 C 
ATOM     12  O   UNL     1      -4.604  13.590  21.175  0.00  0.00    +0.000 OA
BRANCH  11  13
ATOM     13  O   UNL     1      -3.343  15.283  20.351  0.00  0.00    +0.000 OA
ATOM     14  H   UNL     1      -3.973  15.200  19.598  0.00  0.00    +0.000 HD
ENDBRANCH  11  13
ENDBRANCH  10  11
BRANCH  10  15
ATOM     15  O   UNL     1      -2.507  15.202  23.184  0.00  0.00    +0.000 OA
BRANCH  15  17
ATOM     16  C   UNL     1      -4.382  16.012  24.445  0.00  0.00    +0.000 C 
ATOM     17  C   UNL     1      -3.324  14.932  24.325  0.00  0.00    +0.000 C 
ENDBRANCH  15  17
ENDBRANCH  10  15
ENDBRANCH   9  10
ENDBRANCH   3   9
ENDBRANCH   2   6
ENDBRANCH   1   2
BRANCH   1  18
ATOM     18  C   UNL     1       1.789   6.773  20.740  0.00  0.00    +0.000 C 
BRANCH  18  19
ATOM     19  C   UNL     1       2.740   6.053  19.766  0.00  0.00    +0.000 C 
ATOM     20  S   UNL     1       2.887   6.837  18.162  0.00  0.00    +0.000 S 
ATOM     21  C   UNL     1       4.194   5.873  17.401  0.00  0.00    +0.000 A 
ATOM     22  C   UNL     1       4.723   6.509  16.254  0.00  0.00    +0.000 A 
ATOM     23  C   UNL     1       5.685   5.903  15.446  0.00  0.00    +0.000 A 
ATOM     24  C   UNL     1       6.107   4.618  15.745  0.00  0.00    +0.000 A 
ATOM     25  C   UNL     1       5.631   3.986  16.897  0.00  0.00    +0.000 A 
ATOM     26  C   UNL     1       4.712   4.615  17.765  0.00  0.00    +0.000 A 
ATOM     27  O   UNL     1       4.632   3.973  18.992  0.00  0.00    +0.000 OA
ATOM     28  C   UNL     1       3.443   3.710  19.618  0.00  0.00    +0.000 A 
ATOM     29  C   UNL     1       3.425   2.653  20.529  0.00  0.00    +0.000 A 
ATOM     30  C   UNL     1       2.290   2.404  21.309  0.00  0.00    +0.000 A 
ATOM     31  C   UNL     1       1.111   3.095  21.054  0.00  0.00    +0.000 A 
ATOM     32  C   UNL     1       1.128   4.143  20.147  0.00  0.00    +0.000 A 
ATOM     33  C   UNL     1       2.369   4.583  19.657  0.00  0.00    +0.000 A 
ENDBRANCH  18  19
ENDBRANCH   1  18
TORSDOF 10
ENDMDL
MODEL 9
REMARK VINA RESULT:      -7.7      1.471      1.936
REMARK  Name = 
REMARK  11 active torsions:
REMARK  status: ('A' for Active; 'I' for Inactive)
REMARK    1  A    between atoms: C_1  and  C_2
REMARK    2  A    between atoms: C_2  and  O_3
REMARK    3  A    between atoms: O_3  and  C_4
REMARK    4  A    between atoms: C_4  and  C_5
REMARK    5  A    between atoms: C_4  and  C_30
REMARK    6  A    between atoms: C_5  and  C_6
REMARK    7  A    between atoms: C_9  and  O_10
REMARK    8  A    between atoms: O_10  and  C_11
REMARK    9  A    between atoms: C_11  and  C_12
REMARK   10  A    between atoms: C_12  and  C_13
REMARK   11  A    between atoms: C_30  and  O_32
REMARK                            x       y       z     vdW  Elec       q    Type
REMARK                         _______ _______ _______ _____ _____    ______ ____
ROOT
ATOM      1  C   UNL     1       1.435   8.228  20.576  0.00  0.00    +0.000 C 
ENDROOT
BRANCH   1   2
ATOM      2  O   UNL     1       1.370   8.832  21.874  0.00  0.00    +0.000 OA
BRANCH   2   6
ATOM      3  C   UNL     1      -1.041  12.206  22.356  0.00  0.00    +0.000 A 
ATOM      4  C   UNL     1      -0.117  12.164  21.318  0.00  0.00    +0.000 A 
ATOM      5  C   UNL     1       0.697  11.045  21.129  0.00  0.00    +0.000 A 
ATOM      6  C   UNL     1       0.570   9.937  21.950  0.00  0.00    +0.000 A 
ATOM      7  C   UNL     1      -0.415   9.922  22.937  0.00  0.00    +0.000 A 
ATOM      8  C   UNL     1      -1.214  11.061  23.139  0.00  0.00    +0.000 A 
BRANCH   3   9
ATOM      9  C   UNL     1      -1.834  13.457  22.697  0.00  0.00    +0.000 C 
BRANCH   9  10
ATOM     10  C   UNL     1      -1.060  14.775  22.905  0.00  0.00    +0.000 C 
BRANCH  10  11
ATOM     11  C   UNL     1      -1.906  15.982  22.471  0.00  0.00    +0.000 C 
ATOM     12  O   UNL     1      -1.523  17.139  22.459  0.00  0.00    +0.000 OA
BRANCH  11  13
ATOM     13  O   UNL     1      -3.168  15.619  22.117  0.00  0.00    +0.000 OA
ATOM     14  H   UNL     1      -3.452  16.190  21.366  0.00  0.00    +0.000 HD
ENDBRANCH  11  13
ENDBRANCH  10  11
BRANCH  10  15
ATOM     15  O   UNL     1      -0.599  14.995  24.256  0.00  0.00    +0.000 OA
BRANCH  15  17
ATOM     16  C   UNL     1      -1.281  16.171  26.235  0.00  0.00    +0.000 C 
ATOM     17  C   UNL     1      -1.667  15.136  25.195  0.00  0.00    +0.000 C 
ENDBRANCH  15  17
ENDBRANCH  10  15
ENDBRANCH   9  10
ENDBRANCH   3   9
ENDBRANCH   2   6
ENDBRANCH   1   2
BRANCH   1  18
ATOM     18  C   UNL     1       1.628   6.748  20.801  0.00  0.00    +0.000 C 
BRANCH  18  19
ATOM     19  C   UNL     1       2.619   6.073  19.833  0.00  0.00    +0.000 C 
ATOM     20  S   UNL     1       2.763   6.883  18.242  0.00  0.00    +0.000 S 
ATOM     21  C   UNL     1       4.115   5.974  17.490  0.00  0.00    +0.000 A 
ATOM     22  C   UNL     1       4.639   6.644  16.360  0.00  0.00    +0.000 A 
ATOM     23  C   UNL     1       5.635   6.082  15.560  0.00  0.00    +0.000 A 
ATOM     24  C   UNL     1       6.096   4.808  15.849  0.00  0.00    +0.000 A 
ATOM     25  C   UNL     1       5.625   4.145  16.986  0.00  0.00    +0.000 A 
ATOM     26  C   UNL     1       4.671   4.731  17.847  0.00  0.00    +0.000 A 
ATOM     27  O   UNL     1       4.595   4.071  19.064  0.00  0.00    +0.000 OA
ATOM     28  C   UNL     1       3.405   3.759  19.668  0.00  0.00    +0.000 A 
ATOM     29  C   UNL     1       3.411   2.690  20.565  0.00  0.00    +0.000 A 
ATOM     30  C   UNL     1       2.272   2.391  21.324  0.00  0.00    +0.000 A 
ATOM     31  C   UNL     1       1.074   3.044  21.058  0.00  0.00    +0.000 A 
ATOM     32  C   UNL     1       1.069   4.104  20.164  0.00  0.00    +0.000 A 
ATOM     33  C   UNL     1       2.301   4.593  19.700  0.00  0.00    +0.000 A 
ENDBRANCH  18  19
ENDBRANCH   1  18
TORSDOF 10
ENDMDL
