MODEL 1
REMARK VINA RESULT:      -7.5      0.000      0.000
REMARK  Name = 
REMARK  1 active torsions:
REMARK  status: ('A' for Active; 'I' for Inactive)
REMARK    1  A    between atoms: C_2  and  C_3
REMARK                            x       y       z     vdW  Elec       q    Type
REMARK                         _______ _______ _______ _____ _____    ______ ____
ROOT
ATOM      1  C   UNL     1       6.872   6.034  17.161  0.00  0.00    +0.000 A 
ATOM      2  N   UNL     1       7.336   5.589  15.915  0.00  0.00    +0.000 N 
ATOM      3  C   UNL     1       6.659   4.658  15.151  0.00  0.00    +0.000 A 
ATOM      4  C   UNL     1       5.469   4.145  15.520  0.00  0.00    +0.000 A 
ATOM      5  C   UNL     1       4.941   4.610  16.789  0.00  0.00    +0.000 A 
ATOM      6  C   UNL     1       3.800   4.308  17.411  0.00  0.00    +0.000 A 
ATOM      7  C   UNL     1       2.665   3.479  17.159  0.00  0.00    +0.000 A 
ATOM      8  C   UNL     1       1.675   3.454  18.067  0.00  0.00    +0.000 A 
ATOM      9  C   UNL     1       1.734   4.252  19.283  0.00  0.00    +0.000 A 
ATOM     10  C   UNL     1       2.774   5.047  19.586  0.00  0.00    +0.000 A 
ATOM     11  C   UNL     1       3.910   5.124  18.644  0.00  0.00    +0.000 A 
ATOM     12  N   UNL     1       4.995   5.829  18.777  0.00  0.00    +0.000 NA
ATOM     13  C   UNL     1       5.693   5.558  17.623  0.00  0.00    +0.000 A 
ATOM     14  H   UNL     1       8.286   5.836  15.662  0.00  0.00    +0.000 HD
ENDROOT
BRANCH   1  16
ATOM     15  C   UNL     1       7.838   8.253  17.663  0.00  0.00    +0.000 C 
ATOM     16  C   UNL     1       7.683   6.951  17.936  0.00  0.00    +0.000 C 
ENDBRANCH   1  16
TORSDOF 1
ENDMDL
MODEL 2
REMARK VINA RESULT:      -7.3      1.666      4.617
REMARK  Name = 
REMARK  1 active torsions:
REMARK  status: ('A' for Active; 'I' for Inactive)
REMARK    1  A    between atoms: C_2  and  C_3
REMARK                            x       y       z     vdW  Elec       q    Type
REMARK                         _______ _______ _______ _____ _____    ______ ____
ROOT
ATOM      1  C   UNL     1       6.698   5.761  17.487  0.00  0.00    +0.000 A 
ATOM      2  N   UNL     1       5.660   5.282  18.300  0.00  0.00    +0.000 N 
ATOM      3  C   UNL     1       4.645   4.476  17.823  0.00  0.00    +0.000 A 
ATOM      4  C   UNL     1       4.603   4.040  16.548  0.00  0.00    +0.000 A 
ATOM      5  C   UNL     1       5.681   4.489  15.686  0.00  0.00    +0.000 A 
ATOM      6  C   UNL     1       5.927   4.223  14.402  0.00  0.00    +0.000 A 
ATOM      7  C   UNL     1       5.321   3.450  13.366  0.00  0.00    +0.000 A 
ATOM      8  C   UNL     1       5.905   3.432  12.155  0.00  0.00    +0.000 A 
ATOM      9  C   UNL     1       7.131   4.169  11.888  0.00  0.00    +0.000 A 
ATOM     10  C   UNL     1       7.749   4.921  12.814  0.00  0.00    +0.000 A 
ATOM     11  C   UNL     1       7.165   5.003  14.170  0.00  0.00    +0.000 A 
ATOM     12  N   UNL     1       7.620   5.684  15.181  0.00  0.00    +0.000 NA
ATOM     13  C   UNL     1       6.728   5.392  16.186  0.00  0.00    +0.000 A 
ATOM     14  H   UNL     1       5.571   5.692  19.223  0.00  0.00    +0.000 HD
ENDROOT
BRANCH   1  16
ATOM     15  C   UNL     1       7.789   7.966  17.731  0.00  0.00    +0.000 C 
ATOM     16  C   UNL     1       7.679   6.669  18.047  0.00  0.00    +0.000 C 
ENDBRANCH   1  16
TORSDOF 1
ENDMDL
MODEL 3
REMARK VINA RESULT:      -7.1      1.845      3.134
REMARK  Name = 
REMARK  1 active torsions:
REMARK  status: ('A' for Active; 'I' for Inactive)
REMARK    1  A    between atoms: C_2  and  C_3
REMARK                            x       y       z     vdW  Elec       q    Type
REMARK                         _______ _______ _______ _____ _____    ______ ____
ROOT
ATOM      1  C   UNL     1       5.116   4.658  16.270  0.00  0.00    +0.000 A 
ATOM      2  N   UNL     1       5.351   6.035  16.142  0.00  0.00    +0.000 N 
ATOM      3  C   UNL     1       4.657   6.984  16.868  0.00  0.00    +0.000 A 
ATOM      4  C   UNL     1       3.737   6.657  17.798  0.00  0.00    +0.000 A 
ATOM      5  C   UNL     1       3.495   5.238  17.981  0.00  0.00    +0.000 A 
ATOM      6  C   UNL     1       2.673   4.605  18.821  0.00  0.00    +0.000 A 
ATOM      7  C   UNL     1       1.741   4.971  19.837  0.00  0.00    +0.000 A 
ATOM      8  C   UNL     1       1.087   3.994  20.490  0.00  0.00    +0.000 A 
ATOM      9  C   UNL     1       1.317   2.589  20.189  0.00  0.00    +0.000 A 
ATOM     10  C   UNL     1       2.174   2.175  19.241  0.00  0.00    +0.000 A 
ATOM     11  C   UNL     1       2.925   3.187  18.469  0.00  0.00    +0.000 A 
ATOM     12  N   UNL     1       3.784   2.971  17.516  0.00  0.00    +0.000 NA
ATOM     13  C   UNL     1       4.196   4.236  17.167  0.00  0.00    +0.000 A 
ATOM     14  H   UNL     1       5.925   6.335  15.363  0.00  0.00    +0.000 HD
ENDROOT
BRANCH   1  16
ATOM     15  C   UNL     1       6.154   3.969  14.134  0.00  0.00    +0.000 C 
ATOM     16  C   UNL     1       5.830   3.733  15.413  0.00  0.00    +0.000 C 
ENDBRANCH   1  16
TORSDOF 1
ENDMDL
MODEL 4
REMARK VINA RESULT:      -7.0      1.026      1.261
REMARK  Name = 
REMARK  1 active torsions:
REMARK  status: ('A' for Active; 'I' for Inactive)
REMARK    1  A    between atoms: C_2  and  C_3
REMARK                            x       y       z     vdW  Elec       q    Type
REMARK                         _______ _______ _______ _____ _____    ______ ____
ROOT
ATOM      1  C   UNL     1       6.425   5.234  17.977  0.00  0.00    +0.000 A 
ATOM      2  N   UNL     1       6.714   4.778  16.683  0.00  0.00    +0.000 N 
ATOM      3  C   UNL     1       5.836   4.006  15.947  0.00  0.00    +0.000 A 
ATOM      4  C   UNL     1       4.608   3.677  16.395  0.00  0.00    +0.000 A 
ATOM      5  C   UNL     1       4.262   4.162  17.719  0.00  0.00    +0.000 A 
ATOM      6  C   UNL     1       3.137   4.021  18.421  0.00  0.00    +0.000 A 
ATOM      7  C   UNL     1       1.865   3.400  18.236  0.00  0.00    +0.000 A 
ATOM      8  C   UNL     1       0.956   3.494  19.222  0.00  0.00    +0.000 A 
ATOM      9  C   UNL     1       1.238   4.215  20.455  0.00  0.00    +0.000 A 
ATOM     10  C   UNL     1       2.416   4.816  20.698  0.00  0.00    +0.000 A 
ATOM     11  C   UNL     1       3.474   4.750  19.667  0.00  0.00    +0.000 A 
ATOM     12  N   UNL     1       4.668   5.263  19.734  0.00  0.00    +0.000 NA
ATOM     13  C   UNL     1       5.222   4.935  18.518  0.00  0.00    +0.000 A 
ATOM     14  H   UNL     1       7.669   4.879  16.361  0.00  0.00    +0.000 HD
ENDROOT
BRANCH   1  16
ATOM     15  C   UNL     1       7.975   7.130  18.318  0.00  0.00    +0.000 C 
ATOM     16  C   UNL     1       7.433   5.970  18.714  0.00  0.00    +0.000 C 
ENDBRANCH   1  16
TORSDOF 1
ENDMDL
MODEL 5
REMARK VINA RESULT:      -6.9      1.531      3.010
REMARK  Name = 
REMARK  1 active torsions:
REMARK  status: ('A' for Active; 'I' for Inactive)
REMARK    1  A    between atoms: C_2  and  C_3
REMARK                            x       y       z     vdW  Elec       q    Type
REMARK                         _______ _______ _______ _____ _____    ______ ____
ROOT
ATOM      1  C   UNL     1       6.016   4.210  16.624  0.00  0.00    +0.000 A 
ATOM      2  N   UNL     1       7.122   4.824  17.228  0.00  0.00    +0.000 N 
ATOM      3  C   UNL     1       7.071   5.384  18.490  0.00  0.00    +0.000 A 
ATOM      4  C   UNL     1       5.968   5.334  19.262  0.00  0.00    +0.000 A 
ATOM      5  C   UNL     1       4.813   4.675  18.680  0.00  0.00    +0.000 A 
ATOM      6  C   UNL     1       3.600   4.453  19.189  0.00  0.00    +0.000 A 
ATOM      7  C   UNL     1       2.922   4.719  20.416  0.00  0.00    +0.000 A 
ATOM      8  C   UNL     1       1.649   4.309  20.548  0.00  0.00    +0.000 A 
ATOM      9  C   UNL     1       0.961   3.600  19.478  0.00  0.00    +0.000 A 
ATOM     10  C   UNL     1       1.537   3.323  18.296  0.00  0.00    +0.000 A 
ATOM     11  C   UNL     1       2.934   3.749  18.067  0.00  0.00    +0.000 A 
ATOM     12  N   UNL     1       3.642   3.575  16.990  0.00  0.00    +0.000 NA
ATOM     13  C   UNL     1       4.857   4.131  17.316  0.00  0.00    +0.000 A 
ATOM     14  H   UNL     1       7.926   5.009  16.639  0.00  0.00    +0.000 HD
ENDROOT
BRANCH   1  16
ATOM     15  C   UNL     1       5.619   4.329  14.186  0.00  0.00    +0.000 C 
ATOM     16  C   UNL     1       6.129   3.720  15.264  0.00  0.00    +0.000 C 
ENDBRANCH   1  16
TORSDOF 1
ENDMDL
MODEL 6
REMARK VINA RESULT:      -6.8      2.274      5.245
REMARK  Name = 
REMARK  1 active torsions:
REMARK  status: ('A' for Active; 'I' for Inactive)
REMARK    1  A    between atoms: C_2  and  C_3
REMARK                            x       y       z     vdW  Elec       q    Type
REMARK                         _______ _______ _______ _____ _____    ______ ____
ROOT
ATOM      1  C   UNL     1       2.419   5.068  20.346  0.00  0.00    +0.000 A 
ATOM      2  N   UNL     1       1.826   6.295  20.678  0.00  0.00    +0.000 N 
ATOM      3  C   UNL     1       2.037   7.449  19.949  0.00  0.00    +0.000 A 
ATOM      4  C   UNL     1       2.786   7.475  18.829  0.00  0.00    +0.000 A 
ATOM      5  C   UNL     1       3.387   6.213  18.437  0.00  0.00    +0.000 A 
ATOM      6  C   UNL     1       4.154   5.913  17.388  0.00  0.00    +0.000 A 
ATOM      7  C   UNL     1       4.694   6.604  16.262  0.00  0.00    +0.000 A 
ATOM      8  C   UNL     1       5.445   5.915  15.386  0.00  0.00    +0.000 A 
ATOM      9  C   UNL     1       5.709   4.494  15.558  0.00  0.00    +0.000 A 
ATOM     10  C   UNL     1       5.238   3.784  16.597  0.00  0.00    +0.000 A 
ATOM     11  C   UNL     1       4.411   4.470  17.612  0.00  0.00    +0.000 A 
ATOM     12  N   UNL     1       3.882   3.947  18.680  0.00  0.00    +0.000 NA
ATOM     13  C   UNL     1       3.204   5.001  19.247  0.00  0.00    +0.000 A 
ATOM     14  H   UNL     1       1.374   6.359  21.582  0.00  0.00    +0.000 HD
ENDROOT
BRANCH   1  16
ATOM     15  C   UNL     1       1.248   3.007  21.049  0.00  0.00    +0.000 C 
ATOM     16  C   UNL     1       2.213   3.922  21.210  0.00  0.00    +0.000 C 
ENDBRANCH   1  16
TORSDOF 1
ENDMDL
MODEL 7
REMARK VINA RESULT:      -6.6      1.156      2.897
REMARK  Name = 
REMARK  1 active torsions:
REMARK  status: ('A' for Active; 'I' for Inactive)
REMARK    1  A    between atoms: C_2  and  C_3
REMARK                            x       y       z     vdW  Elec       q    Type
REMARK                         _______ _______ _______ _____ _____    ______ ____
ROOT
ATOM      1  C   UNL     1       6.170   4.651  15.680  0.00  0.00    +0.000 A 
ATOM      2  N   UNL     1       7.212   5.551  15.945  0.00  0.00    +0.000 N 
ATOM      3  C   UNL     1       7.183   6.442  17.000  0.00  0.00    +0.000 A 
ATOM      4  C   UNL     1       6.174   6.477  17.893  0.00  0.00    +0.000 A 
ATOM      5  C   UNL     1       5.094   5.533  17.669  0.00  0.00    +0.000 A 
ATOM      6  C   UNL     1       3.982   5.314  18.373  0.00  0.00    +0.000 A 
ATOM      7  C   UNL     1       3.380   5.835  19.557  0.00  0.00    +0.000 A 
ATOM      8  C   UNL     1       2.206   5.319  19.961  0.00  0.00    +0.000 A 
ATOM      9  C   UNL     1       1.550   4.248  19.225  0.00  0.00    +0.000 A 
ATOM     10  C   UNL     1       2.057   3.716  18.100  0.00  0.00    +0.000 A 
ATOM     11  C   UNL     1       3.341   4.235  17.583  0.00  0.00    +0.000 A 
ATOM     12  N   UNL     1       3.971   3.848  16.513  0.00  0.00    +0.000 NA
ATOM     13  C   UNL     1       5.105   4.627  16.513  0.00  0.00    +0.000 A 
ATOM     14  H   UNL     1       7.920   5.660  15.228  0.00  0.00    +0.000 HD
ENDROOT
BRANCH   1  16
ATOM     15  C   UNL     1       6.580   4.228  13.279  0.00  0.00    +0.000 C 
ATOM     16  C   UNL     1       6.241   3.806  14.505  0.00  0.00    +0.000 C 
ENDBRANCH   1  16
TORSDOF 1
ENDMDL
MODEL 8
REMARK VINA RESULT:      -6.6      2.037      5.132
REMARK  Name = 
REMARK  1 active torsions:
REMARK  status: ('A' for Active; 'I' for Inactive)
REMARK    1  A    between atoms: C_2  and  C_3
REMARK                            x       y       z     vdW  Elec       q    Type
REMARK                         _______ _______ _______ _____ _____    ______ ____
ROOT
ATOM      1  C   UNL     1       3.076   3.589  19.657  0.00  0.00    +0.000 A 
ATOM      2  N   UNL     1       1.902   3.756  18.909  0.00  0.00    +0.000 N 
ATOM      3  C   UNL     1       1.786   4.686  17.894  0.00  0.00    +0.000 A 
ATOM      4  C   UNL     1       2.813   5.467  17.504  0.00  0.00    +0.000 A 
ATOM      5  C   UNL     1       4.055   5.295  18.235  0.00  0.00    +0.000 A 
ATOM      6  C   UNL     1       5.236   5.897  18.081  0.00  0.00    +0.000 A 
ATOM      7  C   UNL     1       5.794   6.887  17.218  0.00  0.00    +0.000 A 
ATOM      8  C   UNL     1       7.083   7.231  17.385  0.00  0.00    +0.000 A 
ATOM      9  C   UNL     1       7.910   6.614  18.412  0.00  0.00    +0.000 A 
ATOM     10  C   UNL     1       7.448   5.682  19.261  0.00  0.00    +0.000 A 
ATOM     11  C   UNL     1       6.037   5.255  19.150  0.00  0.00    +0.000 A 
ATOM     12  N   UNL     1       5.421   4.377  19.888  0.00  0.00    +0.000 NA
ATOM     13  C   UNL     1       4.155   4.344  19.351  0.00  0.00    +0.000 A 
ATOM     14  H   UNL     1       1.067   3.296  19.253  0.00  0.00    +0.000 HD
ENDROOT
BRANCH   1  16
ATOM     15  C   UNL     1       2.260   2.691  21.811  0.00  0.00    +0.000 C 
ATOM     16  C   UNL     1       3.089   2.648  20.760  0.00  0.00    +0.000 C 
ENDBRANCH   1  16
TORSDOF 1
ENDMDL
MODEL 9
REMARK VINA RESULT:      -6.5      2.028      2.727
REMARK  Name = 
REMARK  1 active torsions:
REMARK  status: ('A' for Active; 'I' for Inactive)
REMARK    1  A    between atoms: C_2  and  C_3
REMARK                            x       y       z     vdW  Elec       q    Type
REMARK                         _______ _______ _______ _____ _____    ______ ____
ROOT
ATOM      1  C   UNL     1       5.798   5.610  18.183  0.00  0.00    +0.000 A 
ATOM      2  N   UNL     1       5.411   6.736  17.441  0.00  0.00    +0.000 N 
ATOM      3  C   UNL     1       4.093   7.126  17.303  0.00  0.00    +0.000 A 
ATOM      4  C   UNL     1       3.079   6.487  17.919  0.00  0.00    +0.000 A 
ATOM      5  C   UNL     1       3.447   5.337  18.725  0.00  0.00    +0.000 A 
ATOM      6  C   UNL     1       2.689   4.520  19.458  0.00  0.00    +0.000 A 
ATOM      7  C   UNL     1       1.304   4.393  19.779  0.00  0.00    +0.000 A 
ATOM      8  C   UNL     1       0.924   3.397  20.597  0.00  0.00    +0.000 A 
ATOM      9  C   UNL     1       1.886   2.462  21.160  0.00  0.00    +0.000 A 
ATOM     10  C   UNL     1       3.203   2.519  20.895  0.00  0.00    +0.000 A 
ATOM     11  C   UNL     1       3.702   3.580  19.996  0.00  0.00    +0.000 A 
ATOM     12  N   UNL     1       4.933   3.780  19.624  0.00  0.00    +0.000 NA
ATOM     13  C   UNL     1       4.845   4.894  18.821  0.00  0.00    +0.000 A 
ATOM     14  H   UNL     1       6.115   7.162  16.850  0.00  0.00    +0.000 HD
ENDROOT
BRANCH   1  16
ATOM     15  C   UNL     1       8.091   5.653  19.106  0.00  0.00    +0.000 C 
ATOM     16  C   UNL     1       7.194   5.221  18.210  0.00  0.00    +0.000 C 
ENDBRANCH   1  16
TORSDOF 1
ENDMDL
