MODEL 1
REMARK VINA RESULT:      -7.3      0.000      0.000
REMARK  Name = 
REMARK  6 active torsions:
REMARK  status: ('A' for Active; 'I' for Inactive)
REMARK    1  A    between atoms: C_1  and  C_2
REMARK    2  A    between atoms: C_2  and  C_3
REMARK    3  A    between atoms: C_3  and  C_4
REMARK    4  A    between atoms: C_3  and  N_5
REMARK    5  A    between atoms: C_8  and  C_9
REMARK    6  A    between atoms: C_17  and  C_18
REMARK                            x       y       z     vdW  Elec       q    Type
REMARK                         _______ _______ _______ _____ _____    ______ ____
ROOT
ATOM      1  N   UNL     1       4.755   5.904  17.685  0.00  0.00    +0.000 N 
ATOM      2  C   UNL     1       4.972   4.588  18.120  0.00  0.00    +0.000 A 
ATOM      3  N   UNL     1       5.720   3.686  17.562  0.00  0.00    +0.000 NA
ATOM      4  C   UNL     1       4.283   4.113  19.349  0.00  0.00    +0.000 A 
ATOM      5  C   UNL     1       3.370   4.891  19.925  0.00  0.00    +0.000 A 
ATOM      6  C   UNL     1       3.061   6.188  19.373  0.00  0.00    +0.000 A 
ATOM      7  C   UNL     1       1.968   6.963  20.014  0.00  0.00    +0.000 A 
ATOM      8  O   UNL     1       1.355   6.480  20.972  0.00  0.00    +0.000 OA
ATOM      9  N   UNL     1       1.708   8.196  19.467  0.00  0.00    +0.000 N 
ATOM     10  C   UNL     1       0.690   8.966  20.013  0.00  0.00    +0.000 A 
ATOM     11  C   UNL     1       0.385  10.183  19.543  0.00  0.00    +0.000 A 
ATOM     12  C   UNL     1      -0.712  11.016  20.128  0.00  0.00    +0.000 C 
ATOM     13  C   UNL     1       1.146  10.709  18.431  0.00  0.00    +0.000 A 
ATOM     14  C   UNL     1       2.133   9.993  17.872  0.00  0.00    +0.000 A 
ATOM     15  C   UNL     1       2.462   8.636  18.395  0.00  0.00    +0.000 A 
ATOM     16  N   UNL     1       3.415   7.959  17.834  0.00  0.00    +0.000 NA
ATOM     17  C   UNL     1       3.727   6.702  18.308  0.00  0.00    +0.000 A 
ATOM     18  H   UNL     1       6.168   3.996  16.709  0.00  0.00    +0.000 HD
ENDROOT
BRANCH   1  19
ATOM     19  C   UNL     1       5.540   6.482  16.564  0.00  0.00    +0.000 C 
ATOM     20  C   UNL     1       5.232   5.734  15.260  0.00  0.00    +0.000 C 
BRANCH  19  22
ATOM     21  C   UNL     1       7.466   7.872  17.528  0.00  0.00    +0.000 C 
ATOM     22  C   UNL     1       7.055   6.565  16.863  0.00  0.00    +0.000 C 
ENDBRANCH  19  22
ENDBRANCH   1  19
BRANCH   4  23
ATOM     23  C   UNL     1       4.620   2.732  19.885  0.00  0.00    +0.000 C 
ATOM     24  N   UNL     1       4.901   1.585  20.329  0.00  0.00    +0.000 NA
ENDBRANCH   4  23
TORSDOF 3
ENDMDL
MODEL 2
REMARK VINA RESULT:      -7.2      2.005      3.994
REMARK  Name = 
REMARK  6 active torsions:
REMARK  status: ('A' for Active; 'I' for Inactive)
REMARK    1  A    between atoms: C_1  and  C_2
REMARK    2  A    between atoms: C_2  and  C_3
REMARK    3  A    between atoms: C_3  and  C_4
REMARK    4  A    between atoms: C_3  and  N_5
REMARK    5  A    between atoms: C_8  and  C_9
REMARK    6  A    between atoms: C_17  and  C_18
REMARK                            x       y       z     vdW  Elec       q    Type
REMARK                         _______ _______ _______ _____ _____    ______ ____
ROOT
ATOM      1  N   UNL     1       3.017   4.563  19.562  0.00  0.00    +0.000 N 
ATOM      2  C   UNL     1       3.914   4.103  18.585  0.00  0.00    +0.000 A 
ATOM      3  N   UNL     1       4.580   2.989  18.588  0.00  0.00    +0.000 NA
ATOM      4  C   UNL     1       4.179   4.954  17.395  0.00  0.00    +0.000 A 
ATOM      5  C   UNL     1       3.678   6.185  17.350  0.00  0.00    +0.000 A 
ATOM      6  C   UNL     1       2.873   6.687  18.437  0.00  0.00    +0.000 A 
ATOM      7  C   UNL     1       2.423   8.101  18.361  0.00  0.00    +0.000 A 
ATOM      8  O   UNL     1       2.755   8.798  17.397  0.00  0.00    +0.000 OA
ATOM      9  N   UNL     1       1.652   8.541  19.409  0.00  0.00    +0.000 N 
ATOM     10  C   UNL     1       1.209   9.856  19.404  0.00  0.00    +0.000 A 
ATOM     11  C   UNL     1       0.443  10.355  20.385  0.00  0.00    +0.000 A 
ATOM     12  C   UNL     1      -0.037  11.773  20.383  0.00  0.00    +0.000 C 
ATOM     13  C   UNL     1       0.068   9.491  21.481  0.00  0.00    +0.000 A 
ATOM     14  C   UNL     1       0.481   8.216  21.526  0.00  0.00    +0.000 A 
ATOM     15  C   UNL     1       1.339   7.669  20.435  0.00  0.00    +0.000 A 
ATOM     16  N   UNL     1       1.733   6.435  20.503  0.00  0.00    +0.000 NA
ATOM     17  C   UNL     1       2.528   5.918  19.502  0.00  0.00    +0.000 A 
ATOM     18  H   UNL     1       4.425   2.421  19.410  0.00  0.00    +0.000 HD
ENDROOT
BRANCH   1  19
ATOM     19  C   UNL     1       2.591   3.688  20.685  0.00  0.00    +0.000 C 
ATOM     20  C   UNL     1       3.615   2.567  20.903  0.00  0.00    +0.000 C 
BRANCH  19  22
ATOM     21  C   UNL     1       0.866   2.584  19.143  0.00  0.00    +0.000 C 
ATOM     22  C   UNL     1       1.147   3.158  20.526  0.00  0.00    +0.000 C 
ENDBRANCH  19  22
ENDBRANCH   1  19
BRANCH   4  23
ATOM     23  C   UNL     1       5.050   4.396  16.281  0.00  0.00    +0.000 C 
ATOM     24  N   UNL     1       5.773   3.934  15.357  0.00  0.00    +0.000 NA
ENDBRANCH   4  23
TORSDOF 3
ENDMDL
MODEL 3
REMARK VINA RESULT:      -6.8      1.814      3.965
REMARK  Name = 
REMARK  6 active torsions:
REMARK  status: ('A' for Active; 'I' for Inactive)
REMARK    1  A    between atoms: C_1  and  C_2
REMARK    2  A    between atoms: C_2  and  C_3
REMARK    3  A    between atoms: C_3  and  C_4
REMARK    4  A    between atoms: C_3  and  N_5
REMARK    5  A    between atoms: C_8  and  C_9
REMARK    6  A    between atoms: C_17  and  C_18
REMARK                            x       y       z     vdW  Elec       q    Type
REMARK                         _______ _______ _______ _____ _____    ______ ____
ROOT
ATOM      1  N   UNL     1       3.564   5.186  19.148  0.00  0.00    +0.000 N 
ATOM      2  C   UNL     1       4.483   4.980  18.108  0.00  0.00    +0.000 A 
ATOM      3  N   UNL     1       5.340   4.012  17.993  0.00  0.00    +0.000 NA
ATOM      4  C   UNL     1       4.534   5.957  16.989  0.00  0.00    +0.000 A 
ATOM      5  C   UNL     1       3.816   7.074  17.067  0.00  0.00    +0.000 A 
ATOM      6  C   UNL     1       2.985   7.330  18.218  0.00  0.00    +0.000 A 
ATOM      7  C   UNL     1       2.282   8.638  18.280  0.00  0.00    +0.000 A 
ATOM      8  O   UNL     1       2.438   9.460  17.371  0.00  0.00    +0.000 OA
ATOM      9  N   UNL     1       1.493   8.842  19.385  0.00  0.00    +0.000 N 
ATOM     10  C   UNL     1       0.819  10.049  19.508  0.00  0.00    +0.000 A 
ATOM     11  C   UNL     1       0.021  10.317  20.551  0.00  0.00    +0.000 A 
ATOM     12  C   UNL     1      -0.708  11.618  20.688  0.00  0.00    +0.000 C 
ATOM     13  C   UNL     1      -0.140   9.313  21.579  0.00  0.00    +0.000 A 
ATOM     14  C   UNL     1       0.499   8.137  21.499  0.00  0.00    +0.000 A 
ATOM     15  C   UNL     1       1.391   7.848  20.340  0.00  0.00    +0.000 A 
ATOM     16  N   UNL     1       2.005   6.707  20.287  0.00  0.00    +0.000 NA
ATOM     17  C   UNL     1       2.835   6.428  19.221  0.00  0.00    +0.000 A 
ATOM     18  H   UNL     1       5.329   3.360  18.767  0.00  0.00    +0.000 HD
ENDROOT
BRANCH   1  19
ATOM     19  C   UNL     1       3.355   4.160  20.203  0.00  0.00    +0.000 C 
ATOM     20  C   UNL     1       4.158   2.894  19.878  0.00  0.00    +0.000 C 
BRANCH  19  22
ATOM     21  C   UNL     1       1.645   2.793  21.536  0.00  0.00    +0.000 C 
ATOM     22  C   UNL     1       1.862   3.868  20.478  0.00  0.00    +0.000 C 
ENDBRANCH  19  22
ENDBRANCH   1  19
BRANCH   4  23
ATOM     23  C   UNL     1       5.440   5.661  15.805  0.00  0.00    +0.000 C 
ATOM     24  N   UNL     1       6.191   5.415  14.822  0.00  0.00    +0.000 NA
ENDBRANCH   4  23
TORSDOF 3
ENDMDL
MODEL 4
REMARK VINA RESULT:      -6.8      3.691      5.103
REMARK  Name = 
REMARK  6 active torsions:
REMARK  status: ('A' for Active; 'I' for Inactive)
REMARK    1  A    between atoms: C_1  and  C_2
REMARK    2  A    between atoms: C_2  and  C_3
REMARK    3  A    between atoms: C_3  and  C_4
REMARK    4  A    between atoms: C_3  and  N_5
REMARK    5  A    between atoms: C_8  and  C_9
REMARK    6  A    between atoms: C_17  and  C_18
REMARK                            x       y       z     vdW  Elec       q    Type
REMARK                         _______ _______ _______ _____ _____    ______ ____
ROOT
ATOM      1  N   UNL     1       6.661   5.378  16.520  0.00  0.00    +0.000 N 
ATOM      2  C   UNL     1       6.952   5.103  15.175  0.00  0.00    +0.000 A 
ATOM      3  N   UNL     1       7.884   5.636  14.446  0.00  0.00    +0.000 NA
ATOM      4  C   UNL     1       6.124   4.105  14.449  0.00  0.00    +0.000 A 
ATOM      5  C   UNL     1       5.042   3.603  15.039  0.00  0.00    +0.000 A 
ATOM      6  C   UNL     1       4.683   4.011  16.376  0.00  0.00    +0.000 A 
ATOM      7  C   UNL     1       3.414   3.481  16.937  0.00  0.00    +0.000 A 
ATOM      8  O   UNL     1       2.708   2.732  16.253  0.00  0.00    +0.000 OA
ATOM      9  N   UNL     1       3.109   3.883  18.214  0.00  0.00    +0.000 N 
ATOM     10  C   UNL     1       1.931   3.432  18.792  0.00  0.00    +0.000 A 
ATOM     11  C   UNL     1       1.571   3.771  20.037  0.00  0.00    +0.000 A 
ATOM     12  C   UNL     1       0.301   3.286  20.665  0.00  0.00    +0.000 C 
ATOM     13  C   UNL     1       2.443   4.635  20.801  0.00  0.00    +0.000 A 
ATOM     14  C   UNL     1       3.587   5.098  20.277  0.00  0.00    +0.000 A 
ATOM     15  C   UNL     1       3.978   4.722  18.887  0.00  0.00    +0.000 A 
ATOM     16  N   UNL     1       5.085   5.187  18.397  0.00  0.00    +0.000 NA
ATOM     17  C   UNL     1       5.456   4.849  17.112  0.00  0.00    +0.000 A 
ATOM     18  H   UNL     1       8.431   6.337  14.928  0.00  0.00    +0.000 HD
ENDROOT
BRANCH   1  19
ATOM     19  C   UNL     1       7.552   6.239  17.339  0.00  0.00    +0.000 C 
ATOM     20  C   UNL     1       7.823   5.581  18.699  0.00  0.00    +0.000 C 
BRANCH  19  22
ATOM     21  C   UNL     1       8.126   8.677  17.884  0.00  0.00    +0.000 C 
ATOM     22  C   UNL     1       7.040   7.692  17.469  0.00  0.00    +0.000 C 
ENDBRANCH  19  22
ENDBRANCH   1  19
BRANCH   4  23
ATOM     23  C   UNL     1       6.523   3.718  13.034  0.00  0.00    +0.000 C 
ATOM     24  N   UNL     1       6.854   3.399  11.860  0.00  0.00    +0.000 NA
ENDBRANCH   4  23
TORSDOF 3
ENDMDL
MODEL 5
REMARK VINA RESULT:      -6.6      1.955      4.175
REMARK  Name = 
REMARK  6 active torsions:
REMARK  status: ('A' for Active; 'I' for Inactive)
REMARK    1  A    between atoms: C_1  and  C_2
REMARK    2  A    between atoms: C_2  and  C_3
REMARK    3  A    between atoms: C_3  and  C_4
REMARK    4  A    between atoms: C_3  and  N_5
REMARK    5  A    between atoms: C_8  and  C_9
REMARK    6  A    between atoms: C_17  and  C_18
REMARK                            x       y       z     vdW  Elec       q    Type
REMARK                         _______ _______ _______ _____ _____    ______ ____
ROOT
ATOM      1  N   UNL     1       2.827   5.506  19.508  0.00  0.00    +0.000 N 
ATOM      2  C   UNL     1       3.753   5.311  18.473  0.00  0.00    +0.000 A 
ATOM      3  N   UNL     1       4.521   4.281  18.286  0.00  0.00    +0.000 NA
ATOM      4  C   UNL     1       3.924   6.376  17.450  0.00  0.00    +0.000 A 
ATOM      5  C   UNL     1       3.309   7.543  17.616  0.00  0.00    +0.000 A 
ATOM      6  C   UNL     1       2.471   7.770  18.768  0.00  0.00    +0.000 A 
ATOM      7  C   UNL     1       1.888   9.126  18.936  0.00  0.00    +0.000 A 
ATOM      8  O   UNL     1       2.144  10.009  18.110  0.00  0.00    +0.000 OA
ATOM      9  N   UNL     1       1.089   9.303  20.039  0.00  0.00    +0.000 N 
ATOM     10  C   UNL     1       0.523  10.551  20.259  0.00  0.00    +0.000 A 
ATOM     11  C   UNL     1      -0.276  10.797  21.306  0.00  0.00    +0.000 A 
ATOM     12  C   UNL     1      -0.888  12.142  21.547  0.00  0.00    +0.000 C 
ATOM     13  C   UNL     1      -0.557   9.725  22.233  0.00  0.00    +0.000 A 
ATOM     14  C   UNL     1      -0.025   8.506  22.059  0.00  0.00    +0.000 A 
ATOM     15  C   UNL     1       0.870   8.240  20.896  0.00  0.00    +0.000 A 
ATOM     16  N   UNL     1       1.380   7.057  20.751  0.00  0.00    +0.000 NA
ATOM     17  C   UNL     1       2.211   6.799  19.681  0.00  0.00    +0.000 A 
ATOM     18  H   UNL     1       4.429   3.567  18.997  0.00  0.00    +0.000 HD
ENDROOT
BRANCH   1  19
ATOM     19  C   UNL     1       2.495   4.414  20.459  0.00  0.00    +0.000 C 
ATOM     20  C   UNL     1       3.599   3.349  20.449  0.00  0.00    +0.000 C 
BRANCH  19  22
ATOM     21  C   UNL     1       1.027   2.843  19.064  0.00  0.00    +0.000 C 
ATOM     22  C   UNL     1       1.086   3.818  20.233  0.00  0.00    +0.000 C 
ENDBRANCH  19  22
ENDBRANCH   1  19
BRANCH   4  23
ATOM     23  C   UNL     1       4.834   6.105  16.262  0.00  0.00    +0.000 C 
ATOM     24  N   UNL     1       5.589   5.880  15.277  0.00  0.00    +0.000 NA
ENDBRANCH   4  23
TORSDOF 3
ENDMDL
MODEL 6
REMARK VINA RESULT:      -6.4      1.566      1.923
REMARK  Name = 
REMARK  6 active torsions:
REMARK  status: ('A' for Active; 'I' for Inactive)
REMARK    1  A    between atoms: C_1  and  C_2
REMARK    2  A    between atoms: C_2  and  C_3
REMARK    3  A    between atoms: C_3  and  C_4
REMARK    4  A    between atoms: C_3  and  N_5
REMARK    5  A    between atoms: C_8  and  C_9
REMARK    6  A    between atoms: C_17  and  C_18
REMARK                            x       y       z     vdW  Elec       q    Type
REMARK                         _______ _______ _______ _____ _____    ______ ____
ROOT
ATOM      1  N   UNL     1       3.306   5.613  18.722  0.00  0.00    +0.000 N 
ATOM      2  C   UNL     1       3.044   4.433  19.436  0.00  0.00    +0.000 A 
ATOM      3  N   UNL     1       3.431   3.231  19.141  0.00  0.00    +0.000 NA
ATOM      4  C   UNL     1       2.224   4.509  20.674  0.00  0.00    +0.000 A 
ATOM      5  C   UNL     1       1.639   5.659  20.998  0.00  0.00    +0.000 A 
ATOM      6  C   UNL     1       1.809   6.826  20.167  0.00  0.00    +0.000 A 
ATOM      7  C   UNL     1       1.054   8.049  20.539  0.00  0.00    +0.000 A 
ATOM      8  O   UNL     1       0.304   8.031  21.521  0.00  0.00    +0.000 OA
ATOM      9  N   UNL     1       1.247   9.143  19.731  0.00  0.00    +0.000 N 
ATOM     10  C   UNL     1       0.561  10.314  20.018  0.00  0.00    +0.000 A 
ATOM     11  C   UNL     1       0.706  11.425  19.283  0.00  0.00    +0.000 A 
ATOM     12  C   UNL     1      -0.032  12.691  19.590  0.00  0.00    +0.000 C 
ATOM     13  C   UNL     1       1.610  11.398  18.155  0.00  0.00    +0.000 A 
ATOM     14  C   UNL     1       2.286  10.284  17.840  0.00  0.00    +0.000 A 
ATOM     15  C   UNL     1       2.114   9.048  18.658  0.00  0.00    +0.000 A 
ATOM     16  N   UNL     1       2.772   7.980  18.331  0.00  0.00    +0.000 NA
ATOM     17  C   UNL     1       2.620   6.830  19.078  0.00  0.00    +0.000 A 
ATOM     18  H   UNL     1       3.965   3.171  18.283  0.00  0.00    +0.000 HD
ENDROOT
BRANCH   1  19
ATOM     19  C   UNL     1       4.251   5.623  17.576  0.00  0.00    +0.000 C 
ATOM     20  C   UNL     1       4.032   4.385  16.696  0.00  0.00    +0.000 C 
BRANCH  19  22
ATOM     21  C   UNL     1       6.440   6.921  17.266  0.00  0.00    +0.000 C 
ATOM     22  C   UNL     1       5.726   5.797  18.007  0.00  0.00    +0.000 C 
ENDBRANCH  19  22
ENDBRANCH   1  19
BRANCH   4  23
ATOM     23  C   UNL     1       2.051   3.252  21.510  0.00  0.00    +0.000 C 
ATOM     24  N   UNL     1       1.908   2.209  22.205  0.00  0.00    +0.000 NA
ENDBRANCH   4  23
TORSDOF 3
ENDMDL
MODEL 7
REMARK VINA RESULT:      -6.3      1.969      4.038
REMARK  Name = 
REMARK  6 active torsions:
REMARK  status: ('A' for Active; 'I' for Inactive)
REMARK    1  A    between atoms: C_1  and  C_2
REMARK    2  A    between atoms: C_2  and  C_3
REMARK    3  A    between atoms: C_3  and  C_4
REMARK    4  A    between atoms: C_3  and  N_5
REMARK    5  A    between atoms: C_8  and  C_9
REMARK    6  A    between atoms: C_17  and  C_18
REMARK                            x       y       z     vdW  Elec       q    Type
REMARK                         _______ _______ _______ _____ _____    ______ ____
ROOT
ATOM      1  N   UNL     1       4.137   4.056  17.820  0.00  0.00    +0.000 N 
ATOM      2  C   UNL     1       5.078   4.066  16.779  0.00  0.00    +0.000 A 
ATOM      3  N   UNL     1       5.855   3.094  16.410  0.00  0.00    +0.000 NA
ATOM      4  C   UNL     1       5.258   5.308  15.983  0.00  0.00    +0.000 A 
ATOM      5  C   UNL     1       4.633   6.420  16.361  0.00  0.00    +0.000 A 
ATOM      6  C   UNL     1       3.779   6.419  17.524  0.00  0.00    +0.000 A 
ATOM      7  C   UNL     1       3.186   7.716  17.941  0.00  0.00    +0.000 A 
ATOM      8  O   UNL     1       3.448   8.742  17.304  0.00  0.00    +0.000 OA
ATOM      9  N   UNL     1       2.371   7.675  19.045  0.00  0.00    +0.000 N 
ATOM     10  C   UNL     1       1.796   8.855  19.493  0.00  0.00    +0.000 A 
ATOM     11  C   UNL     1       0.980   8.894  20.556  0.00  0.00    +0.000 A 
ATOM     12  C   UNL     1       0.358  10.165  21.043  0.00  0.00    +0.000 C 
ATOM     13  C   UNL     1       0.692   7.662  21.255  0.00  0.00    +0.000 A 
ATOM     14  C   UNL     1       1.234   6.501  20.858  0.00  0.00    +0.000 A 
ATOM     15  C   UNL     1       2.146   6.467  19.679  0.00  0.00    +0.000 A 
ATOM     16  N   UNL     1       2.665   5.334  19.316  0.00  0.00    +0.000 NA
ATOM     17  C   UNL     1       3.512   5.290  18.229  0.00  0.00    +0.000 A 
ATOM     18  H   UNL     1       5.757   2.256  16.968  0.00  0.00    +0.000 HD
ENDROOT
BRANCH   1  19
ATOM     19  C   UNL     1       3.799   2.800  18.538  0.00  0.00    +0.000 C 
ATOM     20  C   UNL     1       2.347   2.398  18.249  0.00  0.00    +0.000 C 
BRANCH  19  22
ATOM     21  C   UNL     1       2.923   2.490  20.928  0.00  0.00    +0.000 C 
ATOM     22  C   UNL     1       4.112   2.863  20.051  0.00  0.00    +0.000 C 
ENDBRANCH  19  22
ENDBRANCH   1  19
BRANCH   4  23
ATOM     23  C   UNL     1       6.185   5.273  14.779  0.00  0.00    +0.000 C 
ATOM     24  N   UNL     1       6.953   5.243  13.779  0.00  0.00    +0.000 NA
ENDBRANCH   4  23
TORSDOF 3
ENDMDL
MODEL 8
REMARK VINA RESULT:      -6.1      2.617      6.444
REMARK  Name = 
REMARK  6 active torsions:
REMARK  status: ('A' for Active; 'I' for Inactive)
REMARK    1  A    between atoms: C_1  and  C_2
REMARK    2  A    between atoms: C_2  and  C_3
REMARK    3  A    between atoms: C_3  and  C_4
REMARK    4  A    between atoms: C_3  and  N_5
REMARK    5  A    between atoms: C_8  and  C_9
REMARK    6  A    between atoms: C_17  and  C_18
REMARK                            x       y       z     vdW  Elec       q    Type
REMARK                         _______ _______ _______ _____ _____    ______ ____
ROOT
ATOM      1  N   UNL     1       2.589   4.185  18.946  0.00  0.00    +0.000 N 
ATOM      2  C   UNL     1       1.925   5.137  19.735  0.00  0.00    +0.000 A 
ATOM      3  N   UNL     1       0.925   4.937  20.537  0.00  0.00    +0.000 NA
ATOM      4  C   UNL     1       2.368   6.555  19.676  0.00  0.00    +0.000 A 
ATOM      5  C   UNL     1       3.280   6.916  18.778  0.00  0.00    +0.000 A 
ATOM      6  C   UNL     1       3.846   5.940  17.878  0.00  0.00    +0.000 A 
ATOM      7  C   UNL     1       4.791   6.429  16.842  0.00  0.00    +0.000 A 
ATOM      8  O   UNL     1       5.049   7.635  16.769  0.00  0.00    +0.000 OA
ATOM      9  N   UNL     1       5.317   5.471  16.009  0.00  0.00    +0.000 N 
ATOM     10  C   UNL     1       6.197   5.864  15.012  0.00  0.00    +0.000 A 
ATOM     11  C   UNL     1       6.759   4.987  14.170  0.00  0.00    +0.000 A 
ATOM     12  C   UNL     1       7.710   5.408  13.092  0.00  0.00    +0.000 C 
ATOM     13  C   UNL     1       6.437   3.585  14.309  0.00  0.00    +0.000 A 
ATOM     14  C   UNL     1       5.586   3.165  15.257  0.00  0.00    +0.000 A 
ATOM     15  C   UNL     1       4.958   4.147  16.186  0.00  0.00    +0.000 A 
ATOM     16  N   UNL     1       4.131   3.720  17.090  0.00  0.00    +0.000 NA
ATOM     17  C   UNL     1       3.542   4.619  17.954  0.00  0.00    +0.000 A 
ATOM     18  H   UNL     1       0.601   3.978  20.558  0.00  0.00    +0.000 HD
ENDROOT
BRANCH   1  19
ATOM     19  C   UNL     1       2.300   2.735  19.087  0.00  0.00    +0.000 C 
ATOM     20  C   UNL     1       0.813   2.462  18.828  0.00  0.00    +0.000 C 
BRANCH  19  22
ATOM     21  C   UNL     1       4.308   2.140  20.565  0.00  0.00    +0.000 C 
ATOM     22  C   UNL     1       2.791   2.145  20.430  0.00  0.00    +0.000 C 
ENDBRANCH  19  22
ENDBRANCH   1  19
BRANCH   4  23
ATOM     23  C   UNL     1       1.731   7.557  20.626  0.00  0.00    +0.000 C 
ATOM     24  N   UNL     1       1.202   8.386  21.414  0.00  0.00    +0.000 NA
ENDBRANCH   4  23
TORSDOF 3
ENDMDL
MODEL 9
REMARK VINA RESULT:      -6.1      2.513      6.503
REMARK  Name = 
REMARK  6 active torsions:
REMARK  status: ('A' for Active; 'I' for Inactive)
REMARK    1  A    between atoms: C_1  and  C_2
REMARK    2  A    between atoms: C_2  and  C_3
REMARK    3  A    between atoms: C_3  and  C_4
REMARK    4  A    between atoms: C_3  and  N_5
REMARK    5  A    between atoms: C_8  and  C_9
REMARK    6  A    between atoms: C_17  and  C_18
REMARK                            x       y       z     vdW  Elec       q    Type
REMARK                         _______ _______ _______ _____ _____    ______ ____
ROOT
ATOM      1  N   UNL     1       2.916   4.335  19.396  0.00  0.00    +0.000 N 
ATOM      2  C   UNL     1       2.157   5.301  20.075  0.00  0.00    +0.000 A 
ATOM      3  N   UNL     1       1.259   5.099  20.990  0.00  0.00    +0.000 NA
ATOM      4  C   UNL     1       2.355   6.736  19.741  0.00  0.00    +0.000 A 
ATOM      5  C   UNL     1       3.134   7.064  18.713  0.00  0.00    +0.000 A 
ATOM      6  C   UNL     1       3.792   6.040  17.938  0.00  0.00    +0.000 A 
ATOM      7  C   UNL     1       4.572   6.473  16.751  0.00  0.00    +0.000 A 
ATOM      8  O   UNL     1       4.623   7.671  16.455  0.00  0.00    +0.000 OA
ATOM      9  N   UNL     1       5.192   5.472  16.043  0.00  0.00    +0.000 N 
ATOM     10  C   UNL     1       5.927   5.809  14.916  0.00  0.00    +0.000 A 
ATOM     11  C   UNL     1       6.569   4.891  14.182  0.00  0.00    +0.000 A 
ATOM     12  C   UNL     1       7.363   5.251  12.964  0.00  0.00    +0.000 C 
ATOM     13  C   UNL     1       6.493   3.504  14.582  0.00  0.00    +0.000 A 
ATOM     14  C   UNL     1       5.787   3.136  15.661  0.00  0.00    +0.000 A 
ATOM     15  C   UNL     1       5.069   4.163  16.470  0.00  0.00    +0.000 A 
ATOM     16  N   UNL     1       4.386   3.784  17.506  0.00  0.00    +0.000 NA
ATOM     17  C   UNL     1       3.715   4.723  18.261  0.00  0.00    +0.000 A 
ATOM     18  H   UNL     1       1.100   4.122  21.199  0.00  0.00    +0.000 HD
ENDROOT
BRANCH   1  19
ATOM     19  C   UNL     1       2.880   2.906  19.802  0.00  0.00    +0.000 C 
ATOM     20  C   UNL     1       4.296   2.408  20.116  0.00  0.00    +0.000 C 
BRANCH  19  22
ATOM     21  C   UNL     1       0.634   2.234  18.763  0.00  0.00    +0.000 C 
ATOM     22  C   UNL     1       2.140   2.005  18.786  0.00  0.00    +0.000 C 
ENDBRANCH  19  22
ENDBRANCH   1  19
BRANCH   4  23
ATOM     23  C   UNL     1       1.626   7.783  20.567  0.00  0.00    +0.000 C 
ATOM     24  N   UNL     1       1.023   8.652  21.252  0.00  0.00    +0.000 NA
ENDBRANCH   4  23
TORSDOF 3
ENDMDL
