MODEL 1
REMARK VINA RESULT:      -8.0      0.000      0.000
REMARK  Name = 
REMARK  8 active torsions:
REMARK  status: ('A' for Active; 'I' for Inactive)
REMARK    1  A    between atoms: C_6  and  N_7
REMARK    2  A    between atoms: N_7  and  C_8
REMARK    3  A    between atoms: C_8  and  C_9
REMARK    4  A    between atoms: C_9  and  C_10
REMARK    5  A    between atoms: C_10  and  O_11
REMARK    6  A    between atoms: C_13  and  C_14
REMARK    7  A    between atoms: C_14  and  C_15
REMARK    8  A    between atoms: C_15  and  C_16
REMARK                            x       y       z     vdW  Elec       q    Type
REMARK                         _______ _______ _______ _____ _____    ______ ____
ROOT
ATOM      1  C   UNL     1       6.137   5.668  17.971  0.00  0.00    +0.000 C 
ATOM      2  C   UNL     1       7.550   5.617  17.313  0.00  0.00    +0.000 C 
ATOM      3  C   UNL     1       7.543   7.179  17.198  0.00  0.00    +0.000 C 
ATOM      4  C   UNL     1       6.002   7.102  17.349  0.00  0.00    +0.000 C 
ENDROOT
BRANCH   1   5
ATOM      5  C   UNL     1       5.043   4.747  17.354  0.00  0.00    +0.000 C 
BRANCH   5   6
ATOM      6  N   UNL     1       4.994   3.488  18.106  0.00  0.00    +0.000 N 
ATOM      7  H   UNL     1       5.307   2.694  17.556  0.00  0.00    +0.000 HD
BRANCH   6  13
ATOM      8  N   UNL     1       2.269   2.672  21.866  0.00  0.00    +0.000 N 
ATOM      9  C   UNL     1       2.430   2.723  20.497  0.00  0.00    +0.000 A 
ATOM     10  N   UNL     1       1.390   2.341  19.750  0.00  0.00    +0.000 NA
ATOM     11  C   UNL     1       1.577   2.363  18.422  0.00  0.00    +0.000 A 
ATOM     12  C   UNL     1       2.758   2.740  17.841  0.00  0.00    +0.000 A 
ATOM     13  C   UNL     1       3.776   3.120  18.696  0.00  0.00    +0.000 A 
ATOM     14  N   UNL     1       3.627   3.095  20.028  0.00  0.00    +0.000 NA
ATOM     15  H   UNL     1       1.549   1.995  22.081  0.00  0.00    +0.000 HD
ATOM     16  H   UNL     1       3.172   2.535  22.297  0.00  0.00    +0.000 HD
ENDBRANCH   6  13
ENDBRANCH   5   6
ENDBRANCH   1   5
BRANCH   1  17
ATOM     17  C   UNL     1       6.169   5.445  19.498  0.00  0.00    +0.000 C 
BRANCH  17  18
ATOM     18  O   UNL     1       7.471   5.265  20.033  0.00  0.00    +0.000 OA
ATOM     19  H   UNL     1       8.091   5.153  19.296  0.00  0.00    +0.000 HD
ENDBRANCH  17  18
ENDBRANCH   1  17
BRANCH   3  20
ATOM     20  C   UNL     1       8.146   8.156  18.211  0.00  0.00    +0.000 C 
BRANCH  20  21
ATOM     21  C   UNL     1       8.198   9.584  17.679  0.00  0.00    +0.000 C 
BRANCH  21  22
ATOM     22  C   UNL     1       9.200  10.413  18.450  0.00  0.00    +0.000 A 
ATOM     23  C   UNL     1      10.208  11.118  17.778  0.00  0.00    +0.000 A 
ATOM     24  C   UNL     1      11.154  11.857  18.492  0.00  0.00    +0.000 A 
ATOM     25  C   UNL     1      11.105  11.892  19.884  0.00  0.00    +0.000 A 
ATOM     26  C   UNL     1      10.114  11.185  20.563  0.00  0.00    +0.000 A 
ATOM     27  C   UNL     1       9.167  10.447  19.850  0.00  0.00    +0.000 A 
ENDBRANCH  21  22
ENDBRANCH  20  21
ENDBRANCH   3  20
TORSDOF 8
ENDMDL
MODEL 2
REMARK VINA RESULT:      -8.0      4.210      6.720
REMARK  Name = 
REMARK  8 active torsions:
REMARK  status: ('A' for Active; 'I' for Inactive)
REMARK    1  A    between atoms: C_6  and  N_7
REMARK    2  A    between atoms: N_7  and  C_8
REMARK    3  A    between atoms: C_8  and  C_9
REMARK    4  A    between atoms: C_9  and  C_10
REMARK    5  A    between atoms: C_10  and  O_11
REMARK    6  A    between atoms: C_13  and  C_14
REMARK    7  A    between atoms: C_14  and  C_15
REMARK    8  A    between atoms: C_15  and  C_16
REMARK                            x       y       z     vdW  Elec       q    Type
REMARK                         _______ _______ _______ _____ _____    ______ ____
ROOT
ATOM      1  C   UNL     1       5.142   5.309  17.353  0.00  0.00    +0.000 C 
ATOM      2  C   UNL     1       4.548   4.428  16.211  0.00  0.00    +0.000 C 
ATOM      3  C   UNL     1       5.483   5.146  15.182  0.00  0.00    +0.000 C 
ATOM      4  C   UNL     1       5.617   6.288  16.221  0.00  0.00    +0.000 C 
ENDROOT
BRANCH   1   5
ATOM      5  C   UNL     1       4.123   6.053  18.266  0.00  0.00    +0.000 C 
BRANCH   5   6
ATOM      6  N   UNL     1       2.768   5.583  17.957  0.00  0.00    +0.000 N 
ATOM      7  H   UNL     1       2.087   6.336  17.954  0.00  0.00    +0.000 HD
BRANCH   6  13
ATOM      8  N   UNL     1       2.327   3.257  22.034  0.00  0.00    +0.000 N 
ATOM      9  C   UNL     1       1.994   3.407  20.702  0.00  0.00    +0.000 A 
ATOM     10  N   UNL     1       1.188   2.484  20.171  0.00  0.00    +0.000 NA
ATOM     11  C   UNL     1       0.906   2.627  18.867  0.00  0.00    +0.000 A 
ATOM     12  C   UNL     1       1.409   3.643  18.102  0.00  0.00    +0.000 A 
ATOM     13  C   UNL     1       2.233   4.551  18.742  0.00  0.00    +0.000 A 
ATOM     14  N   UNL     1       2.548   4.429  20.039  0.00  0.00    +0.000 NA
ATOM     15  H   UNL     1       2.231   2.281  22.281  0.00  0.00    +0.000 HD
ATOM     16  H   UNL     1       3.225   3.686  22.197  0.00  0.00    +0.000 HD
ENDBRANCH   6  13
ENDBRANCH   5   6
ENDBRANCH   1   5
BRANCH   1  17
ATOM     17  C   UNL     1       6.147   4.551  18.246  0.00  0.00    +0.000 C 
BRANCH  17  18
ATOM     18  O   UNL     1       5.567   3.521  19.031  0.00  0.00    +0.000 OA
ATOM     19  H   UNL     1       4.605   3.564  18.926  0.00  0.00    +0.000 HD
ENDBRANCH  17  18
ENDBRANCH   1  17
BRANCH   3  20
ATOM     20  C   UNL     1       6.860   4.655  14.725  0.00  0.00    +0.000 C 
BRANCH  20  21
ATOM     21  C   UNL     1       7.104   4.910  13.241  0.00  0.00    +0.000 C 
BRANCH  21  22
ATOM     22  C   UNL     1       6.653   3.731  12.408  0.00  0.00    +0.000 A 
ATOM     23  C   UNL     1       5.289   3.467  12.227  0.00  0.00    +0.000 A 
ATOM     24  C   UNL     1       4.873   2.359  11.486  0.00  0.00    +0.000 A 
ATOM     25  C   UNL     1       5.816   1.500  10.926  0.00  0.00    +0.000 A 
ATOM     26  C   UNL     1       7.175   1.746  11.110  0.00  0.00    +0.000 A 
ATOM     27  C   UNL     1       7.593   2.855  11.849  0.00  0.00    +0.000 A 
ENDBRANCH  21  22
ENDBRANCH  20  21
ENDBRANCH   3  20
TORSDOF 8
ENDMDL
MODEL 3
REMARK VINA RESULT:      -8.0      4.118      7.864
REMARK  Name = 
REMARK  8 active torsions:
REMARK  status: ('A' for Active; 'I' for Inactive)
REMARK    1  A    between atoms: C_6  and  N_7
REMARK    2  A    between atoms: N_7  and  C_8
REMARK    3  A    between atoms: C_8  and  C_9
REMARK    4  A    between atoms: C_9  and  C_10
REMARK    5  A    between atoms: C_10  and  O_11
REMARK    6  A    between atoms: C_13  and  C_14
REMARK    7  A    between atoms: C_14  and  C_15
REMARK    8  A    between atoms: C_15  and  C_16
REMARK                            x       y       z     vdW  Elec       q    Type
REMARK                         _______ _______ _______ _____ _____    ______ ____
ROOT
ATOM      1  C   UNL     1       6.409   5.393  17.799  0.00  0.00    +0.000 C 
ATOM      2  C   UNL     1       5.493   6.436  17.086  0.00  0.00    +0.000 C 
ATOM      3  C   UNL     1       4.283   5.955  17.956  0.00  0.00    +0.000 C 
ATOM      4  C   UNL     1       5.086   4.654  18.210  0.00  0.00    +0.000 C 
ENDROOT
BRANCH   1   5
ATOM      5  C   UNL     1       7.246   4.452  16.882  0.00  0.00    +0.000 C 
BRANCH   5   6
ATOM      6  N   UNL     1       6.376   3.900  15.838  0.00  0.00    +0.000 N 
ATOM      7  H   UNL     1       6.246   2.897  15.931  0.00  0.00    +0.000 HD
BRANCH   6  13
ATOM      8  N   UNL     1       8.730   6.267  12.508  0.00  0.00    +0.000 N 
ATOM      9  C   UNL     1       7.845   5.269  12.865  0.00  0.00    +0.000 A 
ATOM     10  N   UNL     1       7.271   4.585  11.871  0.00  0.00    +0.000 NA
ATOM     11  C   UNL     1       6.387   3.643  12.236  0.00  0.00    +0.000 A 
ATOM     12  C   UNL     1       6.068   3.387  13.541  0.00  0.00    +0.000 A 
ATOM     13  C   UNL     1       6.715   4.146  14.499  0.00  0.00    +0.000 A 
ATOM     14  N   UNL     1       7.592   5.104  14.168  0.00  0.00    +0.000 NA
ATOM     15  H   UNL     1       8.505   6.577  11.573  0.00  0.00    +0.000 HD
ATOM     16  H   UNL     1       8.742   6.967  13.234  0.00  0.00    +0.000 HD
ENDBRANCH   6  13
ENDBRANCH   5   6
ENDBRANCH   1   5
BRANCH   1  17
ATOM     17  C   UNL     1       7.346   6.024  18.849  0.00  0.00    +0.000 C 
BRANCH  17  18
ATOM     18  O   UNL     1       7.342   5.366  20.106  0.00  0.00    +0.000 OA
ATOM     19  H   UNL     1       7.091   4.440  19.964  0.00  0.00    +0.000 HD
ENDBRANCH  17  18
ENDBRANCH   1  17
BRANCH   3  20
ATOM     20  C   UNL     1       3.821   6.582  19.274  0.00  0.00    +0.000 C 
BRANCH  20  21
ATOM     21  C   UNL     1       2.322   6.417  19.501  0.00  0.00    +0.000 C 
BRANCH  21  22
ATOM     22  C   UNL     1       1.987   4.997  19.897  0.00  0.00    +0.000 A 
ATOM     23  C   UNL     1       1.358   4.135  18.988  0.00  0.00    +0.000 A 
ATOM     24  C   UNL     1       1.018   2.834  19.363  0.00  0.00    +0.000 A 
ATOM     25  C   UNL     1       1.297   2.385  20.653  0.00  0.00    +0.000 A 
ATOM     26  C   UNL     1       1.911   3.237  21.568  0.00  0.00    +0.000 A 
ATOM     27  C   UNL     1       2.253   4.538  21.193  0.00  0.00    +0.000 A 
ENDBRANCH  21  22
ENDBRANCH  20  21
ENDBRANCH   3  20
TORSDOF 8
ENDMDL
MODEL 4
REMARK VINA RESULT:      -8.0      5.020      8.021
REMARK  Name = 
REMARK  8 active torsions:
REMARK  status: ('A' for Active; 'I' for Inactive)
REMARK    1  A    between atoms: C_6  and  N_7
REMARK    2  A    between atoms: N_7  and  C_8
REMARK    3  A    between atoms: C_8  and  C_9
REMARK    4  A    between atoms: C_9  and  C_10
REMARK    5  A    between atoms: C_10  and  O_11
REMARK    6  A    between atoms: C_13  and  C_14
REMARK    7  A    between atoms: C_14  and  C_15
REMARK    8  A    between atoms: C_15  and  C_16
REMARK                            x       y       z     vdW  Elec       q    Type
REMARK                         _______ _______ _______ _____ _____    ______ ____
ROOT
ATOM      1  C   UNL     1       4.923   4.821  17.583  0.00  0.00    +0.000 C 
ATOM      2  C   UNL     1       5.015   5.645  18.905  0.00  0.00    +0.000 C 
ATOM      3  C   UNL     1       4.007   6.687  18.316  0.00  0.00    +0.000 C 
ATOM      4  C   UNL     1       4.376   6.133  16.916  0.00  0.00    +0.000 C 
ENDROOT
BRANCH   1   5
ATOM      5  C   UNL     1       6.271   4.436  16.903  0.00  0.00    +0.000 C 
BRANCH   5   6
ATOM      6  N   UNL     1       5.995   3.594  15.733  0.00  0.00    +0.000 N 
ATOM      7  H   UNL     1       6.274   2.628  15.875  0.00  0.00    +0.000 HD
BRANCH   6  13
ATOM      8  N   UNL     1       8.952   6.151  13.097  0.00  0.00    +0.000 N 
ATOM      9  C   UNL     1       7.944   5.213  13.193  0.00  0.00    +0.000 A 
ATOM     10  N   UNL     1       7.441   4.746  12.047  0.00  0.00    +0.000 NA
ATOM     11  C   UNL     1       6.437   3.863  12.159  0.00  0.00    +0.000 A 
ATOM     12  C   UNL     1       5.934   3.456  13.365  0.00  0.00    +0.000 A 
ATOM     13  C   UNL     1       6.521   3.993  14.496  0.00  0.00    +0.000 A 
ATOM     14  N   UNL     1       7.515   4.889  14.418  0.00  0.00    +0.000 NA
ATOM     15  H   UNL     1       8.875   6.616  12.203  0.00  0.00    +0.000 HD
ATOM     16  H   UNL     1       8.935   6.734  13.921  0.00  0.00    +0.000 HD
ENDBRANCH   6  13
ENDBRANCH   5   6
ENDBRANCH   1   5
BRANCH   1  17
ATOM     17  C   UNL     1       4.055   3.554  17.716  0.00  0.00    +0.000 C 
BRANCH  17  18
ATOM     18  O   UNL     1       2.957   3.503  16.817  0.00  0.00    +0.000 OA
ATOM     19  H   UNL     1       3.224   2.991  16.039  0.00  0.00    +0.000 HD
ENDBRANCH  17  18
ENDBRANCH   1  17
BRANCH   3  20
ATOM     20  C   UNL     1       2.490   6.686  18.525  0.00  0.00    +0.000 C 
BRANCH  20  21
ATOM     21  C   UNL     1       2.107   6.518  19.991  0.00  0.00    +0.000 C 
BRANCH  21  22
ATOM     22  C   UNL     1       1.852   5.064  20.320  0.00  0.00    +0.000 A 
ATOM     23  C   UNL     1       2.466   4.467  21.429  0.00  0.00    +0.000 A 
ATOM     24  C   UNL     1       2.257   3.116  21.714  0.00  0.00    +0.000 A 
ATOM     25  C   UNL     1       1.438   2.348  20.889  0.00  0.00    +0.000 A 
ATOM     26  C   UNL     1       0.832   2.928  19.777  0.00  0.00    +0.000 A 
ATOM     27  C   UNL     1       1.039   4.280  19.492  0.00  0.00    +0.000 A 
ENDBRANCH  21  22
ENDBRANCH  20  21
ENDBRANCH   3  20
TORSDOF 8
ENDMDL
MODEL 5
REMARK VINA RESULT:      -8.0      1.166      1.285
REMARK  Name = 
REMARK  8 active torsions:
REMARK  status: ('A' for Active; 'I' for Inactive)
REMARK    1  A    between atoms: C_6  and  N_7
REMARK    2  A    between atoms: N_7  and  C_8
REMARK    3  A    between atoms: C_8  and  C_9
REMARK    4  A    between atoms: C_9  and  C_10
REMARK    5  A    between atoms: C_10  and  O_11
REMARK    6  A    between atoms: C_13  and  C_14
REMARK    7  A    between atoms: C_14  and  C_15
REMARK    8  A    between atoms: C_15  and  C_16
REMARK                            x       y       z     vdW  Elec       q    Type
REMARK                         _______ _______ _______ _____ _____    ______ ____
ROOT
ATOM      1  C   UNL     1       6.879   5.556  17.854  0.00  0.00    +0.000 C 
ATOM      2  C   UNL     1       7.580   6.252  16.647  0.00  0.00    +0.000 C 
ATOM      3  C   UNL     1       7.253   7.649  17.273  0.00  0.00    +0.000 C 
ATOM      4  C   UNL     1       6.163   6.929  18.108  0.00  0.00    +0.000 C 
ENDROOT
BRANCH   1   5
ATOM      5  C   UNL     1       5.802   4.482  17.515  0.00  0.00    +0.000 C 
BRANCH   5   6
ATOM      6  N   UNL     1       5.577   3.638  18.695  0.00  0.00    +0.000 N 
ATOM      7  H   UNL     1       5.776   2.658  18.514  0.00  0.00    +0.000 HD
BRANCH   6  13
ATOM      8  N   UNL     1       2.125   5.965  20.906  0.00  0.00    +0.000 N 
ATOM      9  C   UNL     1       2.629   4.792  20.381  0.00  0.00    +0.000 A 
ATOM     10  N   UNL     1       1.894   3.689  20.548  0.00  0.00    +0.000 NA
ATOM     11  C   UNL     1       2.418   2.552  20.063  0.00  0.00    +0.000 A 
ATOM     12  C   UNL     1       3.635   2.498  19.441  0.00  0.00    +0.000 A 
ATOM     13  C   UNL     1       4.321   3.692  19.314  0.00  0.00    +0.000 A 
ATOM     14  N   UNL     1       3.833   4.842  19.800  0.00  0.00    +0.000 NA
ATOM     15  H   UNL     1       1.489   5.734  21.658  0.00  0.00    +0.000 HD
ATOM     16  H   UNL     1       2.893   6.582  21.126  0.00  0.00    +0.000 HD
ENDBRANCH   6  13
ENDBRANCH   5   6
ENDBRANCH   1   5
BRANCH   1  17
ATOM     17  C   UNL     1       7.873   4.957  18.871  0.00  0.00    +0.000 C 
BRANCH  17  18
ATOM     18  O   UNL     1       7.720   5.449  20.193  0.00  0.00    +0.000 OA
ATOM     19  H   UNL     1       6.819   5.791  20.289  0.00  0.00    +0.000 HD
ENDBRANCH  17  18
ENDBRANCH   1  17
BRANCH   3  20
ATOM     20  C   UNL     1       8.182   8.469  18.172  0.00  0.00    +0.000 C 
BRANCH  20  21
ATOM     21  C   UNL     1       8.223   9.941  17.775  0.00  0.00    +0.000 C 
BRANCH  21  22
ATOM     22  C   UNL     1       9.324  10.669  18.511  0.00  0.00    +0.000 A 
ATOM     23  C   UNL     1      10.414  11.205  17.811  0.00  0.00    +0.000 A 
ATOM     24  C   UNL     1      11.449  11.849  18.493  0.00  0.00    +0.000 A 
ATOM     25  C   UNL     1      11.407  11.957  19.881  0.00  0.00    +0.000 A 
ATOM     26  C   UNL     1      10.334  11.417  20.588  0.00  0.00    +0.000 A 
ATOM     27  C   UNL     1       9.298  10.775  19.907  0.00  0.00    +0.000 A 
ENDBRANCH  21  22
ENDBRANCH  20  21
ENDBRANCH   3  20
TORSDOF 8
ENDMDL
MODEL 6
REMARK VINA RESULT:      -7.9      4.230      7.967
REMARK  Name = 
REMARK  8 active torsions:
REMARK  status: ('A' for Active; 'I' for Inactive)
REMARK    1  A    between atoms: C_6  and  N_7
REMARK    2  A    between atoms: N_7  and  C_8
REMARK    3  A    between atoms: C_8  and  C_9
REMARK    4  A    between atoms: C_9  and  C_10
REMARK    5  A    between atoms: C_10  and  O_11
REMARK    6  A    between atoms: C_13  and  C_14
REMARK    7  A    between atoms: C_14  and  C_15
REMARK    8  A    between atoms: C_15  and  C_16
REMARK                            x       y       z     vdW  Elec       q    Type
REMARK                         _______ _______ _______ _____ _____    ______ ____
ROOT
ATOM      1  C   UNL     1       5.680   5.631  17.538  0.00  0.00    +0.000 C 
ATOM      2  C   UNL     1       4.213   5.294  17.128  0.00  0.00    +0.000 C 
ATOM      3  C   UNL     1       3.765   5.469  18.618  0.00  0.00    +0.000 C 
ATOM      4  C   UNL     1       5.253   5.269  19.004  0.00  0.00    +0.000 C 
ENDROOT
BRANCH   1   5
ATOM      5  C   UNL     1       6.784   4.635  17.075  0.00  0.00    +0.000 C 
BRANCH   5   6
ATOM      6  N   UNL     1       6.261   3.815  15.975  0.00  0.00    +0.000 N 
ATOM      7  H   UNL     1       6.433   2.824  16.114  0.00  0.00    +0.000 HD
BRANCH   6  13
ATOM      8  N   UNL     1       8.941   6.193  12.910  0.00  0.00    +0.000 N 
ATOM      9  C   UNL     1       7.961   5.254  13.162  0.00  0.00    +0.000 A 
ATOM     10  N   UNL     1       7.372   4.694  12.102  0.00  0.00    +0.000 NA
ATOM     11  C   UNL     1       6.397   3.810  12.367  0.00  0.00    +0.000 A 
ATOM     12  C   UNL     1       6.004   3.493  13.638  0.00  0.00    +0.000 A 
ATOM     13  C   UNL     1       6.674   4.123  14.671  0.00  0.00    +0.000 A 
ATOM     14  N   UNL     1       7.642   5.022  14.441  0.00  0.00    +0.000 NA
ATOM     15  H   UNL     1       8.781   6.586  11.992  0.00  0.00    +0.000 HD
ATOM     16  H   UNL     1       8.983   6.838  13.685  0.00  0.00    +0.000 HD
ENDBRANCH   6  13
ENDBRANCH   5   6
ENDBRANCH   1   5
BRANCH   1  17
ATOM     17  C   UNL     1       6.107   7.061  17.146  0.00  0.00    +0.000 C 
BRANCH  17  18
ATOM     18  O   UNL     1       7.502   7.216  16.939  0.00  0.00    +0.000 OA
ATOM     19  H   UNL     1       7.957   6.472  17.361  0.00  0.00    +0.000 HD
ENDBRANCH  17  18
ENDBRANCH   1  17
BRANCH   3  20
ATOM     20  C   UNL     1       3.203   6.750  19.241  0.00  0.00    +0.000 C 
BRANCH  20  21
ATOM     21  C   UNL     1       2.002   6.479  20.140  0.00  0.00    +0.000 C 
BRANCH  21  22
ATOM     22  C   UNL     1       1.822   4.996  20.371  0.00  0.00    +0.000 A 
ATOM     23  C   UNL     1       1.001   4.239  19.523  0.00  0.00    +0.000 A 
ATOM     24  C   UNL     1       0.808   2.875  19.755  0.00  0.00    +0.000 A 
ATOM     25  C   UNL     1       1.426   2.258  20.840  0.00  0.00    +0.000 A 
ATOM     26  C   UNL     1       2.234   3.004  21.696  0.00  0.00    +0.000 A 
ATOM     27  C   UNL     1       2.430   4.367  21.465  0.00  0.00    +0.000 A 
ENDBRANCH  21  22
ENDBRANCH  20  21
ENDBRANCH   3  20
TORSDOF 8
ENDMDL
MODEL 7
REMARK VINA RESULT:      -7.9      5.142      7.958
REMARK  Name = 
REMARK  8 active torsions:
REMARK  status: ('A' for Active; 'I' for Inactive)
REMARK    1  A    between atoms: C_6  and  N_7
REMARK    2  A    between atoms: N_7  and  C_8
REMARK    3  A    between atoms: C_8  and  C_9
REMARK    4  A    between atoms: C_9  and  C_10
REMARK    5  A    between atoms: C_10  and  O_11
REMARK    6  A    between atoms: C_13  and  C_14
REMARK    7  A    between atoms: C_14  and  C_15
REMARK    8  A    between atoms: C_15  and  C_16
REMARK                            x       y       z     vdW  Elec       q    Type
REMARK                         _______ _______ _______ _____ _____    ______ ____
ROOT
ATOM      1  C   UNL     1       5.382   4.773  17.169  0.00  0.00    +0.000 C 
ATOM      2  C   UNL     1       5.351   5.408  18.594  0.00  0.00    +0.000 C 
ATOM      3  C   UNL     1       4.441   6.560  18.051  0.00  0.00    +0.000 C 
ATOM      4  C   UNL     1       4.945   6.183  16.635  0.00  0.00    +0.000 C 
ENDROOT
BRANCH   1   5
ATOM      5  C   UNL     1       6.785   4.428  16.586  0.00  0.00    +0.000 C 
BRANCH   5   6
ATOM      6  N   UNL     1       7.109   5.379  15.517  0.00  0.00    +0.000 N 
ATOM      7  H   UNL     1       6.537   6.217  15.556  0.00  0.00    +0.000 HD
BRANCH   6  13
ATOM      8  N   UNL     1       5.622   2.385  12.192  0.00  0.00    +0.000 N 
ATOM      9  C   UNL     1       6.364   3.489  12.560  0.00  0.00    +0.000 A 
ATOM     10  N   UNL     1       7.102   4.067  11.607  0.00  0.00    +0.000 NA
ATOM     11  C   UNL     1       7.844   5.117  11.991  0.00  0.00    +0.000 A 
ATOM     12  C   UNL     1       7.869   5.581  13.278  0.00  0.00    +0.000 A 
ATOM     13  C   UNL     1       7.071   4.919  14.193  0.00  0.00    +0.000 A 
ATOM     14  N   UNL     1       6.329   3.857  13.846  0.00  0.00    +0.000 NA
ATOM     15  H   UNL     1       6.054   1.962  11.381  0.00  0.00    +0.000 HD
ATOM     16  H   UNL     1       5.491   1.796  13.001  0.00  0.00    +0.000 HD
ENDBRANCH   6  13
ENDBRANCH   5   6
ENDBRANCH   1   5
BRANCH   1  17
ATOM     17  C   UNL     1       4.471   3.535  17.035  0.00  0.00    +0.000 C 
BRANCH  17  18
ATOM     18  O   UNL     1       4.491   2.673  18.161  0.00  0.00    +0.000 OA
ATOM     19  H   UNL     1       5.398   2.637  18.502  0.00  0.00    +0.000 HD
ENDBRANCH  17  18
ENDBRANCH   1  17
BRANCH   3  20
ATOM     20  C   UNL     1       2.911   6.593  18.098  0.00  0.00    +0.000 C 
BRANCH  20  21
ATOM     21  C   UNL     1       2.373   6.528  19.524  0.00  0.00    +0.000 C 
BRANCH  21  22
ATOM     22  C   UNL     1       2.007   5.111  19.901  0.00  0.00    +0.000 A 
ATOM     23  C   UNL     1       2.296   4.617  21.180  0.00  0.00    +0.000 A 
ATOM     24  C   UNL     1       1.988   3.297  21.517  0.00  0.00    +0.000 A 
ATOM     25  C   UNL     1       1.395   2.457  20.578  0.00  0.00    +0.000 A 
ATOM     26  C   UNL     1       1.114   2.934  19.299  0.00  0.00    +0.000 A 
ATOM     27  C   UNL     1       1.420   4.254  18.961  0.00  0.00    +0.000 A 
ENDBRANCH  21  22
ENDBRANCH  20  21
ENDBRANCH   3  20
TORSDOF 8
ENDMDL
MODEL 8
REMARK VINA RESULT:      -7.9      4.045      6.842
REMARK  Name = 
REMARK  8 active torsions:
REMARK  status: ('A' for Active; 'I' for Inactive)
REMARK    1  A    between atoms: C_6  and  N_7
REMARK    2  A    between atoms: N_7  and  C_8
REMARK    3  A    between atoms: C_8  and  C_9
REMARK    4  A    between atoms: C_9  and  C_10
REMARK    5  A    between atoms: C_10  and  O_11
REMARK    6  A    between atoms: C_13  and  C_14
REMARK    7  A    between atoms: C_14  and  C_15
REMARK    8  A    between atoms: C_15  and  C_16
REMARK                            x       y       z     vdW  Elec       q    Type
REMARK                         _______ _______ _______ _____ _____    ______ ____
ROOT
ATOM      1  C   UNL     1       5.229   5.393  16.962  0.00  0.00    +0.000 C 
ATOM      2  C   UNL     1       5.074   4.092  16.115  0.00  0.00    +0.000 C 
ATOM      3  C   UNL     1       5.617   4.856  14.860  0.00  0.00    +0.000 C 
ATOM      4  C   UNL     1       5.244   6.167  15.597  0.00  0.00    +0.000 C 
ENDROOT
BRANCH   1   5
ATOM      5  C   UNL     1       3.985   5.846  17.783  0.00  0.00    +0.000 C 
BRANCH   5   6
ATOM      6  N   UNL     1       3.077   4.704  17.950  0.00  0.00    +0.000 N 
ATOM      7  H   UNL     1       2.100   4.970  17.867  0.00  0.00    +0.000 HD
BRANCH   6  13
ATOM      8  N   UNL     1       5.249   1.466  20.601  0.00  0.00    +0.000 N 
ATOM      9  C   UNL     1       4.226   2.376  20.426  0.00  0.00    +0.000 A 
ATOM     10  N   UNL     1       3.307   2.447  21.393  0.00  0.00    +0.000 NA
ATOM     11  C   UNL     1       2.300   3.310  21.189  0.00  0.00    +0.000 A 
ATOM     12  C   UNL     1       2.193   4.077  20.061  0.00  0.00    +0.000 A 
ATOM     13  C   UNL     1       3.194   3.935  19.117  0.00  0.00    +0.000 A 
ATOM     14  N   UNL     1       4.205   3.071  19.283  0.00  0.00    +0.000 NA
ATOM     15  H   UNL     1       4.929   0.738  21.226  0.00  0.00    +0.000 HD
ATOM     16  H   UNL     1       5.588   1.178  19.695  0.00  0.00    +0.000 HD
ENDBRANCH   6  13
ENDBRANCH   5   6
ENDBRANCH   1   5
BRANCH   1  17
ATOM     17  C   UNL     1       6.456   5.367  17.896  0.00  0.00    +0.000 C 
BRANCH  17  18
ATOM     18  O   UNL     1       6.964   4.068  18.156  0.00  0.00    +0.000 OA
ATOM     19  H   UNL     1       6.488   3.437  17.595  0.00  0.00    +0.000 HD
ENDBRANCH  17  18
ENDBRANCH   1  17
BRANCH   3  20
ATOM     20  C   UNL     1       7.073   4.885  14.389  0.00  0.00    +0.000 C 
BRANCH  20  21
ATOM     21  C   UNL     1       7.190   5.002  12.873  0.00  0.00    +0.000 C 
BRANCH  21  22
ATOM     22  C   UNL     1       6.698   3.745  12.193  0.00  0.00    +0.000 A 
ATOM     23  C   UNL     1       5.324   3.492  12.073  0.00  0.00    +0.000 A 
ATOM     24  C   UNL     1       4.869   2.314  11.475  0.00  0.00    +0.000 A 
ATOM     25  C   UNL     1       5.783   1.376  10.999  0.00  0.00    +0.000 A 
ATOM     26  C   UNL     1       7.150   1.612  11.124  0.00  0.00    +0.000 A 
ATOM     27  C   UNL     1       7.606   2.789  11.720  0.00  0.00    +0.000 A 
ENDBRANCH  21  22
ENDBRANCH  20  21
ENDBRANCH   3  20
TORSDOF 8
ENDMDL
MODEL 9
REMARK VINA RESULT:      -7.9      4.145      6.165
REMARK  Name = 
REMARK  8 active torsions:
REMARK  status: ('A' for Active; 'I' for Inactive)
REMARK    1  A    between atoms: C_6  and  N_7
REMARK    2  A    between atoms: N_7  and  C_8
REMARK    3  A    between atoms: C_8  and  C_9
REMARK    4  A    between atoms: C_9  and  C_10
REMARK    5  A    between atoms: C_10  and  O_11
REMARK    6  A    between atoms: C_13  and  C_14
REMARK    7  A    between atoms: C_14  and  C_15
REMARK    8  A    between atoms: C_15  and  C_16
REMARK                            x       y       z     vdW  Elec       q    Type
REMARK                         _______ _______ _______ _____ _____    ______ ____
ROOT
ATOM      1  C   UNL     1       2.169   4.542  19.714  0.00  0.00    +0.000 C 
ATOM      2  C   UNL     1       1.759   4.298  18.229  0.00  0.00    +0.000 C 
ATOM      3  C   UNL     1       3.223   4.626  17.780  0.00  0.00    +0.000 C 
ATOM      4  C   UNL     1       3.396   5.339  19.145  0.00  0.00    +0.000 C 
ENDROOT
BRANCH   1   5
ATOM      5  C   UNL     1       1.275   5.517  20.536  0.00  0.00    +0.000 C 
BRANCH   5   6
ATOM      6  N   UNL     1       2.062   6.699  20.903  0.00  0.00    +0.000 N 
ATOM      7  H   UNL     1       2.284   6.727  21.894  0.00  0.00    +0.000 HD
BRANCH   6  13
ATOM      8  N   UNL     1       1.266  10.173  17.816  0.00  0.00    +0.000 N 
ATOM      9  C   UNL     1       1.147   9.658  19.091  0.00  0.00    +0.000 A 
ATOM     10  N   UNL     1       0.582  10.444  20.012  0.00  0.00    +0.000 NA
ATOM     11  C   UNL     1       0.509   9.940  21.253  0.00  0.00    +0.000 A 
ATOM     12  C   UNL     1       0.987   8.702  21.585  0.00  0.00    +0.000 A 
ATOM     13  C   UNL     1       1.553   7.961  20.563  0.00  0.00    +0.000 A 
ATOM     14  N   UNL     1       1.656   8.441  19.316  0.00  0.00    +0.000 NA
ATOM     15  H   UNL     1       1.268  11.182  17.876  0.00  0.00    +0.000 HD
ATOM     16  H   UNL     1       2.053   9.737  17.359  0.00  0.00    +0.000 HD
ENDBRANCH   6  13
ENDBRANCH   5   6
ENDBRANCH   1   5
BRANCH   1  17
ATOM     17  C   UNL     1       2.350   3.238  20.517  0.00  0.00    +0.000 C 
BRANCH  17  18
ATOM     18  O   UNL     1       2.291   3.407  21.925  0.00  0.00    +0.000 OA
ATOM     19  H   UNL     1       1.383   3.233  22.215  0.00  0.00    +0.000 HD
ENDBRANCH  17  18
ENDBRANCH   1  17
BRANCH   3  20
ATOM     20  C   UNL     1       4.341   3.605  17.548  0.00  0.00    +0.000 C 
BRANCH  20  21
ATOM     21  C   UNL     1       5.403   4.118  16.582  0.00  0.00    +0.000 C 
BRANCH  21  22
ATOM     22  C   UNL     1       6.288   5.148  17.246  0.00  0.00    +0.000 A 
ATOM     23  C   UNL     1       6.361   6.454  16.744  0.00  0.00    +0.000 A 
ATOM     24  C   UNL     1       7.204   7.396  17.337  0.00  0.00    +0.000 A 
ATOM     25  C   UNL     1       7.986   7.040  18.434  0.00  0.00    +0.000 A 
ATOM     26  C   UNL     1       7.930   5.741  18.934  0.00  0.00    +0.000 A 
ATOM     27  C   UNL     1       7.087   4.798  18.342  0.00  0.00    +0.000 A 
ENDBRANCH  21  22
ENDBRANCH  20  21
ENDBRANCH   3  20
TORSDOF 8
ENDMDL
