MODEL 1
REMARK VINA RESULT:      -8.4      0.000      0.000
REMARK  Name = 
REMARK  2 active torsions:
REMARK  status: ('A' for Active; 'I' for Inactive)
REMARK    1  A    between atoms: N_4  and  N_5
REMARK    2  A    between atoms: N_9  and  N_10
REMARK                            x       y       z     vdW  Elec       q    Type
REMARK                         _______ _______ _______ _____ _____    ______ ____
ROOT
ATOM      1  N   UNL     1       2.204   7.380  18.813  0.00  0.00    +0.000 NA
ATOM      2  C   UNL     1       2.789   6.271  18.498  0.00  0.00    +0.000 C 
ATOM      3  C   UNL     1       3.841   5.977  17.453  0.00  0.00    +0.000 C 
ATOM      4  C   UNL     1       4.074   4.481  17.597  0.00  0.00    +0.000 C 
ATOM      5  N   UNL     1       4.864   3.711  16.921  0.00  0.00    +0.000 NA
ATOM      6  C   UNL     1       3.220   3.983  18.677  0.00  0.00    +0.000 A 
ATOM      7  C   UNL     1       3.101   2.700  19.182  0.00  0.00    +0.000 A 
ATOM      8  C   UNL     1       2.199   2.497  20.236  0.00  0.00    +0.000 A 
ATOM      9  C   UNL     1       1.445   3.562  20.761  0.00  0.00    +0.000 A 
ATOM     10  C   UNL     1       1.577   4.849  20.238  0.00  0.00    +0.000 A 
ATOM     11  C   UNL     1       2.471   5.029  19.197  0.00  0.00    +0.000 A 
ENDROOT
BRANCH   1  15
ATOM     12  N   UNL     1       2.136  10.703  17.492  0.00  0.00    +0.000 NA
ATOM     13  C   UNL     1       1.836   9.675  18.198  0.00  0.00    +0.000 C 
ATOM     14  N   UNL     1       0.783   9.649  19.050  0.00  0.00    +0.000 N 
ATOM     15  N   UNL     1       2.547   8.508  18.148  0.00  0.00    +0.000 N 
ATOM     16  H   UNL     1       1.483  11.455  17.727  0.00  0.00    +0.000 HD
ATOM     17  H   UNL     1      -0.003  10.242  18.820  0.00  0.00    +0.000 HD
ATOM     18  H   UNL     1       0.521   8.687  19.254  0.00  0.00    +0.000 HD
ATOM     19  H   UNL     1       3.340   8.557  17.518  0.00  0.00    +0.000 HD
ENDBRANCH   1  15
BRANCH   5  20
ATOM     20  N   UNL     1       5.633   4.275  15.942  0.00  0.00    +0.000 N 
ATOM     21  C   UNL     1       6.939   4.619  16.137  0.00  0.00    +0.000 C 
ATOM     22  N   UNL     1       7.614   4.357  17.206  0.00  0.00    +0.000 NA
ATOM     23  N   UNL     1       7.524   5.286  15.121  0.00  0.00    +0.000 N 
ATOM     24  H   UNL     1       5.199   4.711  15.136  0.00  0.00    +0.000 HD
ATOM     25  H   UNL     1       6.935   3.872  17.811  0.00  0.00    +0.000 HD
ATOM     26  H   UNL     1       7.324   4.936  14.193  0.00  0.00    +0.000 HD
ATOM     27  H   UNL     1       8.526   5.330  15.285  0.00  0.00    +0.000 HD
ENDBRANCH   5  20
TORSDOF 2
ENDMDL
MODEL 2
REMARK VINA RESULT:      -8.2      0.629      5.463
REMARK  Name = 
REMARK  2 active torsions:
REMARK  status: ('A' for Active; 'I' for Inactive)
REMARK    1  A    between atoms: N_4  and  N_5
REMARK    2  A    between atoms: N_9  and  N_10
REMARK                            x       y       z     vdW  Elec       q    Type
REMARK                         _______ _______ _______ _____ _____    ______ ____
ROOT
ATOM      1  N   UNL     1       5.130   3.975  17.372  0.00  0.00    +0.000 NA
ATOM      2  C   UNL     1       4.291   4.685  18.053  0.00  0.00    +0.000 C 
ATOM      3  C   UNL     1       3.802   6.100  17.840  0.00  0.00    +0.000 C 
ATOM      4  C   UNL     1       2.847   6.323  19.003  0.00  0.00    +0.000 C 
ATOM      5  N   UNL     1       2.171   7.383  19.310  0.00  0.00    +0.000 NA
ATOM      6  C   UNL     1       2.792   5.093  19.796  0.00  0.00    +0.000 A 
ATOM      7  C   UNL     1       2.050   4.812  20.930  0.00  0.00    +0.000 A 
ATOM      8  C   UNL     1       2.182   3.536  21.495  0.00  0.00    +0.000 A 
ATOM      9  C   UNL     1       3.038   2.576  20.924  0.00  0.00    +0.000 A 
ATOM     10  C   UNL     1       3.778   2.878  19.781  0.00  0.00    +0.000 A 
ATOM     11  C   UNL     1       3.636   4.142  19.240  0.00  0.00    +0.000 A 
ENDROOT
BRANCH   1  15
ATOM     12  N   UNL     1       7.535   5.340  15.106  0.00  0.00    +0.000 NA
ATOM     13  C   UNL     1       7.036   4.748  16.129  0.00  0.00    +0.000 C 
ATOM     14  N   UNL     1       7.789   4.308  17.166  0.00  0.00    +0.000 N 
ATOM     15  N   UNL     1       5.696   4.516  16.269  0.00  0.00    +0.000 N 
ATOM     16  H   UNL     1       8.553   5.367  15.217  0.00  0.00    +0.000 HD
ATOM     17  H   UNL     1       8.645   4.811  17.352  0.00  0.00    +0.000 HD
ATOM     18  H   UNL     1       7.206   4.176  17.990  0.00  0.00    +0.000 HD
ATOM     19  H   UNL     1       5.155   4.838  15.473  0.00  0.00    +0.000 HD
ENDBRANCH   1  15
BRANCH   5  20
ATOM     20  N   UNL     1       2.280   8.475  18.497  0.00  0.00    +0.000 N 
ATOM     21  C   UNL     1       1.493   9.581  18.639  0.00  0.00    +0.000 C 
ATOM     22  N   UNL     1       0.653   9.764  19.602  0.00  0.00    +0.000 NA
ATOM     23  N   UNL     1       1.628  10.520  17.679  0.00  0.00    +0.000 N 
ATOM     24  H   UNL     1       2.744   8.402  17.598  0.00  0.00    +0.000 HD
ATOM     25  H   UNL     1       0.736   8.905  20.165  0.00  0.00    +0.000 HD
ATOM     26  H   UNL     1       2.577  10.723  17.394  0.00  0.00    +0.000 HD
ATOM     27  H   UNL     1       1.147  11.366  17.971  0.00  0.00    +0.000 HD
ENDBRANCH   5  20
TORSDOF 2
ENDMDL
MODEL 3
REMARK VINA RESULT:      -8.2      1.096      1.347
REMARK  Name = 
REMARK  2 active torsions:
REMARK  status: ('A' for Active; 'I' for Inactive)
REMARK    1  A    between atoms: N_4  and  N_5
REMARK    2  A    between atoms: N_9  and  N_10
REMARK                            x       y       z     vdW  Elec       q    Type
REMARK                         _______ _______ _______ _____ _____    ______ ____
ROOT
ATOM      1  N   UNL     1       2.270   7.232  18.367  0.00  0.00    +0.000 NA
ATOM      2  C   UNL     1       2.957   6.220  17.945  0.00  0.00    +0.000 C 
ATOM      3  C   UNL     1       4.223   6.168  17.120  0.00  0.00    +0.000 C 
ATOM      4  C   UNL     1       4.483   4.677  16.967  0.00  0.00    +0.000 C 
ATOM      5  N   UNL     1       5.433   4.078  16.325  0.00  0.00    +0.000 NA
ATOM      6  C   UNL     1       3.437   3.950  17.688  0.00  0.00    +0.000 A 
ATOM      7  C   UNL     1       3.266   2.586  17.849  0.00  0.00    +0.000 A 
ATOM      8  C   UNL     1       2.167   2.152  18.603  0.00  0.00    +0.000 A 
ATOM      9  C   UNL     1       1.271   3.073  19.176  0.00  0.00    +0.000 A 
ATOM     10  C   UNL     1       1.459   4.445  19.003  0.00  0.00    +0.000 A 
ATOM     11  C   UNL     1       2.548   4.853  18.255  0.00  0.00    +0.000 A 
ENDROOT
BRANCH   1  15
ATOM     12  N   UNL     1       2.303  10.709  17.532  0.00  0.00    +0.000 NA
ATOM     13  C   UNL     1       1.875   9.556  17.896  0.00  0.00    +0.000 C 
ATOM     14  N   UNL     1       0.566   9.297  18.134  0.00  0.00    +0.000 N 
ATOM     15  N   UNL     1       2.701   8.480  18.070  0.00  0.00    +0.000 N 
ATOM     16  H   UNL     1       1.506  11.351  17.504  0.00  0.00    +0.000 HD
ATOM     17  H   UNL     1      -0.107   9.849  17.621  0.00  0.00    +0.000 HD
ATOM     18  H   UNL     1       0.393   8.295  18.086  0.00  0.00    +0.000 HD
ATOM     19  H   UNL     1       3.676   8.702  17.904  0.00  0.00    +0.000 HD
ENDBRANCH   1  15
BRANCH   5  20
ATOM     20  N   UNL     1       6.371   4.846  15.696  0.00  0.00    +0.000 N 
ATOM     21  C   UNL     1       6.806   4.590  14.428  0.00  0.00    +0.000 C 
ATOM     22  N   UNL     1       6.314   3.680  13.655  0.00  0.00    +0.000 NA
ATOM     23  N   UNL     1       7.828   5.356  13.996  0.00  0.00    +0.000 N 
ATOM     24  H   UNL     1       6.976   5.459  16.232  0.00  0.00    +0.000 HD
ATOM     25  H   UNL     1       5.579   3.242  14.230  0.00  0.00    +0.000 HD
ATOM     26  H   UNL     1       7.763   6.340  14.217  0.00  0.00    +0.000 HD
ATOM     27  H   UNL     1       7.951   5.214  12.997  0.00  0.00    +0.000 HD
ENDBRANCH   5  20
TORSDOF 2
ENDMDL
MODEL 4
REMARK VINA RESULT:      -8.1      0.878      1.096
REMARK  Name = 
REMARK  2 active torsions:
REMARK  status: ('A' for Active; 'I' for Inactive)
REMARK    1  A    between atoms: N_4  and  N_5
REMARK    2  A    between atoms: N_9  and  N_10
REMARK                            x       y       z     vdW  Elec       q    Type
REMARK                         _______ _______ _______ _____ _____    ______ ____
ROOT
ATOM      1  N   UNL     1       1.986   7.092  18.884  0.00  0.00    +0.000 NA
ATOM      2  C   UNL     1       2.822   6.109  18.970  0.00  0.00    +0.000 C 
ATOM      3  C   UNL     1       4.184   5.920  18.342  0.00  0.00    +0.000 C 
ATOM      4  C   UNL     1       4.614   4.547  18.835  0.00  0.00    +0.000 C 
ATOM      5  N   UNL     1       5.696   3.889  18.573  0.00  0.00    +0.000 NA
ATOM      6  C   UNL     1       3.562   4.021  19.707  0.00  0.00    +0.000 A 
ATOM      7  C   UNL     1       3.512   2.824  20.400  0.00  0.00    +0.000 A 
ATOM      8  C   UNL     1       2.373   2.568  21.176  0.00  0.00    +0.000 A 
ATOM      9  C   UNL     1       1.321   3.499  21.249  0.00  0.00    +0.000 A 
ATOM     10  C   UNL     1       1.388   4.700  20.543  0.00  0.00    +0.000 A 
ATOM     11  C   UNL     1       2.519   4.934  19.781  0.00  0.00    +0.000 A 
ENDROOT
BRANCH   1  15
ATOM     12  N   UNL     1       2.031  10.385  17.491  0.00  0.00    +0.000 NA
ATOM     13  C   UNL     1       1.755   9.405  18.271  0.00  0.00    +0.000 C 
ATOM     14  N   UNL     1       0.871   9.503  19.293  0.00  0.00    +0.000 N 
ATOM     15  N   UNL     1       2.322   8.168  18.135  0.00  0.00    +0.000 N 
ATOM     16  H   UNL     1       1.510  11.206  17.812  0.00  0.00    +0.000 HD
ATOM     17  H   UNL     1       0.122  10.174  19.184  0.00  0.00    +0.000 HD
ATOM     18  H   UNL     1       0.551   8.577  19.569  0.00  0.00    +0.000 HD
ATOM     19  H   UNL     1       2.993   8.124  17.376  0.00  0.00    +0.000 HD
ENDBRANCH   1  15
BRANCH   5  20
ATOM     20  N   UNL     1       6.625   4.474  17.759  0.00  0.00    +0.000 N 
ATOM     21  C   UNL     1       6.705   4.211  16.422  0.00  0.00    +0.000 C 
ATOM     22  N   UNL     1       5.864   3.483  15.768  0.00  0.00    +0.000 NA
ATOM     23  N   UNL     1       7.757   4.762  15.782  0.00  0.00    +0.000 N 
ATOM     24  H   UNL     1       7.455   4.903  18.154  0.00  0.00    +0.000 HD
ATOM     25  H   UNL     1       5.191   3.179  16.487  0.00  0.00    +0.000 HD
ATOM     26  H   UNL     1       7.966   5.721  16.026  0.00  0.00    +0.000 HD
ATOM     27  H   UNL     1       7.624   4.662  14.779  0.00  0.00    +0.000 HD
ENDBRANCH   5  20
TORSDOF 2
ENDMDL
MODEL 5
REMARK VINA RESULT:      -8.0      1.009      5.555
REMARK  Name = 
REMARK  2 active torsions:
REMARK  status: ('A' for Active; 'I' for Inactive)
REMARK    1  A    between atoms: N_4  and  N_5
REMARK    2  A    between atoms: N_9  and  N_10
REMARK                            x       y       z     vdW  Elec       q    Type
REMARK                         _______ _______ _______ _____ _____    ______ ____
ROOT
ATOM      1  N   UNL     1       5.551   4.222  16.491  0.00  0.00    +0.000 NA
ATOM      2  C   UNL     1       4.546   4.790  17.073  0.00  0.00    +0.000 C 
ATOM      3  C   UNL     1       4.163   6.250  17.168  0.00  0.00    +0.000 C 
ATOM      4  C   UNL     1       2.891   6.228  18.002  0.00  0.00    +0.000 C 
ATOM      5  N   UNL     1       2.162   7.219  18.402  0.00  0.00    +0.000 NA
ATOM      6  C   UNL     1       2.575   4.835  18.324  0.00  0.00    +0.000 A 
ATOM      7  C   UNL     1       1.509   4.318  19.041  0.00  0.00    +0.000 A 
ATOM      8  C   UNL     1       1.444   2.927  19.199  0.00  0.00    +0.000 A 
ATOM      9  C   UNL     1       2.428   2.088  18.645  0.00  0.00    +0.000 A 
ATOM     10  C   UNL     1       3.495   2.626  17.926  0.00  0.00    +0.000 A 
ATOM     11  C   UNL     1       3.543   4.001  17.782  0.00  0.00    +0.000 A 
ENDROOT
BRANCH   1  15
ATOM     12  N   UNL     1       7.809   5.435  13.997  0.00  0.00    +0.000 NA
ATOM     13  C   UNL     1       6.900   4.732  14.568  0.00  0.00    +0.000 C 
ATOM     14  N   UNL     1       6.318   3.661  13.976  0.00  0.00    +0.000 N 
ATOM     15  N   UNL     1       6.442   4.995  15.829  0.00  0.00    +0.000 N 
ATOM     16  H   UNL     1       7.955   5.064  13.054  0.00  0.00    +0.000 HD
ATOM     17  H   UNL     1       6.875   3.155  13.302  0.00  0.00    +0.000 HD
ATOM     18  H   UNL     1       5.887   3.064  14.680  0.00  0.00    +0.000 HD
ATOM     19  H   UNL     1       6.879   5.812  16.244  0.00  0.00    +0.000 HD
ENDBRANCH   1  15
BRANCH   5  20
ATOM     20  N   UNL     1       2.532   8.481  18.035  0.00  0.00    +0.000 N 
ATOM     21  C   UNL     1       1.752   9.577  18.269  0.00  0.00    +0.000 C 
ATOM     22  N   UNL     1       0.653   9.562  18.945  0.00  0.00    +0.000 NA
ATOM     23  N   UNL     1       2.193  10.732  17.730  0.00  0.00    +0.000 N 
ATOM     24  H   UNL     1       3.257   8.622  17.339  0.00  0.00    +0.000 HD
ATOM     25  H   UNL     1       0.545   8.573  19.215  0.00  0.00    +0.000 HD
ATOM     26  H   UNL     1       3.185  10.907  17.818  0.00  0.00    +0.000 HD
ATOM     27  H   UNL     1       1.652  11.504  18.111  0.00  0.00    +0.000 HD
ENDBRANCH   5  20
TORSDOF 2
ENDMDL
MODEL 6
REMARK VINA RESULT:      -8.0      2.115      2.332
REMARK  Name = 
REMARK  2 active torsions:
REMARK  status: ('A' for Active; 'I' for Inactive)
REMARK    1  A    between atoms: N_4  and  N_5
REMARK    2  A    between atoms: N_9  and  N_10
REMARK                            x       y       z     vdW  Elec       q    Type
REMARK                         _______ _______ _______ _____ _____    ______ ____
ROOT
ATOM      1  N   UNL     1       1.537   6.597  20.807  0.00  0.00    +0.000 NA
ATOM      2  C   UNL     1       2.228   6.072  19.849  0.00  0.00    +0.000 C 
ATOM      3  C   UNL     1       3.383   6.632  19.049  0.00  0.00    +0.000 C 
ATOM      4  C   UNL     1       3.716   5.511  18.076  0.00  0.00    +0.000 C 
ATOM      5  N   UNL     1       4.615   5.480  17.146  0.00  0.00    +0.000 NA
ATOM      6  C   UNL     1       2.814   4.388  18.341  0.00  0.00    +0.000 A 
ATOM      7  C   UNL     1       2.751   3.149  17.728  0.00  0.00    +0.000 A 
ATOM      8  C   UNL     1       1.783   2.244  18.186  0.00  0.00    +0.000 A 
ATOM      9  C   UNL     1       0.909   2.587  19.235  0.00  0.00    +0.000 A 
ATOM     10  C   UNL     1       0.988   3.841  19.841  0.00  0.00    +0.000 A 
ATOM     11  C   UNL     1       1.948   4.720  19.374  0.00  0.00    +0.000 A 
ENDROOT
BRANCH   1  15
ATOM     12  N   UNL     1       1.243   9.984  21.916  0.00  0.00    +0.000 NA
ATOM     13  C   UNL     1       0.925   8.781  21.605  0.00  0.00    +0.000 C 
ATOM     14  N   UNL     1      -0.352   8.329  21.616  0.00  0.00    +0.000 N 
ATOM     15  N   UNL     1       1.848   7.846  21.225  0.00  0.00    +0.000 N 
ATOM     16  H   UNL     1       0.390  10.478  22.194  0.00  0.00    +0.000 HD
ATOM     17  H   UNL     1      -1.077   9.011  21.439  0.00  0.00    +0.000 HD
ATOM     18  H   UNL     1      -0.432   7.491  21.044  0.00  0.00    +0.000 HD
ATOM     19  H   UNL     1       2.798   8.202  21.242  0.00  0.00    +0.000 HD
ENDBRANCH   1  15
BRANCH   5  20
ATOM     20  N   UNL     1       5.418   6.573  16.988  0.00  0.00    +0.000 N 
ATOM     21  C   UNL     1       6.779   6.506  17.055  0.00  0.00    +0.000 C 
ATOM     22  N   UNL     1       7.453   5.410  17.163  0.00  0.00    +0.000 NA
ATOM     23  N   UNL     1       7.425   7.689  17.012  0.00  0.00    +0.000 N 
ATOM     24  H   UNL     1       5.037   7.508  17.092  0.00  0.00    +0.000 HD
ATOM     25  H   UNL     1       6.728   4.678  17.195  0.00  0.00    +0.000 HD
ATOM     26  H   UNL     1       7.079   8.354  16.333  0.00  0.00    +0.000 HD
ATOM     27  H   UNL     1       8.419   7.521  16.884  0.00  0.00    +0.000 HD
ENDBRANCH   5  20
TORSDOF 2
ENDMDL
MODEL 7
REMARK VINA RESULT:      -8.0      0.974      1.152
REMARK  Name = 
REMARK  2 active torsions:
REMARK  status: ('A' for Active; 'I' for Inactive)
REMARK    1  A    between atoms: N_4  and  N_5
REMARK    2  A    between atoms: N_9  and  N_10
REMARK                            x       y       z     vdW  Elec       q    Type
REMARK                         _______ _______ _______ _____ _____    ______ ____
ROOT
ATOM      1  N   UNL     1       2.369   7.168  18.619  0.00  0.00    +0.000 NA
ATOM      2  C   UNL     1       3.270   6.255  18.454  0.00  0.00    +0.000 C 
ATOM      3  C   UNL     1       4.488   6.228  17.559  0.00  0.00    +0.000 C 
ATOM      4  C   UNL     1       5.100   4.863  17.837  0.00  0.00    +0.000 C 
ATOM      5  N   UNL     1       6.150   4.319  17.312  0.00  0.00    +0.000 NA
ATOM      6  C   UNL     1       4.281   4.188  18.846  0.00  0.00    +0.000 A 
ATOM      7  C   UNL     1       4.452   2.943  19.426  0.00  0.00    +0.000 A 
ATOM      8  C   UNL     1       3.512   2.536  20.383  0.00  0.00    +0.000 A 
ATOM      9  C   UNL     1       2.435   3.367  20.740  0.00  0.00    +0.000 A 
ATOM     10  C   UNL     1       2.278   4.619  20.143  0.00  0.00    +0.000 A 
ATOM     11  C   UNL     1       3.215   5.002  19.201  0.00  0.00    +0.000 A 
ENDROOT
BRANCH   1  15
ATOM     12  N   UNL     1       1.918  10.549  17.546  0.00  0.00    +0.000 NA
ATOM     13  C   UNL     1       1.871   9.494  18.274  0.00  0.00    +0.000 C 
ATOM     14  N   UNL     1       1.212   9.445  19.457  0.00  0.00    +0.000 N 
ATOM     15  N   UNL     1       2.474   8.320  17.917  0.00  0.00    +0.000 N 
ATOM     16  H   UNL     1       1.423  11.299  18.037  0.00  0.00    +0.000 HD
ATOM     17  H   UNL     1       0.416  10.059  19.561  0.00  0.00    +0.000 HD
ATOM     18  H   UNL     1       1.016   8.478  19.708  0.00  0.00    +0.000 HD
ATOM     19  H   UNL     1       2.976   8.387  17.038  0.00  0.00    +0.000 HD
ENDBRANCH   1  15
BRANCH   5  20
ATOM     20  N   UNL     1       6.856   5.038  16.390  0.00  0.00    +0.000 N 
ATOM     21  C   UNL     1       6.952   4.665  15.080  0.00  0.00    +0.000 C 
ATOM     22  N   UNL     1       6.312   3.676  14.552  0.00  0.00    +0.000 NA
ATOM     23  N   UNL     1       7.791   5.403  14.324  0.00  0.00    +0.000 N 
ATOM     24  H   UNL     1       7.555   5.710  16.688  0.00  0.00    +0.000 HD
ATOM     25  H   UNL     1       5.774   3.285  15.339  0.00  0.00    +0.000 HD
ATOM     26  H   UNL     1       7.745   6.403  14.465  0.00  0.00    +0.000 HD
ATOM     27  H   UNL     1       7.652   5.166  13.346  0.00  0.00    +0.000 HD
ENDBRANCH   5  20
TORSDOF 2
ENDMDL
MODEL 8
REMARK VINA RESULT:      -7.9      2.119      5.583
REMARK  Name = 
REMARK  2 active torsions:
REMARK  status: ('A' for Active; 'I' for Inactive)
REMARK    1  A    between atoms: N_4  and  N_5
REMARK    2  A    between atoms: N_9  and  N_10
REMARK                            x       y       z     vdW  Elec       q    Type
REMARK                         _______ _______ _______ _____ _____    ______ ____
ROOT
ATOM      1  N   UNL     1       4.805   5.516  17.173  0.00  0.00    +0.000 NA
ATOM      2  C   UNL     1       3.846   5.513  18.041  0.00  0.00    +0.000 C 
ATOM      3  C   UNL     1       3.375   6.592  18.990  0.00  0.00    +0.000 C 
ATOM      4  C   UNL     1       2.227   5.931  19.736  0.00  0.00    +0.000 C 
ATOM      5  N   UNL     1       1.488   6.410  20.683  0.00  0.00    +0.000 NA
ATOM      6  C   UNL     1       2.056   4.575  19.210  0.00  0.00    +0.000 A 
ATOM      7  C   UNL     1       1.132   3.606  19.562  0.00  0.00    +0.000 A 
ATOM      8  C   UNL     1       1.187   2.379  18.888  0.00  0.00    +0.000 A 
ATOM      9  C   UNL     1       2.147   2.143  17.887  0.00  0.00    +0.000 A 
ATOM     10  C   UNL     1       3.072   3.131  17.547  0.00  0.00    +0.000 A 
ATOM     11  C   UNL     1       3.003   4.335  18.224  0.00  0.00    +0.000 A 
ENDROOT
BRANCH   1  15
ATOM     12  N   UNL     1       7.581   7.767  17.056  0.00  0.00    +0.000 NA
ATOM     13  C   UNL     1       6.910   6.676  17.115  0.00  0.00    +0.000 C 
ATOM     14  N   UNL     1       7.490   5.462  17.277  0.00  0.00    +0.000 N 
ATOM     15  N   UNL     1       5.546   6.639  17.027  0.00  0.00    +0.000 N 
ATOM     16  H   UNL     1       8.576   7.534  17.112  0.00  0.00    +0.000 HD
ATOM     17  H   UNL     1       8.367   5.441  17.780  0.00  0.00    +0.000 HD
ATOM     18  H   UNL     1       6.806   4.791  17.621  0.00  0.00    +0.000 HD
ATOM     19  H   UNL     1       5.136   7.556  16.887  0.00  0.00    +0.000 HD
ENDBRANCH   1  15
BRANCH   5  20
ATOM     20  N   UNL     1       1.716   7.693  21.093  0.00  0.00    +0.000 N 
ATOM     21  C   UNL     1       0.720   8.518  21.527  0.00  0.00    +0.000 C 
ATOM     22  N   UNL     1      -0.507   8.156  21.700  0.00  0.00    +0.000 NA
ATOM     23  N   UNL     1       1.084   9.794  21.771  0.00  0.00    +0.000 N 
ATOM     24  H   UNL     1       2.574   8.169  20.834  0.00  0.00    +0.000 HD
ATOM     25  H   UNL     1      -0.510   7.162  21.427  0.00  0.00    +0.000 HD
ATOM     26  H   UNL     1       1.960   9.915  22.260  0.00  0.00    +0.000 HD
ATOM     27  H   UNL     1       0.327  10.268  22.256  0.00  0.00    +0.000 HD
ENDBRANCH   5  20
TORSDOF 2
ENDMDL
MODEL 9
REMARK VINA RESULT:      -7.7      2.440      5.926
REMARK  Name = 
REMARK  2 active torsions:
REMARK  status: ('A' for Active; 'I' for Inactive)
REMARK    1  A    between atoms: N_4  and  N_5
REMARK    2  A    between atoms: N_9  and  N_10
REMARK                            x       y       z     vdW  Elec       q    Type
REMARK                         _______ _______ _______ _____ _____    ______ ____
ROOT
ATOM      1  N   UNL     1       4.703   6.483  16.923  0.00  0.00    +0.000 NA
ATOM      2  C   UNL     1       3.905   6.500  17.940  0.00  0.00    +0.000 C 
ATOM      3  C   UNL     1       3.705   5.493  19.049  0.00  0.00    +0.000 C 
ATOM      4  C   UNL     1       2.611   6.118  19.902  0.00  0.00    +0.000 C 
ATOM      5  N   UNL     1       2.045   5.654  20.968  0.00  0.00    +0.000 NA
ATOM      6  C   UNL     1       2.248   7.407  19.311  0.00  0.00    +0.000 A 
ATOM      7  C   UNL     1       1.321   8.341  19.742  0.00  0.00    +0.000 A 
ATOM      8  C   UNL     1       1.172   9.510  18.983  0.00  0.00    +0.000 A 
ATOM      9  C   UNL     1       1.943   9.725  17.826  0.00  0.00    +0.000 A 
ATOM     10  C   UNL     1       2.872   8.773  17.406  0.00  0.00    +0.000 A 
ATOM     11  C   UNL     1       3.003   7.626  18.167  0.00  0.00    +0.000 A 
ENDROOT
BRANCH   1  15
ATOM     12  N   UNL     1       7.643   4.520  16.383  0.00  0.00    +0.000 NA
ATOM     13  C   UNL     1       6.889   5.532  16.615  0.00  0.00    +0.000 C 
ATOM     14  N   UNL     1       7.365   6.796  16.723  0.00  0.00    +0.000 N 
ATOM     15  N   UNL     1       5.534   5.427  16.766  0.00  0.00    +0.000 N 
ATOM     16  H   UNL     1       8.613   4.846  16.343  0.00  0.00    +0.000 HD
ATOM     17  H   UNL     1       8.205   7.011  16.204  0.00  0.00    +0.000 HD
ATOM     18  H   UNL     1       6.613   7.466  16.578  0.00  0.00    +0.000 HD
ATOM     19  H   UNL     1       5.204   4.470  16.699  0.00  0.00    +0.000 HD
ENDBRANCH   1  15
BRANCH   5  20
ATOM     20  N   UNL     1       2.466   4.447  21.449  0.00  0.00    +0.000 N 
ATOM     21  C   UNL     1       1.738   3.301  21.308  0.00  0.00    +0.000 C 
ATOM     22  N   UNL     1       0.647   3.207  20.625  0.00  0.00    +0.000 NA
ATOM     23  N   UNL     1       2.223   2.219  21.951  0.00  0.00    +0.000 N 
ATOM     24  H   UNL     1       3.188   4.401  22.161  0.00  0.00    +0.000 HD
ATOM     25  H   UNL     1       0.499   4.162  20.267  0.00  0.00    +0.000 HD
ATOM     26  H   UNL     1       3.222   2.082  21.888  0.00  0.00    +0.000 HD
ATOM     27  H   UNL     1       1.720   1.393  21.637  0.00  0.00    +0.000 HD
ENDBRANCH   5  20
TORSDOF 2
ENDMDL
