MODEL 1
REMARK VINA RESULT:      -7.8      0.000      0.000
REMARK  Name = 
REMARK  7 active torsions:
REMARK  status: ('A' for Active; 'I' for Inactive)
REMARK    1  A    between atoms: C_1  and  S_2
REMARK    2  A    between atoms: S_2  and  C_3
REMARK    3  A    between atoms: C_7  and  S_8
REMARK    4  A    between atoms: S_8  and  C_9
REMARK    5  A    between atoms: C_12  and  C_13
REMARK    6  A    between atoms: C_15  and  C_16
REMARK    7  A    between atoms: C_18  and  C_19
REMARK                            x       y       z     vdW  Elec       q    Type
REMARK                         _______ _______ _______ _____ _____    ______ ____
ROOT
ATOM      1  C   UNL     1       7.830   6.966  18.303  0.00  0.00    +0.000 A 
ATOM      2  N   UNL     1       7.297   7.562  17.267  0.00  0.00    +0.000 NA
ATOM      3  N   UNL     1       7.755   8.864  17.271  0.00  0.00    +0.000 NA
ATOM      4  C   UNL     1       8.545   9.031  18.319  0.00  0.00    +0.000 A 
ATOM      5  N   UNL     1       8.636   7.827  18.975  0.00  0.00    +0.000 N 
ATOM      6  H   UNL     1       9.194   7.616  19.787  0.00  0.00    +0.000 HD
ENDROOT
BRANCH   4   7
ATOM      7  C   UNL     1       9.222  10.264  18.723  0.00  0.00    +0.000 A 
ATOM      8  C   UNL     1      10.016  10.997  17.827  0.00  0.00    +0.000 A 
ATOM      9  C   UNL     1      10.679  12.162  18.238  0.00  0.00    +0.000 A 
ATOM     10  C   UNL     1      11.532  12.942  17.281  0.00  0.00    +0.000 C 
ATOM     11  C   UNL     1      10.546  12.597  19.562  0.00  0.00    +0.000 A 
ATOM     12  C   UNL     1       9.758  11.886  20.473  0.00  0.00    +0.000 A 
ATOM     13  C   UNL     1       9.608  12.354  21.891  0.00  0.00    +0.000 C 
ATOM     14  C   UNL     1       9.103  10.721  20.044  0.00  0.00    +0.000 A 
ENDBRANCH   4   7
BRANCH   1  15
ATOM     15  S   UNL     1       7.653   5.327  18.801  0.00  0.00    +0.000 S 
BRANCH  15  20
ATOM     16  C   UNL     1       3.750   5.383  18.695  0.00  0.00    +0.000 A 
ATOM     17  N   UNL     1       3.368   4.715  17.594  0.00  0.00    +0.000 NA
ATOM     18  C   UNL     1       4.349   4.213  16.828  0.00  0.00    +0.000 A 
ATOM     19  C   UNL     1       5.680   4.352  17.122  0.00  0.00    +0.000 A 
ATOM     20  C   UNL     1       5.973   5.065  18.267  0.00  0.00    +0.000 A 
ATOM     21  N   UNL     1       5.020   5.578  19.071  0.00  0.00    +0.000 NA
BRANCH  16  23
ATOM     22  C   UNL     1       2.100   4.621  20.725  0.00  0.00    +0.000 C 
ATOM     23  S   UNL     1       2.491   6.082  19.732  0.00  0.00    +0.000 S 
ENDBRANCH  16  23
ENDBRANCH  15  20
ENDBRANCH   1  15
TORSDOF 4
ENDMDL
MODEL 2
REMARK VINA RESULT:      -7.7      0.606      1.994
REMARK  Name = 
REMARK  7 active torsions:
REMARK  status: ('A' for Active; 'I' for Inactive)
REMARK    1  A    between atoms: C_1  and  S_2
REMARK    2  A    between atoms: S_2  and  C_3
REMARK    3  A    between atoms: C_7  and  S_8
REMARK    4  A    between atoms: S_8  and  C_9
REMARK    5  A    between atoms: C_12  and  C_13
REMARK    6  A    between atoms: C_15  and  C_16
REMARK    7  A    between atoms: C_18  and  C_19
REMARK                            x       y       z     vdW  Elec       q    Type
REMARK                         _______ _______ _______ _____ _____    ______ ____
ROOT
ATOM      1  C   UNL     1       7.852   6.960  18.298  0.00  0.00    +0.000 A 
ATOM      2  N   UNL     1       7.332   7.555  17.255  0.00  0.00    +0.000 NA
ATOM      3  N   UNL     1       7.780   8.861  17.269  0.00  0.00    +0.000 NA
ATOM      4  C   UNL     1       8.552   9.031  18.330  0.00  0.00    +0.000 A 
ATOM      5  N   UNL     1       8.642   7.825  18.984  0.00  0.00    +0.000 N 
ATOM      6  H   UNL     1       9.188   7.616  19.805  0.00  0.00    +0.000 HD
ENDROOT
BRANCH   4   7
ATOM      7  C   UNL     1       9.214  10.267  18.747  0.00  0.00    +0.000 A 
ATOM      8  C   UNL     1       9.138  10.735  20.068  0.00  0.00    +0.000 A 
ATOM      9  C   UNL     1       9.757  11.935  20.445  0.00  0.00    +0.000 A 
ATOM     10  C   UNL     1       9.671  12.437  21.857  0.00  0.00    +0.000 C 
ATOM     11  C   UNL     1      10.459  12.677  19.487  0.00  0.00    +0.000 A 
ATOM     12  C   UNL     1      10.551  12.230  18.165  0.00  0.00    +0.000 A 
ATOM     13  C   UNL     1      11.308  13.020  17.137  0.00  0.00    +0.000 C 
ATOM     14  C   UNL     1       9.924  11.028  17.806  0.00  0.00    +0.000 A 
ENDBRANCH   4   7
BRANCH   1  15
ATOM     15  S   UNL     1       7.679   5.320  18.789  0.00  0.00    +0.000 S 
BRANCH  15  20
ATOM     16  C   UNL     1       3.779   5.372  18.606  0.00  0.00    +0.000 A 
ATOM     17  N   UNL     1       3.418   4.683  17.511  0.00  0.00    +0.000 NA
ATOM     18  C   UNL     1       4.414   4.167  16.773  0.00  0.00    +0.000 A 
ATOM     19  C   UNL     1       5.739   4.312  17.091  0.00  0.00    +0.000 A 
ATOM     20  C   UNL     1       6.010   5.047  18.228  0.00  0.00    +0.000 A 
ATOM     21  N   UNL     1       5.042   5.574  19.003  0.00  0.00    +0.000 NA
BRANCH  16  23
ATOM     22  C   UNL     1       2.328   7.673  18.747  0.00  0.00    +0.000 C 
ATOM     23  S   UNL     1       2.499   6.090  19.605  0.00  0.00    +0.000 S 
ENDBRANCH  16  23
ENDBRANCH  15  20
ENDBRANCH   1  15
TORSDOF 4
ENDMDL
MODEL 3
REMARK VINA RESULT:      -7.7      3.428      6.902
REMARK  Name = 
REMARK  7 active torsions:
REMARK  status: ('A' for Active; 'I' for Inactive)
REMARK    1  A    between atoms: C_1  and  S_2
REMARK    2  A    between atoms: S_2  and  C_3
REMARK    3  A    between atoms: C_7  and  S_8
REMARK    4  A    between atoms: S_8  and  C_9
REMARK    5  A    between atoms: C_12  and  C_13
REMARK    6  A    between atoms: C_15  and  C_16
REMARK    7  A    between atoms: C_18  and  C_19
REMARK                            x       y       z     vdW  Elec       q    Type
REMARK                         _______ _______ _______ _____ _____    ______ ____
ROOT
ATOM      1  C   UNL     1       3.363   4.054  18.746  0.00  0.00    +0.000 A 
ATOM      2  N   UNL     1       3.236   3.817  20.027  0.00  0.00    +0.000 NA
ATOM      3  N   UNL     1       2.682   4.948  20.593  0.00  0.00    +0.000 NA
ATOM      4  C   UNL     1       2.499   5.850  19.643  0.00  0.00    +0.000 A 
ATOM      5  N   UNL     1       2.894   5.293  18.450  0.00  0.00    +0.000 N 
ATOM      6  H   UNL     1       2.841   5.712  17.535  0.00  0.00    +0.000 HD
ENDROOT
BRANCH   4   7
ATOM      7  C   UNL     1       1.962   7.202  19.805  0.00  0.00    +0.000 A 
ATOM      8  C   UNL     1       2.092   8.172  18.799  0.00  0.00    +0.000 A 
ATOM      9  C   UNL     1       1.595   9.470  18.980  0.00  0.00    +0.000 A 
ATOM     10  C   UNL     1       1.738  10.509  17.906  0.00  0.00    +0.000 C 
ATOM     11  C   UNL     1       0.962   9.801  20.184  0.00  0.00    +0.000 A 
ATOM     12  C   UNL     1       0.818   8.852  21.201  0.00  0.00    +0.000 A 
ATOM     13  C   UNL     1       0.135   9.201  22.490  0.00  0.00    +0.000 C 
ATOM     14  C   UNL     1       1.324   7.558  21.002  0.00  0.00    +0.000 A 
ENDBRANCH   4   7
BRANCH   1  15
ATOM     15  S   UNL     1       3.964   3.006  17.520  0.00  0.00    +0.000 S 
BRANCH  15  20
ATOM     16  C   UNL     1       6.877   5.597  17.299  0.00  0.00    +0.000 A 
ATOM     17  N   UNL     1       7.188   5.744  16.001  0.00  0.00    +0.000 NA
ATOM     18  C   UNL     1       6.475   5.013  15.129  0.00  0.00    +0.000 A 
ATOM     19  C   UNL     1       5.475   4.156  15.506  0.00  0.00    +0.000 A 
ATOM     20  C   UNL     1       5.238   4.065  16.863  0.00  0.00    +0.000 A 
ATOM     21  N   UNL     1       5.923   4.786  17.773  0.00  0.00    +0.000 NA
BRANCH  16  23
ATOM     22  C   UNL     1       7.825   8.127  17.650  0.00  0.00    +0.000 C 
ATOM     23  S   UNL     1       7.804   6.528  18.494  0.00  0.00    +0.000 S 
ENDBRANCH  16  23
ENDBRANCH  15  20
ENDBRANCH   1  15
TORSDOF 4
ENDMDL
MODEL 4
REMARK VINA RESULT:      -7.7      5.408      8.465
REMARK  Name = 
REMARK  7 active torsions:
REMARK  status: ('A' for Active; 'I' for Inactive)
REMARK    1  A    between atoms: C_1  and  S_2
REMARK    2  A    between atoms: S_2  and  C_3
REMARK    3  A    between atoms: C_7  and  S_8
REMARK    4  A    between atoms: S_8  and  C_9
REMARK    5  A    between atoms: C_12  and  C_13
REMARK    6  A    between atoms: C_15  and  C_16
REMARK    7  A    between atoms: C_18  and  C_19
REMARK                            x       y       z     vdW  Elec       q    Type
REMARK                         _______ _______ _______ _____ _____    ______ ____
ROOT
ATOM      1  C   UNL     1       6.866   4.837  16.067  0.00  0.00    +0.000 A 
ATOM      2  N   UNL     1       7.541   5.619  15.262  0.00  0.00    +0.000 NA
ATOM      3  N   UNL     1       7.230   5.236  13.973  0.00  0.00    +0.000 NA
ATOM      4  C   UNL     1       6.385   4.221  14.026  0.00  0.00    +0.000 A 
ATOM      5  N   UNL     1       6.110   3.968  15.349  0.00  0.00    +0.000 N 
ATOM      6  H   UNL     1       5.471   3.282  15.719  0.00  0.00    +0.000 HD
ENDROOT
BRANCH   4   7
ATOM      7  C   UNL     1       5.818   3.487  12.893  0.00  0.00    +0.000 A 
ATOM      8  C   UNL     1       6.296   2.222  12.519  0.00  0.00    +0.000 A 
ATOM      9  C   UNL     1       5.759   1.545  11.415  0.00  0.00    +0.000 A 
ATOM     10  C   UNL     1       6.275   0.194  11.013  0.00  0.00    +0.000 C 
ATOM     11  C   UNL     1       4.732   2.143  10.676  0.00  0.00    +0.000 A 
ATOM     12  C   UNL     1       4.235   3.402  11.030  0.00  0.00    +0.000 A 
ATOM     13  C   UNL     1       3.130   4.043  10.243  0.00  0.00    +0.000 C 
ATOM     14  C   UNL     1       4.787   4.065  12.137  0.00  0.00    +0.000 A 
ENDBRANCH   4   7
BRANCH   1  15
ATOM     15  S   UNL     1       6.822   4.856  17.787  0.00  0.00    +0.000 S 
BRANCH  15  20
ATOM     16  C   UNL     1       3.095   3.855  18.381  0.00  0.00    +0.000 A 
ATOM     17  N   UNL     1       2.363   4.980  18.334  0.00  0.00    +0.000 NA
ATOM     18  C   UNL     1       3.034   6.121  18.110  0.00  0.00    +0.000 A 
ATOM     19  C   UNL     1       4.392   6.173  17.931  0.00  0.00    +0.000 A 
ATOM     20  C   UNL     1       5.057   4.966  18.009  0.00  0.00    +0.000 A 
ATOM     21  N   UNL     1       4.423   3.796  18.223  0.00  0.00    +0.000 NA
BRANCH  16  23
ATOM     22  C   UNL     1       1.320   2.808  20.163  0.00  0.00    +0.000 C 
ATOM     23  S   UNL     1       2.257   2.322  18.694  0.00  0.00    +0.000 S 
ENDBRANCH  16  23
ENDBRANCH  15  20
ENDBRANCH   1  15
TORSDOF 4
ENDMDL
MODEL 5
REMARK VINA RESULT:      -7.7      4.477      7.056
REMARK  Name = 
REMARK  7 active torsions:
REMARK  status: ('A' for Active; 'I' for Inactive)
REMARK    1  A    between atoms: C_1  and  S_2
REMARK    2  A    between atoms: S_2  and  C_3
REMARK    3  A    between atoms: C_7  and  S_8
REMARK    4  A    between atoms: S_8  and  C_9
REMARK    5  A    between atoms: C_12  and  C_13
REMARK    6  A    between atoms: C_15  and  C_16
REMARK    7  A    between atoms: C_18  and  C_19
REMARK                            x       y       z     vdW  Elec       q    Type
REMARK                         _______ _______ _______ _____ _____    ______ ____
ROOT
ATOM      1  C   UNL     1       3.527   4.075  18.450  0.00  0.00    +0.000 A 
ATOM      2  N   UNL     1       3.574   3.836  19.736  0.00  0.00    +0.000 NA
ATOM      3  N   UNL     1       3.035   4.937  20.371  0.00  0.00    +0.000 NA
ATOM      4  C   UNL     1       2.685   5.824  19.455  0.00  0.00    +0.000 A 
ATOM      5  N   UNL     1       2.958   5.286  18.220  0.00  0.00    +0.000 N 
ATOM      6  H   UNL     1       2.768   5.698  17.320  0.00  0.00    +0.000 HD
ENDROOT
BRANCH   4   7
ATOM      7  C   UNL     1       2.100   7.146  19.687  0.00  0.00    +0.000 A 
ATOM      8  C   UNL     1       1.421   7.452  20.876  0.00  0.00    +0.000 A 
ATOM      9  C   UNL     1       0.844   8.715  21.072  0.00  0.00    +0.000 A 
ATOM     10  C   UNL     1       0.113   9.041  22.342  0.00  0.00    +0.000 C 
ATOM     11  C   UNL     1       0.948   9.681  20.064  0.00  0.00    +0.000 A 
ATOM     12  C   UNL     1       1.622   9.401  18.871  0.00  0.00    +0.000 A 
ATOM     13  C   UNL     1       1.740  10.436  17.791  0.00  0.00    +0.000 C 
ATOM     14  C   UNL     1       2.191   8.131  18.693  0.00  0.00    +0.000 A 
ENDBRANCH   4   7
BRANCH   1  15
ATOM     15  S   UNL     1       4.027   3.057  17.155  0.00  0.00    +0.000 S 
BRANCH  15  20
ATOM     16  C   UNL     1       6.846   5.745  16.885  0.00  0.00    +0.000 A 
ATOM     17  N   UNL     1       7.301   5.726  15.621  0.00  0.00    +0.000 NA
ATOM     18  C   UNL     1       6.723   4.844  14.791  0.00  0.00    +0.000 A 
ATOM     19  C   UNL     1       5.718   3.995  15.175  0.00  0.00    +0.000 A 
ATOM     20  C   UNL     1       5.328   4.081  16.496  0.00  0.00    +0.000 A 
ATOM     21  N   UNL     1       5.874   4.958  17.362  0.00  0.00    +0.000 NA
BRANCH  16  23
ATOM     22  C   UNL     1       7.856   5.752  19.415  0.00  0.00    +0.000 C 
ATOM     23  S   UNL     1       7.591   6.882  18.027  0.00  0.00    +0.000 S 
ENDBRANCH  16  23
ENDBRANCH  15  20
ENDBRANCH   1  15
TORSDOF 4
ENDMDL
MODEL 6
REMARK VINA RESULT:      -7.6      5.340      8.451
REMARK  Name = 
REMARK  7 active torsions:
REMARK  status: ('A' for Active; 'I' for Inactive)
REMARK    1  A    between atoms: C_1  and  S_2
REMARK    2  A    between atoms: S_2  and  C_3
REMARK    3  A    between atoms: C_7  and  S_8
REMARK    4  A    between atoms: S_8  and  C_9
REMARK    5  A    between atoms: C_12  and  C_13
REMARK    6  A    between atoms: C_15  and  C_16
REMARK    7  A    between atoms: C_18  and  C_19
REMARK                            x       y       z     vdW  Elec       q    Type
REMARK                         _______ _______ _______ _____ _____    ______ ____
ROOT
ATOM      1  C   UNL     1       6.791   4.827  16.107  0.00  0.00    +0.000 A 
ATOM      2  N   UNL     1       7.528   5.587  15.338  0.00  0.00    +0.000 NA
ATOM      3  N   UNL     1       7.253   5.229  14.033  0.00  0.00    +0.000 NA
ATOM      4  C   UNL     1       6.364   4.250  14.042  0.00  0.00    +0.000 A 
ATOM      5  N   UNL     1       6.028   3.997  15.351  0.00  0.00    +0.000 N 
ATOM      6  H   UNL     1       5.346   3.335  15.688  0.00  0.00    +0.000 HD
ENDROOT
BRANCH   4   7
ATOM      7  C   UNL     1       5.812   3.551  12.880  0.00  0.00    +0.000 A 
ATOM      8  C   UNL     1       4.761   4.093  12.125  0.00  0.00    +0.000 A 
ATOM      9  C   UNL     1       4.227   3.399  11.030  0.00  0.00    +0.000 A 
ATOM     10  C   UNL     1       3.099   3.977  10.225  0.00  0.00    +0.000 C 
ATOM     11  C   UNL     1       4.750   2.146  10.690  0.00  0.00    +0.000 A 
ATOM     12  C   UNL     1       5.800   1.586  11.426  0.00  0.00    +0.000 A 
ATOM     13  C   UNL     1       6.367   0.246  11.060  0.00  0.00    +0.000 C 
ATOM     14  C   UNL     1       6.320   2.295  12.519  0.00  0.00    +0.000 A 
ENDBRANCH   4   7
BRANCH   1  15
ATOM     15  S   UNL     1       6.680   4.833  17.824  0.00  0.00    +0.000 S 
BRANCH  15  20
ATOM     16  C   UNL     1       2.842   4.258  18.259  0.00  0.00    +0.000 A 
ATOM     17  N   UNL     1       2.246   5.460  18.200  0.00  0.00    +0.000 NA
ATOM     18  C   UNL     1       3.051   6.519  18.019  0.00  0.00    +0.000 A 
ATOM     19  C   UNL     1       4.412   6.417  17.894  0.00  0.00    +0.000 A 
ATOM     20  C   UNL     1       4.932   5.141  17.979  0.00  0.00    +0.000 A 
ATOM     21  N   UNL     1       4.160   4.049  18.151  0.00  0.00    +0.000 NA
BRANCH  16  23
ATOM     22  C   UNL     1       2.092   2.605  20.290  0.00  0.00    +0.000 C 
ATOM     23  S   UNL     1       1.823   2.827  18.515  0.00  0.00    +0.000 S 
ENDBRANCH  16  23
ENDBRANCH  15  20
ENDBRANCH   1  15
TORSDOF 4
ENDMDL
MODEL 7
REMARK VINA RESULT:      -7.5      1.654      3.182
REMARK  Name = 
REMARK  7 active torsions:
REMARK  status: ('A' for Active; 'I' for Inactive)
REMARK    1  A    between atoms: C_1  and  S_2
REMARK    2  A    between atoms: S_2  and  C_3
REMARK    3  A    between atoms: C_7  and  S_8
REMARK    4  A    between atoms: S_8  and  C_9
REMARK    5  A    between atoms: C_12  and  C_13
REMARK    6  A    between atoms: C_15  and  C_16
REMARK    7  A    between atoms: C_18  and  C_19
REMARK                            x       y       z     vdW  Elec       q    Type
REMARK                         _______ _______ _______ _____ _____    ______ ____
ROOT
ATOM      1  C   UNL     1       7.936   7.013  18.414  0.00  0.00    +0.000 A 
ATOM      2  N   UNL     1       7.390   7.569  17.363  0.00  0.00    +0.000 NA
ATOM      3  N   UNL     1       7.808   8.885  17.339  0.00  0.00    +0.000 NA
ATOM      4  C   UNL     1       8.588   9.099  18.386  0.00  0.00    +0.000 A 
ATOM      5  N   UNL     1       8.712   7.913  19.070  0.00  0.00    +0.000 N 
ATOM      6  H   UNL     1       9.273   7.738  19.889  0.00  0.00    +0.000 HD
ENDROOT
BRANCH   4   7
ATOM      7  C   UNL     1       9.225  10.361  18.764  0.00  0.00    +0.000 A 
ATOM      8  C   UNL     1       9.165  10.853  20.077  0.00  0.00    +0.000 A 
ATOM      9  C   UNL     1       9.759  12.077  20.417  0.00  0.00    +0.000 A 
ATOM     10  C   UNL     1       9.690  12.605  21.820  0.00  0.00    +0.000 C 
ATOM     11  C   UNL     1      10.421  12.817  19.429  0.00  0.00    +0.000 A 
ATOM     12  C   UNL     1      10.497  12.346  18.114  0.00  0.00    +0.000 A 
ATOM     13  C   UNL     1      11.210  13.134  17.055  0.00  0.00    +0.000 C 
ATOM     14  C   UNL     1       9.894  11.120  17.793  0.00  0.00    +0.000 A 
ENDBRANCH   4   7
BRANCH   1  15
ATOM     15  S   UNL     1       7.807   5.382  18.949  0.00  0.00    +0.000 S 
BRANCH  15  20
ATOM     16  C   UNL     1       5.600   4.266  15.926  0.00  0.00    +0.000 A 
ATOM     17  N   UNL     1       4.336   4.163  16.367  0.00  0.00    +0.000 NA
ATOM     18  C   UNL     1       4.129   4.446  17.663  0.00  0.00    +0.000 A 
ATOM     19  C   UNL     1       5.129   4.827  18.519  0.00  0.00    +0.000 A 
ATOM     20  C   UNL     1       6.396   4.892  17.975  0.00  0.00    +0.000 A 
ATOM     21  N   UNL     1       6.648   4.626  16.678  0.00  0.00    +0.000 NA
BRANCH  16  23
ATOM     22  C   UNL     1       7.325   5.001  13.949  0.00  0.00    +0.000 C 
ATOM     23  S   UNL     1       5.929   3.884  14.224  0.00  0.00    +0.000 S 
ENDBRANCH  16  23
ENDBRANCH  15  20
ENDBRANCH   1  15
TORSDOF 4
ENDMDL
MODEL 8
REMARK VINA RESULT:      -7.5      5.585      7.153
REMARK  Name = 
REMARK  7 active torsions:
REMARK  status: ('A' for Active; 'I' for Inactive)
REMARK    1  A    between atoms: C_1  and  S_2
REMARK    2  A    between atoms: S_2  and  C_3
REMARK    3  A    between atoms: C_7  and  S_8
REMARK    4  A    between atoms: S_8  and  C_9
REMARK    5  A    between atoms: C_12  and  C_13
REMARK    6  A    between atoms: C_15  and  C_16
REMARK    7  A    between atoms: C_18  and  C_19
REMARK                            x       y       z     vdW  Elec       q    Type
REMARK                         _______ _______ _______ _____ _____    ______ ____
ROOT
ATOM      1  C   UNL     1       5.284   3.761  18.372  0.00  0.00    +0.000 A 
ATOM      2  N   UNL     1       6.392   4.415  18.609  0.00  0.00    +0.000 NA
ATOM      3  N   UNL     1       6.956   4.713  17.385  0.00  0.00    +0.000 NA
ATOM      4  C   UNL     1       6.182   4.220  16.432  0.00  0.00    +0.000 A 
ATOM      5  N   UNL     1       5.092   3.637  17.034  0.00  0.00    +0.000 N 
ATOM      6  H   UNL     1       4.301   3.209  16.578  0.00  0.00    +0.000 HD
ENDROOT
BRANCH   4   7
ATOM      7  C   UNL     1       6.416   4.281  14.989  0.00  0.00    +0.000 A 
ATOM      8  C   UNL     1       5.660   3.516  14.087  0.00  0.00    +0.000 A 
ATOM      9  C   UNL     1       5.914   3.567  12.709  0.00  0.00    +0.000 A 
ATOM     10  C   UNL     1       5.110   2.745  11.745  0.00  0.00    +0.000 C 
ATOM     11  C   UNL     1       6.938   4.393  12.229  0.00  0.00    +0.000 A 
ATOM     12  C   UNL     1       7.703   5.167  13.108  0.00  0.00    +0.000 A 
ATOM     13  C   UNL     1       8.797   6.058  12.597  0.00  0.00    +0.000 C 
ATOM     14  C   UNL     1       7.435   5.101  14.484  0.00  0.00    +0.000 A 
ENDBRANCH   4   7
BRANCH   1  15
ATOM     15  S   UNL     1       4.137   3.155  19.503  0.00  0.00    +0.000 S 
BRANCH  15  20
ATOM     16  C   UNL     1       2.663   6.731  18.967  0.00  0.00    +0.000 A 
ATOM     17  N   UNL     1       1.799   6.965  19.968  0.00  0.00    +0.000 NA
ATOM     18  C   UNL     1       1.645   5.981  20.868  0.00  0.00    +0.000 A 
ATOM     19  C   UNL     1       2.320   4.789  20.802  0.00  0.00    +0.000 A 
ATOM     20  C   UNL     1       3.175   4.639  19.730  0.00  0.00    +0.000 A 
ATOM     21  N   UNL     1       3.367   5.604  18.809  0.00  0.00    +0.000 NA
BRANCH  16  23
ATOM     22  C   UNL     1       1.700   9.208  18.365  0.00  0.00    +0.000 C 
ATOM     23  S   UNL     1       2.887   7.995  17.740  0.00  0.00    +0.000 S 
ENDBRANCH  16  23
ENDBRANCH  15  20
ENDBRANCH   1  15
TORSDOF 4
ENDMDL
MODEL 9
REMARK VINA RESULT:      -7.4      1.130      1.155
REMARK  Name = 
REMARK  7 active torsions:
REMARK  status: ('A' for Active; 'I' for Inactive)
REMARK    1  A    between atoms: C_1  and  S_2
REMARK    2  A    between atoms: S_2  and  C_3
REMARK    3  A    between atoms: C_7  and  S_8
REMARK    4  A    between atoms: S_8  and  C_9
REMARK    5  A    between atoms: C_12  and  C_13
REMARK    6  A    between atoms: C_15  and  C_16
REMARK    7  A    between atoms: C_18  and  C_19
REMARK                            x       y       z     vdW  Elec       q    Type
REMARK                         _______ _______ _______ _____ _____    ______ ____
ROOT
ATOM      1  C   UNL     1       7.956   6.969  18.465  0.00  0.00    +0.000 A 
ATOM      2  N   UNL     1       7.331   7.495  17.442  0.00  0.00    +0.000 NA
ATOM      3  N   UNL     1       7.711   8.820  17.375  0.00  0.00    +0.000 NA
ATOM      4  C   UNL     1       8.547   9.071  18.368  0.00  0.00    +0.000 A 
ATOM      5  N   UNL     1       8.746   7.899  19.059  0.00  0.00    +0.000 N 
ATOM      6  H   UNL     1       9.361   7.751  19.844  0.00  0.00    +0.000 HD
ENDROOT
BRANCH   4   7
ATOM      7  C   UNL     1       9.172  10.355  18.690  0.00  0.00    +0.000 A 
ATOM      8  C   UNL     1       9.840  11.114  17.717  0.00  0.00    +0.000 A 
ATOM      9  C   UNL     1      10.455  12.330  18.048  0.00  0.00    +0.000 A 
ATOM     10  C   UNL     1      11.173  13.139  17.008  0.00  0.00    +0.000 C 
ATOM     11  C   UNL     1      10.403  12.789  19.369  0.00  0.00    +0.000 A 
ATOM     12  C   UNL     1       9.741  12.052  20.357  0.00  0.00    +0.000 A 
ATOM     13  C   UNL     1       9.678  12.544  21.773  0.00  0.00    +0.000 C 
ATOM     14  C   UNL     1       9.133  10.836  20.007  0.00  0.00    +0.000 A 
ENDBRANCH   4   7
BRANCH   1  15
ATOM     15  S   UNL     1       7.905   5.343  19.027  0.00  0.00    +0.000 S 
BRANCH  15  20
ATOM     16  C   UNL     1       4.433   3.971  17.882  0.00  0.00    +0.000 A 
ATOM     17  N   UNL     1       4.490   3.790  16.552  0.00  0.00    +0.000 NA
ATOM     18  C   UNL     1       5.651   4.103  15.955  0.00  0.00    +0.000 A 
ATOM     19  C   UNL     1       6.742   4.580  16.634  0.00  0.00    +0.000 A 
ATOM     20  C   UNL     1       6.581   4.744  17.995  0.00  0.00    +0.000 A 
ATOM     21  N   UNL     1       5.437   4.434  18.637  0.00  0.00    +0.000 NA
BRANCH  16  23
ATOM     22  C   UNL     1       1.805   4.687  17.798  0.00  0.00    +0.000 C 
ATOM     23  S   UNL     1       2.912   3.590  18.716  0.00  0.00    +0.000 S 
ENDBRANCH  16  23
ENDBRANCH  15  20
ENDBRANCH   1  15
TORSDOF 4
ENDMDL
