MODEL 1
REMARK VINA RESULT:      -8.7      0.000      0.000
REMARK  Name = 
REMARK  4 active torsions:
REMARK  status: ('A' for Active; 'I' for Inactive)
REMARK    1  A    between atoms: O_1  and  C_2
REMARK    2  A    between atoms: C_4  and  C_5
REMARK    3  A    between atoms: C_12  and  C_13
REMARK    4  A    between atoms: C_18  and  C_19
REMARK                            x       y       z     vdW  Elec       q    Type
REMARK                         _______ _______ _______ _____ _____    ______ ____
ROOT
ATOM      1  C   UNL     1       2.640   7.035  18.670  0.00  0.00    +0.000 A 
ATOM      2  C   UNL     1       2.677   5.660  18.801  0.00  0.00    +0.000 A 
ATOM      3  C   UNL     1       3.558   5.170  17.809  0.00  0.00    +0.000 A 
ATOM      4  C   UNL     1       4.012   3.901  17.421  0.00  0.00    +0.000 A 
ATOM      5  C   UNL     1       4.909   3.815  16.349  0.00  0.00    +0.000 A 
ATOM      6  C   UNL     1       5.352   4.964  15.674  0.00  0.00    +0.000 A 
ATOM      7  C   UNL     1       4.907   6.239  16.053  0.00  0.00    +0.000 A 
ATOM      8  C   UNL     1       4.016   6.287  17.124  0.00  0.00    +0.000 A 
ATOM      9  O   UNL     1       3.468   7.420  17.650  0.00  0.00    +0.000 OA
ENDROOT
BRANCH   1  15
ATOM     10  C   UNL     1       1.473   9.255  18.744  0.00  0.00    +0.000 A 
ATOM     11  C   UNL     1       0.731  10.220  19.432  0.00  0.00    +0.000 A 
ATOM     12  C   UNL     1       0.440  10.040  20.787  0.00  0.00    +0.000 A 
ATOM     13  C   UNL     1       0.922   8.910  21.453  0.00  0.00    +0.000 A 
ATOM     14  C   UNL     1       1.673   7.955  20.761  0.00  0.00    +0.000 A 
ATOM     15  C   UNL     1       1.943   8.097  19.391  0.00  0.00    +0.000 A 
BRANCH  12  16
ATOM     16  C   UNL     1      -0.430  11.022  21.485  0.00  0.00    +0.000 C 
ATOM     17  N   UNL     1      -0.388  11.169  22.786  0.00  0.00    +0.000 NA
ATOM     18  C   UNL     1      -1.403  12.212  23.093  0.00  0.00    +0.000 C 
ATOM     19  C   UNL     1      -2.017  12.652  21.764  0.00  0.00    +0.000 C 
ATOM     20  N   UNL     1      -1.303  11.838  20.808  0.00  0.00    +0.000 N 
ATOM     21  H   UNL     1      -1.860  11.408  20.080  0.00  0.00    +0.000 HD
ENDBRANCH  12  16
BRANCH  10  22
ATOM     22  O   UNL     1       1.734   9.454  17.413  0.00  0.00    +0.000 OA
ATOM     23  H   UNL     1       2.006  10.378  17.277  0.00  0.00    +0.000 HD
ENDBRANCH  10  22
ENDBRANCH   1  15
BRANCH   6  24
ATOM     24  C   UNL     1       6.289   4.800  14.530  0.00  0.00    +0.000 C 
ATOM     25  N   UNL     1       7.391   5.503  14.453  0.00  0.00    +0.000 NA
ATOM     26  C   UNL     1       8.024   5.109  13.171  0.00  0.00    +0.000 C 
ATOM     27  C   UNL     1       7.123   4.052  12.531  0.00  0.00    +0.000 C 
ATOM     28  N   UNL     1       6.062   3.918  13.503  0.00  0.00    +0.000 N 
ATOM     29  H   UNL     1       5.118   3.877  13.137  0.00  0.00    +0.000 HD
ENDBRANCH   6  24
TORSDOF 4
ENDMDL
MODEL 2
REMARK VINA RESULT:      -8.3      1.676      2.457
REMARK  Name = 
REMARK  4 active torsions:
REMARK  status: ('A' for Active; 'I' for Inactive)
REMARK    1  A    between atoms: O_1  and  C_2
REMARK    2  A    between atoms: C_4  and  C_5
REMARK    3  A    between atoms: C_12  and  C_13
REMARK    4  A    between atoms: C_18  and  C_19
REMARK                            x       y       z     vdW  Elec       q    Type
REMARK                         _______ _______ _______ _____ _____    ______ ____
ROOT
ATOM      1  C   UNL     1       1.388   7.705  20.583  0.00  0.00    +0.000 A 
ATOM      2  C   UNL     1       1.428   6.358  20.886  0.00  0.00    +0.000 A 
ATOM      3  C   UNL     1       2.277   5.742  19.937  0.00  0.00    +0.000 A 
ATOM      4  C   UNL     1       2.718   4.431  19.699  0.00  0.00    +0.000 A 
ATOM      5  C   UNL     1       3.580   4.206  18.618  0.00  0.00    +0.000 A 
ATOM      6  C   UNL     1       4.002   5.258  17.789  0.00  0.00    +0.000 A 
ATOM      7  C   UNL     1       3.570   6.574  18.017  0.00  0.00    +0.000 A 
ATOM      8  C   UNL     1       2.714   6.760  19.101  0.00  0.00    +0.000 A 
ATOM      9  O   UNL     1       2.183   7.953  19.496  0.00  0.00    +0.000 OA
ENDROOT
BRANCH   1  15
ATOM     10  C   UNL     1       0.157   9.885  20.407  0.00  0.00    +0.000 A 
ATOM     11  C   UNL     1      -0.560  10.931  20.995  0.00  0.00    +0.000 A 
ATOM     12  C   UNL     1      -0.737  10.961  22.382  0.00  0.00    +0.000 A 
ATOM     13  C   UNL     1      -0.167   9.960  23.173  0.00  0.00    +0.000 A 
ATOM     14  C   UNL     1       0.559   8.923  22.578  0.00  0.00    +0.000 A 
ATOM     15  C   UNL     1       0.715   8.853  21.185  0.00  0.00    +0.000 A 
BRANCH  12  16
ATOM     16  C   UNL     1      -1.582  12.023  22.988  0.00  0.00    +0.000 C 
ATOM     17  N   UNL     1      -1.092  13.202  23.280  0.00  0.00    +0.000 NA
ATOM     18  C   UNL     1      -2.225  13.958  23.876  0.00  0.00    +0.000 C 
ATOM     19  C   UNL     1      -3.444  13.034  23.861  0.00  0.00    +0.000 C 
ATOM     20  N   UNL     1      -2.916  11.835  23.253  0.00  0.00    +0.000 N 
ATOM     21  H   UNL     1      -3.176  10.958  23.689  0.00  0.00    +0.000 HD
ENDBRANCH  12  16
BRANCH  10  22
ATOM     22  O   UNL     1       0.306   9.876  19.044  0.00  0.00    +0.000 OA
ATOM     23  H   UNL     1       0.444  10.787  18.734  0.00  0.00    +0.000 HD
ENDBRANCH  10  22
ENDBRANCH   1  15
BRANCH   6  24
ATOM     24  C   UNL     1       4.902   4.946  16.647  0.00  0.00    +0.000 C 
ATOM     25  N   UNL     1       5.216   5.862  15.765  0.00  0.00    +0.000 NA
ATOM     26  C   UNL     1       6.070   5.174  14.766  0.00  0.00    +0.000 C 
ATOM     27  C   UNL     1       6.215   3.722  15.222  0.00  0.00    +0.000 C 
ATOM     28  N   UNL     1       5.449   3.703  16.448  0.00  0.00    +0.000 N 
ATOM     29  H   UNL     1       4.836   2.908  16.585  0.00  0.00    +0.000 HD
ENDBRANCH   6  24
TORSDOF 4
ENDMDL
MODEL 3
REMARK VINA RESULT:      -8.0      1.718      2.637
REMARK  Name = 
REMARK  4 active torsions:
REMARK  status: ('A' for Active; 'I' for Inactive)
REMARK    1  A    between atoms: O_1  and  C_2
REMARK    2  A    between atoms: C_4  and  C_5
REMARK    3  A    between atoms: C_12  and  C_13
REMARK    4  A    between atoms: C_18  and  C_19
REMARK                            x       y       z     vdW  Elec       q    Type
REMARK                         _______ _______ _______ _____ _____    ______ ____
ROOT
ATOM      1  C   UNL     1       1.304   7.759  20.619  0.00  0.00    +0.000 A 
ATOM      2  C   UNL     1       1.311   6.405  20.893  0.00  0.00    +0.000 A 
ATOM      3  C   UNL     1       2.198   5.798  19.975  0.00  0.00    +0.000 A 
ATOM      4  C   UNL     1       2.633   4.487  19.729  0.00  0.00    +0.000 A 
ATOM      5  C   UNL     1       3.545   4.272  18.688  0.00  0.00    +0.000 A 
ATOM      6  C   UNL     1       4.023   5.336  17.906  0.00  0.00    +0.000 A 
ATOM      7  C   UNL     1       3.598   6.653  18.141  0.00  0.00    +0.000 A 
ATOM      8  C   UNL     1       2.690   6.828  19.185  0.00  0.00    +0.000 A 
ATOM      9  O   UNL     1       2.157   8.020  19.579  0.00  0.00    +0.000 OA
ENDROOT
BRANCH   1  15
ATOM     10  C   UNL     1       0.069   9.935  20.428  0.00  0.00    +0.000 A 
ATOM     11  C   UNL     1      -0.661  10.977  21.006  0.00  0.00    +0.000 A 
ATOM     12  C   UNL     1      -0.862  11.004  22.389  0.00  0.00    +0.000 A 
ATOM     13  C   UNL     1      -0.301  10.004  23.187  0.00  0.00    +0.000 A 
ATOM     14  C   UNL     1       0.438   8.970  22.602  0.00  0.00    +0.000 A 
ATOM     15  C   UNL     1       0.617   8.904  21.212  0.00  0.00    +0.000 A 
BRANCH  12  16
ATOM     16  C   UNL     1      -1.720  12.061  22.984  0.00  0.00    +0.000 C 
ATOM     17  N   UNL     1      -2.955  11.816  23.345  0.00  0.00    +0.000 NA
ATOM     18  C   UNL     1      -3.472  13.110  23.865  0.00  0.00    +0.000 C 
ATOM     19  C   UNL     1      -2.335  14.127  23.763  0.00  0.00    +0.000 C 
ATOM     20  N   UNL     1      -1.262  13.337  23.205  0.00  0.00    +0.000 N 
ATOM     21  H   UNL     1      -0.729  13.767  22.459  0.00  0.00    +0.000 HD
ENDBRANCH  12  16
BRANCH  10  22
ATOM     22  O   UNL     1       0.240   9.930  19.067  0.00  0.00    +0.000 OA
ATOM     23  H   UNL     1       1.190   9.868  18.867  0.00  0.00    +0.000 HD
ENDBRANCH  10  22
ENDBRANCH   1  15
BRANCH   6  24
ATOM     24  C   UNL     1       4.975   5.036  16.803  0.00  0.00    +0.000 C 
ATOM     25  N   UNL     1       4.796   4.003  16.018  0.00  0.00    +0.000 NA
ATOM     26  C   UNL     1       5.956   4.002  15.094  0.00  0.00    +0.000 C 
ATOM     27  C   UNL     1       6.821   5.210  15.455  0.00  0.00    +0.000 C 
ATOM     28  N   UNL     1       6.079   5.809  16.542  0.00  0.00    +0.000 N 
ATOM     29  H   UNL     1       6.620   6.116  17.342  0.00  0.00    +0.000 HD
ENDBRANCH   6  24
TORSDOF 4
ENDMDL
MODEL 4
REMARK VINA RESULT:      -8.0      0.935      1.242
REMARK  Name = 
REMARK  4 active torsions:
REMARK  status: ('A' for Active; 'I' for Inactive)
REMARK    1  A    between atoms: O_1  and  C_2
REMARK    2  A    between atoms: C_4  and  C_5
REMARK    3  A    between atoms: C_12  and  C_13
REMARK    4  A    between atoms: C_18  and  C_19
REMARK                            x       y       z     vdW  Elec       q    Type
REMARK                         _______ _______ _______ _____ _____    ______ ____
ROOT
ATOM      1  C   UNL     1       2.253   7.307  19.394  0.00  0.00    +0.000 A 
ATOM      2  C   UNL     1       2.259   5.936  19.565  0.00  0.00    +0.000 A 
ATOM      3  C   UNL     1       3.090   5.392  18.559  0.00  0.00    +0.000 A 
ATOM      4  C   UNL     1       3.496   4.100  18.194  0.00  0.00    +0.000 A 
ATOM      5  C   UNL     1       4.350   3.957  17.093  0.00  0.00    +0.000 A 
ATOM      6  C   UNL     1       4.799   5.073  16.368  0.00  0.00    +0.000 A 
ATOM      7  C   UNL     1       4.402   6.371  16.722  0.00  0.00    +0.000 A 
ATOM      8  C   UNL     1       3.552   6.475  17.823  0.00  0.00    +0.000 A 
ATOM      9  O   UNL     1       3.054   7.638  18.333  0.00  0.00    +0.000 OA
ENDROOT
BRANCH   1  15
ATOM     10  C   UNL     1       1.106   9.538  19.435  0.00  0.00    +0.000 A 
ATOM     11  C   UNL     1       0.417  10.542  20.121  0.00  0.00    +0.000 A 
ATOM     12  C   UNL     1       0.215  10.431  21.500  0.00  0.00    +0.000 A 
ATOM     13  C   UNL     1       0.734   9.331  22.187  0.00  0.00    +0.000 A 
ATOM     14  C   UNL     1       1.433   8.336  21.495  0.00  0.00    +0.000 A 
ATOM     15  C   UNL     1       1.611   8.410  20.105  0.00  0.00    +0.000 A 
BRANCH  12  16
ATOM     16  C   UNL     1      -0.602  11.453  22.205  0.00  0.00    +0.000 C 
ATOM     17  N   UNL     1      -1.588  11.113  22.997  0.00  0.00    +0.000 NA
ATOM     18  C   UNL     1      -2.156  12.398  23.484  0.00  0.00    +0.000 C 
ATOM     19  C   UNL     1      -1.330  13.525  22.862  0.00  0.00    +0.000 C 
ATOM     20  N   UNL     1      -0.355  12.798  22.082  0.00  0.00    +0.000 N 
ATOM     21  H   UNL     1      -0.177  13.148  21.148  0.00  0.00    +0.000 HD
ENDBRANCH  12  16
BRANCH  10  22
ATOM     22  O   UNL     1       1.279   9.669  18.081  0.00  0.00    +0.000 OA
ATOM     23  H   UNL     1       2.029  10.265  17.913  0.00  0.00    +0.000 HD
ENDBRANCH  10  22
ENDBRANCH   1  15
BRANCH   6  24
ATOM     24  C   UNL     1       5.689   4.849  15.197  0.00  0.00    +0.000 C 
ATOM     25  N   UNL     1       5.386   3.967  14.277  0.00  0.00    +0.000 NA
ATOM     26  C   UNL     1       6.518   3.990  13.319  0.00  0.00    +0.000 C 
ATOM     27  C   UNL     1       7.510   5.040  13.819  0.00  0.00    +0.000 C 
ATOM     28  N   UNL     1       6.860   5.540  15.010  0.00  0.00    +0.000 N 
ATOM     29  H   UNL     1       7.448   5.669  15.824  0.00  0.00    +0.000 HD
ENDBRANCH   6  24
TORSDOF 4
ENDMDL
MODEL 5
REMARK VINA RESULT:      -8.0      0.994      1.478
REMARK  Name = 
REMARK  4 active torsions:
REMARK  status: ('A' for Active; 'I' for Inactive)
REMARK    1  A    between atoms: O_1  and  C_2
REMARK    2  A    between atoms: C_4  and  C_5
REMARK    3  A    between atoms: C_12  and  C_13
REMARK    4  A    between atoms: C_18  and  C_19
REMARK                            x       y       z     vdW  Elec       q    Type
REMARK                         _______ _______ _______ _____ _____    ______ ____
ROOT
ATOM      1  C   UNL     1       2.854   6.720  18.536  0.00  0.00    +0.000 A 
ATOM      2  C   UNL     1       3.060   5.366  18.716  0.00  0.00    +0.000 A 
ATOM      3  C   UNL     1       3.944   4.939  17.698  0.00  0.00    +0.000 A 
ATOM      4  C   UNL     1       4.526   3.715  17.334  0.00  0.00    +0.000 A 
ATOM      5  C   UNL     1       5.373   3.687  16.219  0.00  0.00    +0.000 A 
ATOM      6  C   UNL     1       5.644   4.850  15.478  0.00  0.00    +0.000 A 
ATOM      7  C   UNL     1       5.070   6.080  15.832  0.00  0.00    +0.000 A 
ATOM      8  C   UNL     1       4.233   6.070  16.947  0.00  0.00    +0.000 A 
ATOM      9  O   UNL     1       3.580   7.154  17.458  0.00  0.00    +0.000 OA
ENDROOT
BRANCH   1  15
ATOM     10  C   UNL     1       1.697   7.561  20.597  0.00  0.00    +0.000 A 
ATOM     11  C   UNL     1       1.025   8.570  21.292  0.00  0.00    +0.000 A 
ATOM     12  C   UNL     1       0.719   9.774  20.649  0.00  0.00    +0.000 A 
ATOM     13  C   UNL     1       1.060   9.944  19.305  0.00  0.00    +0.000 A 
ATOM     14  C   UNL     1       1.721   8.924  18.613  0.00  0.00    +0.000 A 
ATOM     15  C   UNL     1       2.072   7.724  19.252  0.00  0.00    +0.000 A 
BRANCH  12  16
ATOM     16  C   UNL     1       0.092  10.877  21.422  0.00  0.00    +0.000 C 
ATOM     17  N   UNL     1      -0.647  10.639  22.477  0.00  0.00    +0.000 NA
ATOM     18  C   UNL     1      -1.097  11.976  22.947  0.00  0.00    +0.000 C 
ATOM     19  C   UNL     1      -0.484  13.017  22.008  0.00  0.00    +0.000 C 
ATOM     20  N   UNL     1       0.270  12.197  21.088  0.00  0.00    +0.000 N 
ATOM     21  H   UNL     1       0.191  12.436  20.107  0.00  0.00    +0.000 HD
ENDBRANCH  12  16
BRANCH  10  22
ATOM     22  O   UNL     1       1.992   6.395  21.257  0.00  0.00    +0.000 OA
ATOM     23  H   UNL     1       2.861   6.483  21.684  0.00  0.00    +0.000 HD
ENDBRANCH  10  22
ENDBRANCH   1  15
BRANCH   6  24
ATOM     24  C   UNL     1       6.537   4.746  14.293  0.00  0.00    +0.000 C 
ATOM     25  N   UNL     1       7.598   5.506  14.178  0.00  0.00    +0.000 NA
ATOM     26  C   UNL     1       8.193   5.158  12.865  0.00  0.00    +0.000 C 
ATOM     27  C   UNL     1       7.320   4.065  12.250  0.00  0.00    +0.000 C 
ATOM     28  N   UNL     1       6.310   3.865  13.265  0.00  0.00    +0.000 N 
ATOM     29  H   UNL     1       5.354   3.780  12.940  0.00  0.00    +0.000 HD
ENDBRANCH   6  24
TORSDOF 4
ENDMDL
MODEL 6
REMARK VINA RESULT:      -7.9      1.652      9.934
REMARK  Name = 
REMARK  4 active torsions:
REMARK  status: ('A' for Active; 'I' for Inactive)
REMARK    1  A    between atoms: O_1  and  C_2
REMARK    2  A    between atoms: C_4  and  C_5
REMARK    3  A    between atoms: C_12  and  C_13
REMARK    4  A    between atoms: C_18  and  C_19
REMARK                            x       y       z     vdW  Elec       q    Type
REMARK                         _______ _______ _______ _____ _____    ______ ____
ROOT
ATOM      1  C   UNL     1       1.437   8.419  20.163  0.00  0.00    +0.000 A 
ATOM      2  C   UNL     1       1.226   8.311  21.524  0.00  0.00    +0.000 A 
ATOM      3  C   UNL     1       0.328   9.339  21.890  0.00  0.00    +0.000 A 
ATOM      4  C   UNL     1      -0.265   9.762  23.089  0.00  0.00    +0.000 A 
ATOM      5  C   UNL     1      -1.127  10.866  23.052  0.00  0.00    +0.000 A 
ATOM      6  C   UNL     1      -1.402  11.537  21.850  0.00  0.00    +0.000 A 
ATOM      7  C   UNL     1      -0.817  11.124  20.643  0.00  0.00    +0.000 A 
ATOM      8  C   UNL     1       0.035  10.023  20.718  0.00  0.00    +0.000 A 
ATOM      9  O   UNL     1       0.699   9.461  19.667  0.00  0.00    +0.000 OA
ENDROOT
BRANCH   1  15
ATOM     10  C   UNL     1       2.635   8.202  17.969  0.00  0.00    +0.000 A 
ATOM     11  C   UNL     1       3.470   7.493  17.101  0.00  0.00    +0.000 A 
ATOM     12  C   UNL     1       3.925   6.220  17.456  0.00  0.00    +0.000 A 
ATOM     13  C   UNL     1       3.513   5.653  18.665  0.00  0.00    +0.000 A 
ATOM     14  C   UNL     1       2.668   6.364  19.523  0.00  0.00    +0.000 A 
ATOM     15  C   UNL     1       2.233   7.659  19.202  0.00  0.00    +0.000 A 
BRANCH  12  16
ATOM     16  C   UNL     1       4.889   5.514  16.572  0.00  0.00    +0.000 C 
ATOM     17  N   UNL     1       5.659   6.169  15.739  0.00  0.00    +0.000 NA
ATOM     18  C   UNL     1       6.449   5.124  15.035  0.00  0.00    +0.000 C 
ATOM     19  C   UNL     1       6.026   3.772  15.611  0.00  0.00    +0.000 C 
ATOM     20  N   UNL     1       5.041   4.150  16.597  0.00  0.00    +0.000 N 
ATOM     21  H   UNL     1       4.193   3.596  16.620  0.00  0.00    +0.000 HD
ENDBRANCH  12  16
BRANCH  10  22
ATOM     22  O   UNL     1       2.213   9.453  17.597  0.00  0.00    +0.000 OA
ATOM     23  H   UNL     1       2.764  10.120  18.042  0.00  0.00    +0.000 HD
ENDBRANCH  10  22
ENDBRANCH   1  15
BRANCH   6  24
ATOM     24  C   UNL     1      -2.310  12.714  21.884  0.00  0.00    +0.000 C 
ATOM     25  N   UNL     1      -2.234  13.654  20.975  0.00  0.00    +0.000 NA
ATOM     26  C   UNL     1      -3.244  14.668  21.366  0.00  0.00    +0.000 C 
ATOM     27  C   UNL     1      -3.929  14.154  22.633  0.00  0.00    +0.000 C 
ATOM     28  N   UNL     1      -3.269  12.887  22.852  0.00  0.00    +0.000 N 
ATOM     29  H   UNL     1      -2.996  12.679  23.805  0.00  0.00    +0.000 HD
ENDBRANCH   6  24
TORSDOF 4
ENDMDL
MODEL 7
REMARK VINA RESULT:      -7.9      1.625      9.894
REMARK  Name = 
REMARK  4 active torsions:
REMARK  status: ('A' for Active; 'I' for Inactive)
REMARK    1  A    between atoms: O_1  and  C_2
REMARK    2  A    between atoms: C_4  and  C_5
REMARK    3  A    between atoms: C_12  and  C_13
REMARK    4  A    between atoms: C_18  and  C_19
REMARK                            x       y       z     vdW  Elec       q    Type
REMARK                         _______ _______ _______ _____ _____    ______ ____
ROOT
ATOM      1  C   UNL     1       1.457   8.383  20.186  0.00  0.00    +0.000 A 
ATOM      2  C   UNL     1       1.212   8.263  21.540  0.00  0.00    +0.000 A 
ATOM      3  C   UNL     1       0.336   9.313  21.900  0.00  0.00    +0.000 A 
ATOM      4  C   UNL     1      -0.272   9.737  23.092  0.00  0.00    +0.000 A 
ATOM      5  C   UNL     1      -1.099  10.866  23.051  0.00  0.00    +0.000 A 
ATOM      6  C   UNL     1      -1.326  11.562  21.852  0.00  0.00    +0.000 A 
ATOM      7  C   UNL     1      -0.726  11.148  20.653  0.00  0.00    +0.000 A 
ATOM      8  C   UNL     1       0.090  10.021  20.732  0.00  0.00    +0.000 A 
ATOM      9  O   UNL     1       0.762   9.453  19.688  0.00  0.00    +0.000 OA
ENDROOT
BRANCH   1  15
ATOM     10  C   UNL     1       2.654   8.143  17.993  0.00  0.00    +0.000 A 
ATOM     11  C   UNL     1       3.488   7.424  17.132  0.00  0.00    +0.000 A 
ATOM     12  C   UNL     1       3.943   6.155  17.502  0.00  0.00    +0.000 A 
ATOM     13  C   UNL     1       3.532   5.601  18.716  0.00  0.00    +0.000 A 
ATOM     14  C   UNL     1       2.688   6.321  19.567  0.00  0.00    +0.000 A 
ATOM     15  C   UNL     1       2.252   7.613  19.233  0.00  0.00    +0.000 A 
BRANCH  12  16
ATOM     16  C   UNL     1       4.906   5.439  16.625  0.00  0.00    +0.000 C 
ATOM     17  N   UNL     1       4.951   4.131  16.582  0.00  0.00    +0.000 NA
ATOM     18  C   UNL     1       6.038   3.809  15.620  0.00  0.00    +0.000 C 
ATOM     19  C   UNL     1       6.594   5.137  15.104  0.00  0.00    +0.000 C 
ATOM     20  N   UNL     1       5.780   6.105  15.801  0.00  0.00    +0.000 N 
ATOM     21  H   UNL     1       6.268   6.899  16.197  0.00  0.00    +0.000 HD
ENDBRANCH  12  16
BRANCH  10  22
ATOM     22  O   UNL     1       2.232   9.390  17.609  0.00  0.00    +0.000 OA
ATOM     23  H   UNL     1       1.909   9.348  16.693  0.00  0.00    +0.000 HD
ENDBRANCH  10  22
ENDBRANCH   1  15
BRANCH   6  24
ATOM     24  C   UNL     1      -2.200  12.765  21.882  0.00  0.00    +0.000 C 
ATOM     25  N   UNL     1      -2.203  13.572  22.914  0.00  0.00    +0.000 NA
ATOM     26  C   UNL     1      -3.221  14.606  22.605  0.00  0.00    +0.000 C 
ATOM     27  C   UNL     1      -3.790  14.279  21.224  0.00  0.00    +0.000 C 
ATOM     28  N   UNL     1      -3.042  13.100  20.851  0.00  0.00    +0.000 N 
ATOM     29  H   UNL     1      -3.571  12.345  20.430  0.00  0.00    +0.000 HD
ENDBRANCH   6  24
TORSDOF 4
ENDMDL
MODEL 8
REMARK VINA RESULT:      -7.9      1.639      9.852
REMARK  Name = 
REMARK  4 active torsions:
REMARK  status: ('A' for Active; 'I' for Inactive)
REMARK    1  A    between atoms: O_1  and  C_2
REMARK    2  A    between atoms: C_4  and  C_5
REMARK    3  A    between atoms: C_12  and  C_13
REMARK    4  A    between atoms: C_18  and  C_19
REMARK                            x       y       z     vdW  Elec       q    Type
REMARK                         _______ _______ _______ _____ _____    ______ ____
ROOT
ATOM      1  C   UNL     1       1.572   8.219  20.170  0.00  0.00    +0.000 A 
ATOM      2  C   UNL     1       0.887   7.859  21.314  0.00  0.00    +0.000 A 
ATOM      3  C   UNL     1       0.280   9.030  21.824  0.00  0.00    +0.000 A 
ATOM      4  C   UNL     1      -0.525   9.332  22.932  0.00  0.00    +0.000 A 
ATOM      5  C   UNL     1      -0.939  10.658  23.112  0.00  0.00    +0.000 A 
ATOM      6  C   UNL     1      -0.565  11.668  22.211  0.00  0.00    +0.000 A 
ATOM      7  C   UNL     1       0.239  11.380  21.097  0.00  0.00    +0.000 A 
ATOM      8  C   UNL     1       0.631  10.050  20.950  0.00  0.00    +0.000 A 
ATOM      9  O   UNL     1       1.407   9.560  19.941  0.00  0.00    +0.000 OA
ENDROOT
BRANCH   1  15
ATOM     10  C   UNL     1       2.694   8.006  17.935  0.00  0.00    +0.000 A 
ATOM     11  C   UNL     1       3.534   7.321  17.054  0.00  0.00    +0.000 A 
ATOM     12  C   UNL     1       4.078   6.089  17.426  0.00  0.00    +0.000 A 
ATOM     13  C   UNL     1       3.749   5.535  18.666  0.00  0.00    +0.000 A 
ATOM     14  C   UNL     1       2.898   6.221  19.538  0.00  0.00    +0.000 A 
ATOM     15  C   UNL     1       2.374   7.478  19.199  0.00  0.00    +0.000 A 
BRANCH  12  16
ATOM     16  C   UNL     1       5.047   5.413  16.523  0.00  0.00    +0.000 C 
ATOM     17  N   UNL     1       5.941   6.093  15.849  0.00  0.00    +0.000 NA
ATOM     18  C   UNL     1       6.691   5.077  15.063  0.00  0.00    +0.000 C 
ATOM     19  C   UNL     1       6.100   3.710  15.409  0.00  0.00    +0.000 C 
ATOM     20  N   UNL     1       5.072   4.050  16.365  0.00  0.00    +0.000 N 
ATOM     21  H   UNL     1       4.179   3.586  16.248  0.00  0.00    +0.000 HD
ENDBRANCH  12  16
BRANCH  10  22
ATOM     22  O   UNL     1       2.183   9.218  17.547  0.00  0.00    +0.000 OA
ATOM     23  H   UNL     1       2.868   9.900  17.652  0.00  0.00    +0.000 HD
ENDBRANCH  10  22
ENDBRANCH   1  15
BRANCH   6  24
ATOM     24  C   UNL     1      -1.022  13.059  22.472  0.00  0.00    +0.000 C 
ATOM     25  N   UNL     1      -0.187  13.976  22.894  0.00  0.00    +0.000 NA
ATOM     26  C   UNL     1      -1.006  15.198  23.090  0.00  0.00    +0.000 C 
ATOM     27  C   UNL     1      -2.440  14.846  22.694  0.00  0.00    +0.000 C 
ATOM     28  N   UNL     1      -2.321  13.463  22.291  0.00  0.00    +0.000 N 
ATOM     29  H   UNL     1      -3.044  12.834  22.620  0.00  0.00    +0.000 HD
ENDBRANCH   6  24
TORSDOF 4
ENDMDL
MODEL 9
REMARK VINA RESULT:      -7.8      1.614      9.861
REMARK  Name = 
REMARK  4 active torsions:
REMARK  status: ('A' for Active; 'I' for Inactive)
REMARK    1  A    between atoms: O_1  and  C_2
REMARK    2  A    between atoms: C_4  and  C_5
REMARK    3  A    between atoms: C_12  and  C_13
REMARK    4  A    between atoms: C_18  and  C_19
REMARK                            x       y       z     vdW  Elec       q    Type
REMARK                         _______ _______ _______ _____ _____    ______ ____
ROOT
ATOM      1  C   UNL     1       1.548   8.268  20.176  0.00  0.00    +0.000 A 
ATOM      2  C   UNL     1       0.917   7.944  21.362  0.00  0.00    +0.000 A 
ATOM      3  C   UNL     1       0.273   9.114  21.826  0.00  0.00    +0.000 A 
ATOM      4  C   UNL     1      -0.511   9.442  22.942  0.00  0.00    +0.000 A 
ATOM      5  C   UNL     1      -0.979  10.757  23.062  0.00  0.00    +0.000 A 
ATOM      6  C   UNL     1      -0.682  11.729  22.093  0.00  0.00    +0.000 A 
ATOM      7  C   UNL     1       0.100  11.414  20.971  0.00  0.00    +0.000 A 
ATOM      8  C   UNL     1       0.548  10.097  20.885  0.00  0.00    +0.000 A 
ATOM      9  O   UNL     1       1.313   9.584  19.879  0.00  0.00    +0.000 OA
ENDROOT
BRANCH   1  15
ATOM     10  C   UNL     1       2.683   8.016  17.952  0.00  0.00    +0.000 A 
ATOM     11  C   UNL     1       3.525   7.314  17.086  0.00  0.00    +0.000 A 
ATOM     12  C   UNL     1       4.061   6.084  17.481  0.00  0.00    +0.000 A 
ATOM     13  C   UNL     1       3.721   5.551  18.726  0.00  0.00    +0.000 A 
ATOM     14  C   UNL     1       2.868   6.254  19.582  0.00  0.00    +0.000 A 
ATOM     15  C   UNL     1       2.352   7.509  19.222  0.00  0.00    +0.000 A 
BRANCH  12  16
ATOM     16  C   UNL     1       5.032   5.391  16.594  0.00  0.00    +0.000 C 
ATOM     17  N   UNL     1       4.899   4.123  16.293  0.00  0.00    +0.000 NA
ATOM     18  C   UNL     1       6.058   3.807  15.418  0.00  0.00    +0.000 C 
ATOM     19  C   UNL     1       6.864   5.096  15.249  0.00  0.00    +0.000 C 
ATOM     20  N   UNL     1       6.100   6.042  16.028  0.00  0.00    +0.000 N 
ATOM     21  H   UNL     1       6.631   6.659  16.631  0.00  0.00    +0.000 HD
ENDBRANCH  12  16
BRANCH  10  22
ATOM     22  O   UNL     1       2.181   9.225  17.543  0.00  0.00    +0.000 OA
ATOM     23  H   UNL     1       1.212   9.212  17.629  0.00  0.00    +0.000 HD
ENDBRANCH  10  22
ENDBRANCH   1  15
BRANCH   6  24
ATOM     24  C   UNL     1      -1.193  13.112  22.292  0.00  0.00    +0.000 C 
ATOM     25  N   UNL     1      -1.641  13.818  21.284  0.00  0.00    +0.000 NA
ATOM     26  C   UNL     1      -2.006  15.137  21.856  0.00  0.00    +0.000 C 
ATOM     27  C   UNL     1      -1.718  15.073  23.356  0.00  0.00    +0.000 C 
ATOM     28  N   UNL     1      -1.229  13.723  23.521  0.00  0.00    +0.000 N 
ATOM     29  H   UNL     1      -0.414  13.607  24.111  0.00  0.00    +0.000 HD
ENDBRANCH   6  24
TORSDOF 4
ENDMDL
