MODEL 1
REMARK VINA RESULT:      -6.6      0.000      0.000
REMARK  Name = 
REMARK  9 active torsions:
REMARK  status: ('A' for Active; 'I' for Inactive)
REMARK    1  A    between atoms: C_1  and  C_2
REMARK    2  A    between atoms: C_5  and  C_6
REMARK    3  A    between atoms: C_6  and  N_7
REMARK    4  A    between atoms: N_7  and  C_8
REMARK    5  A    between atoms: N_7  and  C_9
REMARK    6  A    between atoms: C_9  and  C_10
REMARK    7  A    between atoms: N_13  and  C_14
REMARK    8  A    between atoms: N_13  and  C_15
REMARK    9  A    between atoms: C_17  and  C_18
REMARK                            x       y       z     vdW  Elec       q    Type
REMARK                         _______ _______ _______ _____ _____    ______ ____
ROOT
ATOM      1  C   UNL     1       4.799   5.917  18.425  0.00  0.00    +0.000 C 
ENDROOT
BRANCH   1   2
ATOM      2  C   UNL     1       5.702   5.686  17.253  0.00  0.00    +0.000 A 
ATOM      3  S   UNL     1       5.292   4.538  16.052  0.00  0.00    +0.000 S 
ATOM      4  C   UNL     1       6.626   5.049  15.071  0.00  0.00    +0.000 A 
ATOM      5  N   UNL     1       6.836   4.622  13.791  0.00  0.00    +0.000 N 
ATOM      6  C   UNL     1       7.929   5.188  13.018  0.00  0.00    +0.000 C 
ATOM      7  C   UNL     1       6.049   3.595  13.136  0.00  0.00    +0.000 C 
ATOM      8  N   UNL     1       7.409   5.913  15.687  0.00  0.00    +0.000 NA
ATOM      9  C   UNL     1       6.904   6.282  16.925  0.00  0.00    +0.000 A 
ATOM     10  C   UNL     1       7.649   7.286  17.728  0.00  0.00    +0.000 C 
ENDBRANCH   1   2
BRANCH   1  11
ATOM     11  N   UNL     1       3.452   6.379  18.022  0.00  0.00    +0.000 NA
ATOM     12  C   UNL     1       3.552   7.759  17.528  0.00  0.00    +0.000 C 
BRANCH  11  13
ATOM     13  C   UNL     1       2.503   6.302  19.164  0.00  0.00    +0.000 C 
BRANCH  13  18
ATOM     14  C   UNL     1       1.413   2.374  21.981  0.00  0.00    +0.000 C 
ATOM     15  C   UNL     1       1.540   3.102  20.694  0.00  0.00    +0.000 A 
ATOM     16  C   UNL     1       1.250   2.619  19.433  0.00  0.00    +0.000 A 
ATOM     17  S   UNL     1       1.553   3.821  18.253  0.00  0.00    +0.000 S 
ATOM     18  C   UNL     1       2.044   4.902  19.500  0.00  0.00    +0.000 A 
ATOM     19  N   UNL     1       2.001   4.409  20.721  0.00  0.00    +0.000 NA
ENDBRANCH  13  18
ENDBRANCH  11  13
ENDBRANCH   1  11
TORSDOF 4
ENDMDL
MODEL 2
REMARK VINA RESULT:      -6.2      0.950      1.265
REMARK  Name = 
REMARK  9 active torsions:
REMARK  status: ('A' for Active; 'I' for Inactive)
REMARK    1  A    between atoms: C_1  and  C_2
REMARK    2  A    between atoms: C_5  and  C_6
REMARK    3  A    between atoms: C_6  and  N_7
REMARK    4  A    between atoms: N_7  and  C_8
REMARK    5  A    between atoms: N_7  and  C_9
REMARK    6  A    between atoms: C_9  and  C_10
REMARK    7  A    between atoms: N_13  and  C_14
REMARK    8  A    between atoms: N_13  and  C_15
REMARK    9  A    between atoms: C_17  and  C_18
REMARK                            x       y       z     vdW  Elec       q    Type
REMARK                         _______ _______ _______ _____ _____    ______ ____
ROOT
ATOM      1  C   UNL     1       4.838   5.552  18.236  0.00  0.00    +0.000 C 
ENDROOT
BRANCH   1   2
ATOM      2  C   UNL     1       5.743   5.406  17.051  0.00  0.00    +0.000 A 
ATOM      3  S   UNL     1       5.358   4.312  15.792  0.00  0.00    +0.000 S 
ATOM      4  C   UNL     1       6.675   4.908  14.836  0.00  0.00    +0.000 A 
ATOM      5  N   UNL     1       6.890   4.554  13.536  0.00  0.00    +0.000 N 
ATOM      6  C   UNL     1       7.965   5.188  12.791  0.00  0.00    +0.000 C 
ATOM      7  C   UNL     1       6.128   3.542  12.830  0.00  0.00    +0.000 C 
ATOM      8  N   UNL     1       7.437   5.759  15.495  0.00  0.00    +0.000 NA
ATOM      9  C   UNL     1       6.927   6.050  16.752  0.00  0.00    +0.000 A 
ATOM     10  C   UNL     1       7.649   7.029  17.604  0.00  0.00    +0.000 C 
ENDBRANCH   1   2
BRANCH   1  11
ATOM     11  N   UNL     1       3.580   6.257  17.907  0.00  0.00    +0.000 NA
ATOM     12  C   UNL     1       3.906   7.601  17.410  0.00  0.00    +0.000 C 
BRANCH  11  13
ATOM     13  C   UNL     1       2.695   6.343  19.099  0.00  0.00    +0.000 C 
BRANCH  13  18
ATOM     14  C   UNL     1       0.509   1.909  18.756  0.00  0.00    +0.000 C 
ATOM     15  C   UNL     1       1.165   3.024  19.485  0.00  0.00    +0.000 A 
ATOM     16  C   UNL     1       1.420   3.095  20.840  0.00  0.00    +0.000 A 
ATOM     17  S   UNL     1       2.192   4.574  21.221  0.00  0.00    +0.000 S 
ATOM     18  C   UNL     1       2.138   5.015  19.558  0.00  0.00    +0.000 A 
ATOM     19  N   UNL     1       1.573   4.132  18.759  0.00  0.00    +0.000 NA
ENDBRANCH  13  18
ENDBRANCH  11  13
ENDBRANCH   1  11
TORSDOF 4
ENDMDL
MODEL 3
REMARK VINA RESULT:      -6.0      1.366      1.477
REMARK  Name = 
REMARK  9 active torsions:
REMARK  status: ('A' for Active; 'I' for Inactive)
REMARK    1  A    between atoms: C_1  and  C_2
REMARK    2  A    between atoms: C_5  and  C_6
REMARK    3  A    between atoms: C_6  and  N_7
REMARK    4  A    between atoms: N_7  and  C_8
REMARK    5  A    between atoms: N_7  and  C_9
REMARK    6  A    between atoms: C_9  and  C_10
REMARK    7  A    between atoms: N_13  and  C_14
REMARK    8  A    between atoms: N_13  and  C_15
REMARK    9  A    between atoms: C_17  and  C_18
REMARK                            x       y       z     vdW  Elec       q    Type
REMARK                         _______ _______ _______ _____ _____    ______ ____
ROOT
ATOM      1  C   UNL     1       4.574   5.878  18.242  0.00  0.00    +0.000 C 
ENDROOT
BRANCH   1   2
ATOM      2  C   UNL     1       5.542   5.659  17.120  0.00  0.00    +0.000 A 
ATOM      3  S   UNL     1       5.204   4.519  15.890  0.00  0.00    +0.000 S 
ATOM      4  C   UNL     1       6.587   5.042  14.987  0.00  0.00    +0.000 A 
ATOM      5  N   UNL     1       6.869   4.625  13.718  0.00  0.00    +0.000 N 
ATOM      6  C   UNL     1       7.999   5.202  13.010  0.00  0.00    +0.000 C 
ATOM      7  C   UNL     1       6.123   3.599  13.014  0.00  0.00    +0.000 C 
ATOM      8  N   UNL     1       7.331   5.905  15.651  0.00  0.00    +0.000 NA
ATOM      9  C   UNL     1       6.757   6.263  16.862  0.00  0.00    +0.000 A 
ATOM     10  C   UNL     1       7.452   7.264  17.712  0.00  0.00    +0.000 C 
ENDBRANCH   1   2
BRANCH   1  11
ATOM     11  N   UNL     1       3.208   6.179  17.763  0.00  0.00    +0.000 NA
ATOM     12  C   UNL     1       2.674   7.311  18.533  0.00  0.00    +0.000 C 
BRANCH  11  13
ATOM     13  C   UNL     1       2.324   4.992  17.904  0.00  0.00    +0.000 C 
BRANCH  13  18
ATOM     14  C   UNL     1       4.667   1.604  20.657  0.00  0.00    +0.000 C 
ATOM     15  C   UNL     1       3.620   2.623  20.397  0.00  0.00    +0.000 A 
ATOM     16  C   UNL     1       2.621   3.027  21.259  0.00  0.00    +0.000 A 
ATOM     17  S   UNL     1       1.648   4.226  20.520  0.00  0.00    +0.000 S 
ATOM     18  C   UNL     1       2.626   4.129  19.106  0.00  0.00    +0.000 A 
ATOM     19  N   UNL     1       3.611   3.255  19.163  0.00  0.00    +0.000 NA
ENDBRANCH  13  18
ENDBRANCH  11  13
ENDBRANCH   1  11
TORSDOF 4
ENDMDL
MODEL 4
REMARK VINA RESULT:      -6.0      1.328      6.656
REMARK  Name = 
REMARK  9 active torsions:
REMARK  status: ('A' for Active; 'I' for Inactive)
REMARK    1  A    between atoms: C_1  and  C_2
REMARK    2  A    between atoms: C_5  and  C_6
REMARK    3  A    between atoms: C_6  and  N_7
REMARK    4  A    between atoms: N_7  and  C_8
REMARK    5  A    between atoms: N_7  and  C_9
REMARK    6  A    between atoms: C_9  and  C_10
REMARK    7  A    between atoms: N_13  and  C_14
REMARK    8  A    between atoms: N_13  and  C_15
REMARK    9  A    between atoms: C_17  and  C_18
REMARK                            x       y       z     vdW  Elec       q    Type
REMARK                         _______ _______ _______ _____ _____    ______ ____
ROOT
ATOM      1  C   UNL     1       5.244   6.481  16.813  0.00  0.00    +0.000 C 
ENDROOT
BRANCH   1   2
ATOM      2  C   UNL     1       4.050   5.933  17.531  0.00  0.00    +0.000 A 
ATOM      3  S   UNL     1       3.871   4.247  17.760  0.00  0.00    +0.000 S 
ATOM      4  C   UNL     1       2.491   4.505  18.777  0.00  0.00    +0.000 A 
ATOM      5  N   UNL     1       1.878   3.516  19.490  0.00  0.00    +0.000 N 
ATOM      6  C   UNL     1       0.790   3.854  20.392  0.00  0.00    +0.000 C 
ATOM      7  C   UNL     1       2.217   2.109  19.389  0.00  0.00    +0.000 C 
ATOM      8  N   UNL     1       2.109   5.767  18.805  0.00  0.00    +0.000 NA
ATOM      9  C   UNL     1       2.977   6.589  18.102  0.00  0.00    +0.000 A 
ATOM     10  C   UNL     1       2.709   8.050  18.075  0.00  0.00    +0.000 C 
ENDBRANCH   1   2
BRANCH   1  11
ATOM     11  N   UNL     1       6.502   6.279  17.564  0.00  0.00    +0.000 NA
ATOM     12  C   UNL     1       7.347   7.471  17.405  0.00  0.00    +0.000 C 
BRANCH  11  13
ATOM     13  C   UNL     1       7.217   5.067  17.083  0.00  0.00    +0.000 C 
BRANCH  13  18
ATOM     14  C   UNL     1       8.032   5.596  12.225  0.00  0.00    +0.000 C 
ATOM     15  C   UNL     1       7.383   4.989  13.412  0.00  0.00    +0.000 A 
ATOM     16  C   UNL     1       6.435   3.985  13.419  0.00  0.00    +0.000 A 
ATOM     17  S   UNL     1       5.977   3.611  15.026  0.00  0.00    +0.000 S 
ATOM     18  C   UNL     1       7.075   4.807  15.601  0.00  0.00    +0.000 A 
ATOM     19  N   UNL     1       7.738   5.458  14.667  0.00  0.00    +0.000 NA
ENDBRANCH  13  18
ENDBRANCH  11  13
ENDBRANCH   1  11
TORSDOF 4
ENDMDL
MODEL 5
REMARK VINA RESULT:      -5.8      2.161      3.076
REMARK  Name = 
REMARK  9 active torsions:
REMARK  status: ('A' for Active; 'I' for Inactive)
REMARK    1  A    between atoms: C_1  and  C_2
REMARK    2  A    between atoms: C_5  and  C_6
REMARK    3  A    between atoms: C_6  and  N_7
REMARK    4  A    between atoms: N_7  and  C_8
REMARK    5  A    between atoms: N_7  and  C_9
REMARK    6  A    between atoms: C_9  and  C_10
REMARK    7  A    between atoms: N_13  and  C_14
REMARK    8  A    between atoms: N_13  and  C_15
REMARK    9  A    between atoms: C_17  and  C_18
REMARK                            x       y       z     vdW  Elec       q    Type
REMARK                         _______ _______ _______ _____ _____    ______ ____
ROOT
ATOM      1  C   UNL     1       5.037   4.864  18.719  0.00  0.00    +0.000 C 
ENDROOT
BRANCH   1   2
ATOM      2  C   UNL     1       5.871   4.954  17.477  0.00  0.00    +0.000 A 
ATOM      3  S   UNL     1       5.527   3.962  16.126  0.00  0.00    +0.000 S 
ATOM      4  C   UNL     1       6.701   4.808  15.173  0.00  0.00    +0.000 A 
ATOM      5  N   UNL     1       6.866   4.623  13.830  0.00  0.00    +0.000 N 
ATOM      6  C   UNL     1       7.810   5.456  13.104  0.00  0.00    +0.000 C 
ATOM      7  C   UNL     1       6.176   3.608  13.057  0.00  0.00    +0.000 C 
ATOM      8  N   UNL     1       7.406   5.669  15.881  0.00  0.00    +0.000 NA
ATOM      9  C   UNL     1       6.952   5.762  17.188  0.00  0.00    +0.000 A 
ATOM     10  C   UNL     1       7.616   6.724  18.105  0.00  0.00    +0.000 C 
ENDBRANCH   1   2
BRANCH   1  11
ATOM     11  N   UNL     1       3.634   5.276  18.492  0.00  0.00    +0.000 NA
ATOM     12  C   UNL     1       2.983   4.286  17.625  0.00  0.00    +0.000 C 
BRANCH  11  13
ATOM     13  C   UNL     1       3.573   6.628  17.876  0.00  0.00    +0.000 C 
BRANCH  13  18
ATOM     14  C   UNL     1       0.836   8.519  21.548  0.00  0.00    +0.000 C 
ATOM     15  C   UNL     1       1.400   8.498  20.176  0.00  0.00    +0.000 A 
ATOM     16  C   UNL     1       1.182   9.421  19.173  0.00  0.00    +0.000 A 
ATOM     17  S   UNL     1       2.042   8.980  17.761  0.00  0.00    +0.000 S 
ATOM     18  C   UNL     1       2.650   7.593  18.582  0.00  0.00    +0.000 A 
ATOM     19  N   UNL     1       2.237   7.450  19.825  0.00  0.00    +0.000 NA
ENDBRANCH  13  18
ENDBRANCH  11  13
ENDBRANCH   1  11
TORSDOF 4
ENDMDL
MODEL 6
REMARK VINA RESULT:      -5.8      1.155      1.383
REMARK  Name = 
REMARK  9 active torsions:
REMARK  status: ('A' for Active; 'I' for Inactive)
REMARK    1  A    between atoms: C_1  and  C_2
REMARK    2  A    between atoms: C_5  and  C_6
REMARK    3  A    between atoms: C_6  and  N_7
REMARK    4  A    between atoms: N_7  and  C_8
REMARK    5  A    between atoms: N_7  and  C_9
REMARK    6  A    between atoms: C_9  and  C_10
REMARK    7  A    between atoms: N_13  and  C_14
REMARK    8  A    between atoms: N_13  and  C_15
REMARK    9  A    between atoms: C_17  and  C_18
REMARK                            x       y       z     vdW  Elec       q    Type
REMARK                         _______ _______ _______ _____ _____    ______ ____
ROOT
ATOM      1  C   UNL     1       4.790   6.375  18.507  0.00  0.00    +0.000 C 
ENDROOT
BRANCH   1   2
ATOM      2  C   UNL     1       5.683   6.020  17.359  0.00  0.00    +0.000 A 
ATOM      3  S   UNL     1       5.187   4.867  16.196  0.00  0.00    +0.000 S 
ATOM      4  C   UNL     1       6.572   5.219  15.216  0.00  0.00    +0.000 A 
ATOM      5  N   UNL     1       6.758   4.725  13.957  0.00  0.00    +0.000 N 
ATOM      6  C   UNL     1       7.905   5.163  13.180  0.00  0.00    +0.000 C 
ATOM      7  C   UNL     1       5.891   3.746  13.330  0.00  0.00    +0.000 C 
ATOM      8  N   UNL     1       7.421   6.035  15.811  0.00  0.00    +0.000 NA
ATOM      9  C   UNL     1       6.936   6.495  17.026  0.00  0.00    +0.000 A 
ATOM     10  C   UNL     1       7.758   7.460  17.801  0.00  0.00    +0.000 C 
ENDBRANCH   1   2
BRANCH   1  11
ATOM     11  N   UNL     1       3.355   6.299  18.157  0.00  0.00    +0.000 NA
ATOM     12  C   UNL     1       2.857   7.657  17.899  0.00  0.00    +0.000 C 
BRANCH  11  13
ATOM     13  C   UNL     1       2.577   5.658  19.250  0.00  0.00    +0.000 C 
BRANCH  13  18
ATOM     14  C   UNL     1       3.930   0.917  18.762  0.00  0.00    +0.000 C 
ATOM     15  C   UNL     1       2.945   2.020  18.882  0.00  0.00    +0.000 A 
ATOM     16  C   UNL     1       1.569   1.909  18.884  0.00  0.00    +0.000 A 
ATOM     17  S   UNL     1       0.849   3.453  19.045  0.00  0.00    +0.000 S 
ATOM     18  C   UNL     1       2.417   4.162  19.106  0.00  0.00    +0.000 A 
ATOM     19  N   UNL     1       3.422   3.316  19.003  0.00  0.00    +0.000 NA
ENDBRANCH  13  18
ENDBRANCH  11  13
ENDBRANCH   1  11
TORSDOF 4
ENDMDL
MODEL 7
REMARK VINA RESULT:      -5.7      2.144      6.775
REMARK  Name = 
REMARK  9 active torsions:
REMARK  status: ('A' for Active; 'I' for Inactive)
REMARK    1  A    between atoms: C_1  and  C_2
REMARK    2  A    between atoms: C_5  and  C_6
REMARK    3  A    between atoms: C_6  and  N_7
REMARK    4  A    between atoms: N_7  and  C_8
REMARK    5  A    between atoms: N_7  and  C_9
REMARK    6  A    between atoms: C_9  and  C_10
REMARK    7  A    between atoms: N_13  and  C_14
REMARK    8  A    between atoms: N_13  and  C_15
REMARK    9  A    between atoms: C_17  and  C_18
REMARK                            x       y       z     vdW  Elec       q    Type
REMARK                         _______ _______ _______ _____ _____    ______ ____
ROOT
ATOM      1  C   UNL     1       2.244   3.255  18.065  0.00  0.00    +0.000 C 
ENDROOT
BRANCH   1   2
ATOM      2  C   UNL     1       2.166   4.463  18.948  0.00  0.00    +0.000 A 
ATOM      3  S   UNL     1       2.310   6.034  18.286  0.00  0.00    +0.000 S 
ATOM      4  C   UNL     1       1.904   6.744  19.814  0.00  0.00    +0.000 A 
ATOM      5  N   UNL     1       1.672   8.077  19.995  0.00  0.00    +0.000 N 
ATOM      6  C   UNL     1       1.239   8.557  21.296  0.00  0.00    +0.000 C 
ATOM      7  C   UNL     1       1.859   9.083  18.967  0.00  0.00    +0.000 C 
ATOM      8  N   UNL     1       1.823   5.853  20.783  0.00  0.00    +0.000 NA
ATOM      9  C   UNL     1       1.972   4.557  20.312  0.00  0.00    +0.000 A 
ATOM     10  C   UNL     1       1.862   3.432  21.276  0.00  0.00    +0.000 C 
ENDBRANCH   1   2
BRANCH   1  11
ATOM     11  N   UNL     1       3.602   2.670  18.021  0.00  0.00    +0.000 NA
ATOM     12  C   UNL     1       3.566   1.340  18.643  0.00  0.00    +0.000 C 
BRANCH  11  13
ATOM     13  C   UNL     1       4.578   3.546  18.722  0.00  0.00    +0.000 C 
BRANCH  13  18
ATOM     14  C   UNL     1       6.825   4.809  14.491  0.00  0.00    +0.000 C 
ATOM     15  C   UNL     1       6.583   4.894  15.953  0.00  0.00    +0.000 A 
ATOM     16  C   UNL     1       7.225   5.717  16.856  0.00  0.00    +0.000 A 
ATOM     17  S   UNL     1       6.611   5.462  18.433  0.00  0.00    +0.000 S 
ATOM     18  C   UNL     1       5.529   4.279  17.805  0.00  0.00    +0.000 A 
ATOM     19  N   UNL     1       5.617   4.068  16.507  0.00  0.00    +0.000 NA
ENDBRANCH  13  18
ENDBRANCH  11  13
ENDBRANCH   1  11
TORSDOF 4
ENDMDL
MODEL 8
REMARK VINA RESULT:      -5.7      1.296      1.663
REMARK  Name = 
REMARK  9 active torsions:
REMARK  status: ('A' for Active; 'I' for Inactive)
REMARK    1  A    between atoms: C_1  and  C_2
REMARK    2  A    between atoms: C_5  and  C_6
REMARK    3  A    between atoms: C_6  and  N_7
REMARK    4  A    between atoms: N_7  and  C_8
REMARK    5  A    between atoms: N_7  and  C_9
REMARK    6  A    between atoms: C_9  and  C_10
REMARK    7  A    between atoms: N_13  and  C_14
REMARK    8  A    between atoms: N_13  and  C_15
REMARK    9  A    between atoms: C_17  and  C_18
REMARK                            x       y       z     vdW  Elec       q    Type
REMARK                         _______ _______ _______ _____ _____    ______ ____
ROOT
ATOM      1  C   UNL     1       4.827   5.900  18.092  0.00  0.00    +0.000 C 
ENDROOT
BRANCH   1   2
ATOM      2  C   UNL     1       5.712   5.645  16.911  0.00  0.00    +0.000 A 
ATOM      3  S   UNL     1       5.288   4.468  15.744  0.00  0.00    +0.000 S 
ATOM      4  C   UNL     1       6.604   4.961  14.729  0.00  0.00    +0.000 A 
ATOM      5  N   UNL     1       6.794   4.504  13.457  0.00  0.00    +0.000 N 
ATOM      6  C   UNL     1       7.871   5.057  12.653  0.00  0.00    +0.000 C 
ATOM      7  C   UNL     1       6.002   3.458  12.840  0.00  0.00    +0.000 C 
ATOM      8  N   UNL     1       7.392   5.843  15.312  0.00  0.00    +0.000 NA
ATOM      9  C   UNL     1       6.905   6.239  16.548  0.00  0.00    +0.000 A 
ATOM     10  C   UNL     1       7.658   7.266  17.315  0.00  0.00    +0.000 C 
ENDBRANCH   1   2
BRANCH   1  11
ATOM     11  N   UNL     1       5.196   5.081  19.266  0.00  0.00    +0.000 NA
ATOM     12  C   UNL     1       6.602   5.342  19.605  0.00  0.00    +0.000 C 
BRANCH  11  13
ATOM     13  C   UNL     1       4.988   3.635  18.990  0.00  0.00    +0.000 C 
BRANCH  13  18
ATOM     14  C   UNL     1       1.107   2.519  21.860  0.00  0.00    +0.000 C 
ATOM     15  C   UNL     1       1.839   2.591  20.572  0.00  0.00    +0.000 A 
ATOM     16  C   UNL     1       1.391   2.170  19.336  0.00  0.00    +0.000 A 
ATOM     17  S   UNL     1       2.584   2.455  18.143  0.00  0.00    +0.000 S 
ATOM     18  C   UNL     1       3.613   3.123  19.351  0.00  0.00    +0.000 A 
ATOM     19  N   UNL     1       3.117   3.130  20.572  0.00  0.00    +0.000 NA
ENDBRANCH  13  18
ENDBRANCH  11  13
ENDBRANCH   1  11
TORSDOF 4
ENDMDL
MODEL 9
REMARK VINA RESULT:      -5.6      2.212      6.697
REMARK  Name = 
REMARK  9 active torsions:
REMARK  status: ('A' for Active; 'I' for Inactive)
REMARK    1  A    between atoms: C_1  and  C_2
REMARK    2  A    between atoms: C_5  and  C_6
REMARK    3  A    between atoms: C_6  and  N_7
REMARK    4  A    between atoms: N_7  and  C_8
REMARK    5  A    between atoms: N_7  and  C_9
REMARK    6  A    between atoms: C_9  and  C_10
REMARK    7  A    between atoms: N_13  and  C_14
REMARK    8  A    between atoms: N_13  and  C_15
REMARK    9  A    between atoms: C_17  and  C_18
REMARK                            x       y       z     vdW  Elec       q    Type
REMARK                         _______ _______ _______ _____ _____    ______ ____
ROOT
ATOM      1  C   UNL     1       2.253   3.165  18.371  0.00  0.00    +0.000 C 
ENDROOT
BRANCH   1   2
ATOM      2  C   UNL     1       2.183   4.415  19.193  0.00  0.00    +0.000 A 
ATOM      3  S   UNL     1       2.228   5.953  18.443  0.00  0.00    +0.000 S 
ATOM      4  C   UNL     1       1.888   6.729  19.955  0.00  0.00    +0.000 A 
ATOM      5  N   UNL     1       1.617   8.061  20.080  0.00  0.00    +0.000 N 
ATOM      6  C   UNL     1       1.245   8.596  21.380  0.00  0.00    +0.000 C 
ATOM      7  C   UNL     1       1.705   9.017  18.993  0.00  0.00    +0.000 C 
ATOM      8  N   UNL     1       1.899   5.890  20.972  0.00  0.00    +0.000 NA
ATOM      9  C   UNL     1       2.068   4.576  20.560  0.00  0.00    +0.000 A 
ATOM     10  C   UNL     1       2.058   3.501  21.586  0.00  0.00    +0.000 C 
ENDBRANCH   1   2
BRANCH   1  11
ATOM     11  N   UNL     1       3.632   2.842  17.945  0.00  0.00    +0.000 NA
ATOM     12  C   UNL     1       3.848   1.397  18.093  0.00  0.00    +0.000 C 
BRANCH  11  13
ATOM     13  C   UNL     1       4.626   3.602  18.749  0.00  0.00    +0.000 C 
BRANCH  13  18
ATOM     14  C   UNL     1       7.700   7.355  17.740  0.00  0.00    +0.000 C 
ATOM     15  C   UNL     1       6.928   6.132  17.405  0.00  0.00    +0.000 A 
ATOM     16  C   UNL     1       6.878   5.488  16.185  0.00  0.00    +0.000 A 
ATOM     17  S   UNL     1       5.853   4.121  16.277  0.00  0.00    +0.000 S 
ATOM     18  C   UNL     1       5.549   4.477  17.934  0.00  0.00    +0.000 A 
ATOM     19  N   UNL     1       6.157   5.550  18.399  0.00  0.00    +0.000 NA
ENDBRANCH  13  18
ENDBRANCH  11  13
ENDBRANCH   1  11
TORSDOF 4
ENDMDL
