MODEL 1
REMARK VINA RESULT:      -7.1      0.000      0.000
REMARK  Name = 
REMARK  8 active torsions:
REMARK  status: ('A' for Active; 'I' for Inactive)
REMARK    1  A    between atoms: C_1  and  C_2
REMARK    2  A    between atoms: C_5  and  S_6
REMARK    3  A    between atoms: S_6  and  C_8
REMARK    4  A    between atoms: C_9  and  C_10
REMARK    5  A    between atoms: C_17  and  N_18
REMARK    6  A    between atoms: C_19  and  C_20
REMARK    7  A    between atoms: C_22  and  C_23
REMARK    8  A    between atoms: C_26  and  N_27
REMARK                            x       y       z     vdW  Elec       q    Type
REMARK                         _______ _______ _______ _____ _____    ______ ____
ROOT
ATOM      1  C   UNL     1      -0.600  13.319  22.519  0.00  0.00    +0.000 C 
ATOM      2  C   UNL     1       0.345  14.081  21.917  0.00  0.00    +0.000 C 
ATOM      3  O   UNL     1       0.483  15.421  22.163  0.00  0.00    +0.000 OA
ATOM      4  C   UNL     1      -0.628  16.158  22.445  0.00  0.00    +0.000 C 
ATOM      5  C   UNL     1      -1.585  15.617  23.215  0.00  0.00    +0.000 C 
ATOM      6  C   UNL     1      -1.624  14.066  23.437  0.00  0.00    +0.000 C 
ENDROOT
BRANCH   2   7
ATOM      7  C   UNL     1       1.253  13.807  20.796  0.00  0.00    +0.000 A 
ATOM      8  C   UNL     1       0.805  14.223  19.537  0.00  0.00    +0.000 A 
ATOM      9  C   UNL     1       1.745  14.530  18.562  0.00  0.00    +0.000 A 
ATOM     10  C   UNL     1       3.094  14.418  18.867  0.00  0.00    +0.000 A 
ATOM     11  C   UNL     1       3.449  13.987  20.138  0.00  0.00    +0.000 A 
ATOM     12  N   UNL     1       2.563  13.677  21.109  0.00  0.00    +0.000 NA
ENDBRANCH   2   7
BRANCH   6  13
ATOM     13  C   UNL     1      -3.081  13.529  23.450  0.00  0.00    +0.000 A 
ATOM     14  C   UNL     1      -4.047  13.818  22.462  0.00  0.00    +0.000 A 
ATOM     15  C   UNL     1      -5.398  13.433  22.626  0.00  0.00    +0.000 A 
ATOM     16  C   UNL     1      -5.798  12.752  23.785  0.00  0.00    +0.000 A 
ATOM     17  C   UNL     1      -4.842  12.392  24.737  0.00  0.00    +0.000 A 
ATOM     18  C   UNL     1      -3.501  12.773  24.563  0.00  0.00    +0.000 A 
BRANCH  16  19
ATOM     19  N   UNL     1      -7.218  12.455  24.031  0.00  0.00    +0.000 N 
ATOM     20  O   UNL     1      -7.646  11.342  23.695  0.00  0.00    +0.000 OA
ATOM     21  O   UNL     1      -7.914  13.347  24.541  0.00  0.00    +0.000 OA
ENDBRANCH  16  19
ENDBRANCH   6  13
BRANCH   4  22
ATOM     22  N   UNL     1      -0.538  17.424  21.910  0.00  0.00    +0.000 N 
ATOM     23  H   UNL     1      -0.942  18.062  22.606  0.00  0.00    +0.000 HD
ATOM     24  H   UNL     1      -1.191  17.517  21.131  0.00  0.00    +0.000 HD
ENDBRANCH   4  22
BRANCH   1  25
ATOM     25  S   UNL     1      -0.665  11.652  21.888  0.00  0.00    +0.000 S 
ATOM     26  O   UNL     1       0.782  11.059  21.908  0.00  0.00    +0.000 OA
BRANCH  25  31
ATOM     27  C   UNL     1      -2.519  10.673  16.103  0.00  0.00    +0.000 C 
ATOM     28  C   UNL     1      -2.184  10.879  17.556  0.00  0.00    +0.000 A 
ATOM     29  C   UNL     1      -1.100  10.208  18.112  0.00  0.00    +0.000 A 
ATOM     30  C   UNL     1      -0.693  10.489  19.422  0.00  0.00    +0.000 A 
ATOM     31  C   UNL     1      -1.336  11.454  20.224  0.00  0.00    +0.000 A 
ATOM     32  C   UNL     1      -2.471  12.073  19.693  0.00  0.00    +0.000 A 
ATOM     33  C   UNL     1      -2.878  11.797  18.363  0.00  0.00    +0.000 A 
ENDBRANCH  25  31
ENDBRANCH   1  25
BRANCH   5  34
ATOM     34  C   UNL     1      -2.378  16.529  23.996  0.00  0.00    +0.000 C 
ATOM     35  N   UNL     1      -2.984  17.365  24.502  0.00  0.00    +0.000 NA
ENDBRANCH   5  34
TORSDOF 7
ENDMDL
MODEL 2
REMARK VINA RESULT:      -6.8      8.337     12.952
REMARK  Name = 
REMARK  8 active torsions:
REMARK  status: ('A' for Active; 'I' for Inactive)
REMARK    1  A    between atoms: C_1  and  C_2
REMARK    2  A    between atoms: C_5  and  S_6
REMARK    3  A    between atoms: S_6  and  C_8
REMARK    4  A    between atoms: C_9  and  C_10
REMARK    5  A    between atoms: C_17  and  N_18
REMARK    6  A    between atoms: C_19  and  C_20
REMARK    7  A    between atoms: C_22  and  C_23
REMARK    8  A    between atoms: C_26  and  N_27
REMARK                            x       y       z     vdW  Elec       q    Type
REMARK                         _______ _______ _______ _____ _____    ______ ____
ROOT
ATOM      1  C   UNL     1       5.327   4.396  17.854  0.00  0.00    +0.000 C 
ATOM      2  C   UNL     1       4.502   3.629  17.102  0.00  0.00    +0.000 C 
ATOM      3  O   UNL     1       4.782   3.292  15.805  0.00  0.00    +0.000 OA
ATOM      4  C   UNL     1       5.468   4.174  15.026  0.00  0.00    +0.000 C 
ATOM      5  C   UNL     1       6.472   4.877  15.575  0.00  0.00    +0.000 C 
ATOM      6  C   UNL     1       6.584   4.990  17.134  0.00  0.00    +0.000 C 
ENDROOT
BRANCH   2   7
ATOM      7  C   UNL     1       3.126   3.165  17.325  0.00  0.00    +0.000 A 
ATOM      8  C   UNL     1       2.999   1.928  17.967  0.00  0.00    +0.000 A 
ATOM      9  C   UNL     1       1.851   1.673  18.704  0.00  0.00    +0.000 A 
ATOM     10  C   UNL     1       0.870   2.652  18.783  0.00  0.00    +0.000 A 
ATOM     11  C   UNL     1       1.073   3.846  18.104  0.00  0.00    +0.000 A 
ATOM     12  N   UNL     1       2.176   4.126  17.376  0.00  0.00    +0.000 NA
ENDBRANCH   2   7
BRANCH   6  13
ATOM     13  C   UNL     1       7.041   6.409  17.570  0.00  0.00    +0.000 A 
ATOM     14  C   UNL     1       6.630   7.607  16.948  0.00  0.00    +0.000 A 
ATOM     15  C   UNL     1       7.216   8.847  17.291  0.00  0.00    +0.000 A 
ATOM     16  C   UNL     1       8.225   8.901  18.263  0.00  0.00    +0.000 A 
ATOM     17  C   UNL     1       8.591   7.737  18.942  0.00  0.00    +0.000 A 
ATOM     18  C   UNL     1       7.999   6.510  18.600  0.00  0.00    +0.000 A 
BRANCH  16  19
ATOM     19  N   UNL     1       8.934  10.160  18.543  0.00  0.00    +0.000 N 
ATOM     20  O   UNL     1       9.682  10.199  19.530  0.00  0.00    +0.000 OA
ATOM     21  O   UNL     1       8.723  11.121  17.788  0.00  0.00    +0.000 OA
ENDBRANCH  16  19
ENDBRANCH   6  13
BRANCH   4  22
ATOM     22  N   UNL     1       5.024   4.142  13.722  0.00  0.00    +0.000 N 
ATOM     23  H   UNL     1       4.275   4.843  13.655  0.00  0.00    +0.000 HD
ATOM     24  H   UNL     1       4.517   3.273  13.551  0.00  0.00    +0.000 HD
ENDBRANCH   4  22
BRANCH   1  25
ATOM     25  S   UNL     1       4.638   4.822  19.443  0.00  0.00    +0.000 S 
ATOM     26  O   UNL     1       3.945   3.552  20.037  0.00  0.00    +0.000 OA
BRANCH  25  31
ATOM     27  C   UNL     1       0.823   9.634  19.052  0.00  0.00    +0.000 C 
ATOM     28  C   UNL     1       1.651   8.382  19.160  0.00  0.00    +0.000 A 
ATOM     29  C   UNL     1       2.570   8.080  18.160  0.00  0.00    +0.000 A 
ATOM     30  C   UNL     1       3.443   6.994  18.309  0.00  0.00    +0.000 A 
ATOM     31  C   UNL     1       3.446   6.177  19.458  0.00  0.00    +0.000 A 
ATOM     32  C   UNL     1       2.472   6.434  20.427  0.00  0.00    +0.000 A 
ATOM     33  C   UNL     1       1.596   7.539  20.283  0.00  0.00    +0.000 A 
ENDBRANCH  25  31
ENDBRANCH   1  25
BRANCH   5  34
ATOM     34  C   UNL     1       7.534   5.282  14.693  0.00  0.00    +0.000 C 
ATOM     35  N   UNL     1       8.291   5.547  13.869  0.00  0.00    +0.000 NA
ENDBRANCH   5  34
TORSDOF 7
ENDMDL
MODEL 3
REMARK VINA RESULT:      -6.6      0.529      1.061
REMARK  Name = 
REMARK  8 active torsions:
REMARK  status: ('A' for Active; 'I' for Inactive)
REMARK    1  A    between atoms: C_1  and  C_2
REMARK    2  A    between atoms: C_5  and  S_6
REMARK    3  A    between atoms: S_6  and  C_8
REMARK    4  A    between atoms: C_9  and  C_10
REMARK    5  A    between atoms: C_17  and  N_18
REMARK    6  A    between atoms: C_19  and  C_20
REMARK    7  A    between atoms: C_22  and  C_23
REMARK    8  A    between atoms: C_26  and  N_27
REMARK                            x       y       z     vdW  Elec       q    Type
REMARK                         _______ _______ _______ _____ _____    ______ ____
ROOT
ATOM      1  C   UNL     1      -0.809  13.484  22.664  0.00  0.00    +0.000 C 
ATOM      2  C   UNL     1       0.199  14.159  22.061  0.00  0.00    +0.000 C 
ATOM      3  O   UNL     1       0.420  15.495  22.264  0.00  0.00    +0.000 OA
ATOM      4  C   UNL     1      -0.645  16.314  22.491  0.00  0.00    +0.000 C 
ATOM      5  C   UNL     1      -1.655  15.865  23.254  0.00  0.00    +0.000 C 
ATOM      6  C   UNL     1      -1.803  14.330  23.529  0.00  0.00    +0.000 C 
ENDROOT
BRANCH   2   7
ATOM      7  C   UNL     1       1.114  13.785  20.975  0.00  0.00    +0.000 A 
ATOM      8  C   UNL     1       0.681  14.101  19.682  0.00  0.00    +0.000 A 
ATOM      9  C   UNL     1       1.631  14.318  18.694  0.00  0.00    +0.000 A 
ATOM     10  C   UNL     1       2.977  14.218  19.020  0.00  0.00    +0.000 A 
ATOM     11  C   UNL     1       3.317  13.888  20.326  0.00  0.00    +0.000 A 
ATOM     12  N   UNL     1       2.419  13.668  21.310  0.00  0.00    +0.000 NA
ENDBRANCH   2   7
BRANCH   6  13
ATOM     13  C   UNL     1      -3.293  13.891  23.521  0.00  0.00    +0.000 A 
ATOM     14  C   UNL     1      -3.896  13.095  24.519  0.00  0.00    +0.000 A 
ATOM     15  C   UNL     1      -5.210  12.597  24.361  0.00  0.00    +0.000 A 
ATOM     16  C   UNL     1      -5.936  12.890  23.198  0.00  0.00    +0.000 A 
ATOM     17  C   UNL     1      -5.384  13.738  22.235  0.00  0.00    +0.000 A 
ATOM     18  C   UNL     1      -4.080  14.233  22.404  0.00  0.00    +0.000 A 
BRANCH  16  19
ATOM     19  N   UNL     1      -7.254  12.279  22.959  0.00  0.00    +0.000 N 
ATOM     20  O   UNL     1      -7.916  11.922  23.943  0.00  0.00    +0.000 OA
ATOM     21  O   UNL     1      -7.616  12.132  21.782  0.00  0.00    +0.000 OA
ENDBRANCH  16  19
ENDBRANCH   6  13
BRANCH   4  22
ATOM     22  N   UNL     1      -0.458  17.551  21.914  0.00  0.00    +0.000 N 
ATOM     23  H   UNL     1       0.421  17.920  22.299  0.00  0.00    +0.000 HD
ATOM     24  H   UNL     1      -1.144  18.211  22.282  0.00  0.00    +0.000 HD
ENDBRANCH   4  22
BRANCH   1  25
ATOM     25  S   UNL     1      -0.970  11.803  22.090  0.00  0.00    +0.000 S 
ATOM     26  O   UNL     1       0.419  11.097  22.232  0.00  0.00    +0.000 OA
BRANCH  25  31
ATOM     27  C   UNL     1      -2.481  10.784  16.213  0.00  0.00    +0.000 C 
ATOM     28  C   UNL     1      -2.232  10.998  17.682  0.00  0.00    +0.000 A 
ATOM     29  C   UNL     1      -1.168  10.348  18.299  0.00  0.00    +0.000 A 
ATOM     30  C   UNL     1      -0.839  10.638  19.629  0.00  0.00    +0.000 A 
ATOM     31  C   UNL     1      -1.544  11.591  20.392  0.00  0.00    +0.000 A 
ATOM     32  C   UNL     1      -2.659  12.188  19.797  0.00  0.00    +0.000 A 
ATOM     33  C   UNL     1      -2.986  11.903  18.448  0.00  0.00    +0.000 A 
ENDBRANCH  25  31
ENDBRANCH   1  25
BRANCH   5  34
ATOM     34  C   UNL     1      -2.404  16.855  23.981  0.00  0.00    +0.000 C 
ATOM     35  N   UNL     1      -2.943  17.578  24.696  0.00  0.00    +0.000 NA
ENDBRANCH   5  34
TORSDOF 7
ENDMDL
MODEL 4
REMARK VINA RESULT:      -6.5      3.936      6.622
REMARK  Name = 
REMARK  8 active torsions:
REMARK  status: ('A' for Active; 'I' for Inactive)
REMARK    1  A    between atoms: C_1  and  C_2
REMARK    2  A    between atoms: C_5  and  S_6
REMARK    3  A    between atoms: S_6  and  C_8
REMARK    4  A    between atoms: C_9  and  C_10
REMARK    5  A    between atoms: C_17  and  N_18
REMARK    6  A    between atoms: C_19  and  C_20
REMARK    7  A    between atoms: C_22  and  C_23
REMARK    8  A    between atoms: C_26  and  N_27
REMARK                            x       y       z     vdW  Elec       q    Type
REMARK                         _______ _______ _______ _____ _____    ______ ____
ROOT
ATOM      1  C   UNL     1      -2.369  12.107  20.058  0.00  0.00    +0.000 C 
ATOM      2  C   UNL     1      -2.694  12.944  21.073  0.00  0.00    +0.000 C 
ATOM      3  O   UNL     1      -3.972  13.068  21.549  0.00  0.00    +0.000 OA
ATOM      4  C   UNL     1      -5.016  12.924  20.686  0.00  0.00    +0.000 C 
ATOM      5  C   UNL     1      -4.940  11.983  19.731  0.00  0.00    +0.000 C 
ATOM      6  C   UNL     1      -3.552  11.358  19.359  0.00  0.00    +0.000 C 
ENDROOT
BRANCH   2   7
ATOM      7  C   UNL     1      -1.935  14.006  21.746  0.00  0.00    +0.000 A 
ATOM      8  C   UNL     1      -2.315  15.316  21.432  0.00  0.00    +0.000 A 
ATOM      9  C   UNL     1      -2.092  16.318  22.366  0.00  0.00    +0.000 A 
ATOM     10  C   UNL     1      -1.505  15.988  23.580  0.00  0.00    +0.000 A 
ATOM     11  C   UNL     1      -1.148  14.665  23.804  0.00  0.00    +0.000 A 
ATOM     12  N   UNL     1      -1.348  13.666  22.916  0.00  0.00    +0.000 NA
ENDBRANCH   2   7
BRANCH   6  13
ATOM     13  C   UNL     1      -3.428  11.118  17.830  0.00  0.00    +0.000 A 
ATOM     14  C   UNL     1      -4.125  11.852  16.846  0.00  0.00    +0.000 A 
ATOM     15  C   UNL     1      -4.091  11.468  15.486  0.00  0.00    +0.000 A 
ATOM     16  C   UNL     1      -3.357  10.340  15.094  0.00  0.00    +0.000 A 
ATOM     17  C   UNL     1      -2.601   9.646  16.041  0.00  0.00    +0.000 A 
ATOM     18  C   UNL     1      -2.636  10.039  17.389  0.00  0.00    +0.000 A 
BRANCH  16  19
ATOM     19  N   UNL     1      -3.411   9.852  13.706  0.00  0.00    +0.000 N 
ATOM     20  O   UNL     1      -4.525   9.693  13.189  0.00  0.00    +0.000 OA
ATOM     21  O   UNL     1      -2.336   9.602  13.140  0.00  0.00    +0.000 OA
ENDBRANCH  16  19
ENDBRANCH   6  13
BRANCH   4  22
ATOM     22  N   UNL     1      -6.049  13.779  21.002  0.00  0.00    +0.000 N 
ATOM     23  H   UNL     1      -6.509  14.016  20.115  0.00  0.00    +0.000 HD
ATOM     24  H   UNL     1      -5.673  14.681  21.295  0.00  0.00    +0.000 HD
ENDBRANCH   4  22
BRANCH   1  25
ATOM     25  S   UNL     1      -0.674  12.271  19.528  0.00  0.00    +0.000 S 
ATOM     26  O   UNL     1      -0.660  12.971  18.129  0.00  0.00    +0.000 OA
BRANCH  25  31
ATOM     27  C   UNL     1       2.620   7.160  18.585  0.00  0.00    +0.000 C 
ATOM     28  C   UNL     1       1.893   8.435  18.915  0.00  0.00    +0.000 A 
ATOM     29  C   UNL     1       1.734   9.409  17.934  0.00  0.00    +0.000 A 
ATOM     30  C   UNL     1       0.946  10.539  18.182  0.00  0.00    +0.000 A 
ATOM     31  C   UNL     1       0.276  10.741  19.406  0.00  0.00    +0.000 A 
ATOM     32  C   UNL     1       0.497   9.803  20.418  0.00  0.00    +0.000 A 
ATOM     33  C   UNL     1       1.285   8.652  20.164  0.00  0.00    +0.000 A 
ENDBRANCH  25  31
ENDBRANCH   1  25
BRANCH   5  34
ATOM     34  C   UNL     1      -6.185  11.424  19.276  0.00  0.00    +0.000 C 
ATOM     35  N   UNL     1      -7.145  11.042  18.769  0.00  0.00    +0.000 NA
ENDBRANCH   5  34
TORSDOF 7
ENDMDL
MODEL 5
REMARK VINA RESULT:      -6.5      3.802      6.269
REMARK  Name = 
REMARK  8 active torsions:
REMARK  status: ('A' for Active; 'I' for Inactive)
REMARK    1  A    between atoms: C_1  and  C_2
REMARK    2  A    between atoms: C_5  and  S_6
REMARK    3  A    between atoms: S_6  and  C_8
REMARK    4  A    between atoms: C_9  and  C_10
REMARK    5  A    between atoms: C_17  and  N_18
REMARK    6  A    between atoms: C_19  and  C_20
REMARK    7  A    between atoms: C_22  and  C_23
REMARK    8  A    between atoms: C_26  and  N_27
REMARK                            x       y       z     vdW  Elec       q    Type
REMARK                         _______ _______ _______ _____ _____    ______ ____
ROOT
ATOM      1  C   UNL     1      -2.131  12.600  20.021  0.00  0.00    +0.000 C 
ATOM      2  C   UNL     1      -2.322  13.673  20.825  0.00  0.00    +0.000 C 
ATOM      3  O   UNL     1      -3.528  13.955  21.409  0.00  0.00    +0.000 OA
ATOM      4  C   UNL     1      -4.675  13.635  20.746  0.00  0.00    +0.000 C 
ATOM      5  C   UNL     1      -4.724  12.484  20.056  0.00  0.00    +0.000 C 
ATOM      6  C   UNL     1      -3.396  11.741  19.683  0.00  0.00    +0.000 C 
ENDROOT
BRANCH   2   7
ATOM      7  C   UNL     1      -1.482  14.844  21.111  0.00  0.00    +0.000 A 
ATOM      8  C   UNL     1      -1.877  16.039  20.498  0.00  0.00    +0.000 A 
ATOM      9  C   UNL     1      -1.542  17.242  21.105  0.00  0.00    +0.000 A 
ATOM     10  C   UNL     1      -0.832  17.220  22.297  0.00  0.00    +0.000 A 
ATOM     11  C   UNL     1      -0.469  15.989  22.828  0.00  0.00    +0.000 A 
ATOM     12  N   UNL     1      -0.776  14.801  22.264  0.00  0.00    +0.000 NA
ENDBRANCH   2   7
BRANCH   6  13
ATOM     13  C   UNL     1      -3.469  11.124  18.260  0.00  0.00    +0.000 A 
ATOM     14  C   UNL     1      -2.692  10.030  17.823  0.00  0.00    +0.000 A 
ATOM     15  C   UNL     1      -2.691   9.630  16.466  0.00  0.00    +0.000 A 
ATOM     16  C   UNL     1      -3.471  10.323  15.530  0.00  0.00    +0.000 A 
ATOM     17  C   UNL     1      -4.303  11.360  15.958  0.00  0.00    +0.000 A 
ATOM     18  C   UNL     1      -4.303  11.746  17.309  0.00  0.00    +0.000 A 
BRANCH  16  19
ATOM     19  N   UNL     1      -3.387  10.003  14.096  0.00  0.00    +0.000 N 
ATOM     20  O   UNL     1      -4.441   9.965  13.447  0.00  0.00    +0.000 OA
ATOM     21  O   UNL     1      -2.265   9.766  13.623  0.00  0.00    +0.000 OA
ENDBRANCH  16  19
ENDBRANCH   6  13
BRANCH   4  22
ATOM     22  N   UNL     1      -5.658  14.576  20.964  0.00  0.00    +0.000 N 
ATOM     23  H   UNL     1      -5.327  15.446  20.529  0.00  0.00    +0.000 HD
ATOM     24  H   UNL     1      -5.682  14.828  21.952  0.00  0.00    +0.000 HD
ENDBRANCH   4  22
BRANCH   1  25
ATOM     25  S   UNL     1      -0.518  12.571  19.260  0.00  0.00    +0.000 S 
ATOM     26  O   UNL     1      -0.661  13.057  17.780  0.00  0.00    +0.000 OA
BRANCH  25  31
ATOM     27  C   UNL     1       2.496   7.234  18.718  0.00  0.00    +0.000 C 
ATOM     28  C   UNL     1       1.828   8.561  18.957  0.00  0.00    +0.000 A 
ATOM     29  C   UNL     1       1.833   9.522  17.951  0.00  0.00    +0.000 A 
ATOM     30  C   UNL     1       1.103  10.708  18.105  0.00  0.00    +0.000 A 
ATOM     31  C   UNL     1       0.332  10.979  19.254  0.00  0.00    +0.000 A 
ATOM     32  C   UNL     1       0.389  10.049  20.295  0.00  0.00    +0.000 A 
ATOM     33  C   UNL     1       1.118   8.843  20.137  0.00  0.00    +0.000 A 
ENDBRANCH  25  31
ENDBRANCH   1  25
BRANCH   5  34
ATOM     34  C   UNL     1      -6.017  11.872  19.915  0.00  0.00    +0.000 C 
ATOM     35  N   UNL     1      -6.976  11.268  19.716  0.00  0.00    +0.000 NA
ENDBRANCH   5  34
TORSDOF 7
ENDMDL
MODEL 6
REMARK VINA RESULT:      -6.4      7.378     11.422
REMARK  Name = 
REMARK  8 active torsions:
REMARK  status: ('A' for Active; 'I' for Inactive)
REMARK    1  A    between atoms: C_1  and  C_2
REMARK    2  A    between atoms: C_5  and  S_6
REMARK    3  A    between atoms: S_6  and  C_8
REMARK    4  A    between atoms: C_9  and  C_10
REMARK    5  A    between atoms: C_17  and  N_18
REMARK    6  A    between atoms: C_19  and  C_20
REMARK    7  A    between atoms: C_22  and  C_23
REMARK    8  A    between atoms: C_26  and  N_27
REMARK                            x       y       z     vdW  Elec       q    Type
REMARK                         _______ _______ _______ _____ _____    ______ ____
ROOT
ATOM      1  C   UNL     1       6.473  13.881  22.451  0.00  0.00    +0.000 C 
ATOM      2  C   UNL     1       5.616  13.943  23.498  0.00  0.00    +0.000 C 
ATOM      3  O   UNL     1       4.343  14.434  23.384  0.00  0.00    +0.000 OA
ATOM      4  C   UNL     1       4.098  15.439  22.498  0.00  0.00    +0.000 C 
ATOM      5  C   UNL     1       4.721  15.418  21.308  0.00  0.00    +0.000 C 
ATOM      6  C   UNL     1       5.983  14.512  21.104  0.00  0.00    +0.000 C 
ENDROOT
BRANCH   2   7
ATOM      7  C   UNL     1       5.817  13.744  24.939  0.00  0.00    +0.000 A 
ATOM      8  C   UNL     1       5.828  14.907  25.717  0.00  0.00    +0.000 A 
ATOM      9  C   UNL     1       5.450  14.823  27.050  0.00  0.00    +0.000 A 
ATOM     10  C   UNL     1       5.072  13.591  27.566  0.00  0.00    +0.000 A 
ATOM     11  C   UNL     1       5.103  12.485  26.726  0.00  0.00    +0.000 A 
ATOM     12  N   UNL     1       5.467  12.531  25.426  0.00  0.00    +0.000 NA
ENDBRANCH   2   7
BRANCH   6  13
ATOM     13  C   UNL     1       7.053  15.217  20.226  0.00  0.00    +0.000 A 
ATOM     14  C   UNL     1       7.481  14.754  18.963  0.00  0.00    +0.000 A 
ATOM     15  C   UNL     1       8.576  15.352  18.297  0.00  0.00    +0.000 A 
ATOM     16  C   UNL     1       9.257  16.423  18.891  0.00  0.00    +0.000 A 
ATOM     17  C   UNL     1       8.801  16.942  20.105  0.00  0.00    +0.000 A 
ATOM     18  C   UNL     1       7.709  16.346  20.756  0.00  0.00    +0.000 A 
BRANCH  16  19
ATOM     19  N   UNL     1      10.474  16.976  18.275  0.00  0.00    +0.000 N 
ATOM     20  O   UNL     1      10.971  17.992  18.780  0.00  0.00    +0.000 OA
ATOM     21  O   UNL     1      10.920  16.406  17.268  0.00  0.00    +0.000 OA
ENDBRANCH  16  19
ENDBRANCH   6  13
BRANCH   4  22
ATOM     22  N   UNL     1       3.156  16.318  22.984  0.00  0.00    +0.000 N 
ATOM     23  H   UNL     1       2.341  16.242  22.362  0.00  0.00    +0.000 HD
ATOM     24  H   UNL     1       3.460  17.278  22.820  0.00  0.00    +0.000 HD
ENDBRANCH   4  22
BRANCH   1  25
ATOM     25  S   UNL     1       8.115  13.362  22.916  0.00  0.00    +0.000 S 
ATOM     26  O   UNL     1       8.848  14.575  23.577  0.00  0.00    +0.000 OA
BRANCH  25  31
ATOM     27  C   UNL     1      11.888  11.687  18.353  0.00  0.00    +0.000 C 
ATOM     28  C   UNL     1      11.004  11.991  19.532  0.00  0.00    +0.000 A 
ATOM     29  C   UNL     1      11.112  13.222  20.171  0.00  0.00    +0.000 A 
ATOM     30  C   UNL     1      10.207  13.574  21.181  0.00  0.00    +0.000 A 
ATOM     31  C   UNL     1       9.157  12.726  21.586  0.00  0.00    +0.000 A 
ATOM     32  C   UNL     1       9.096  11.459  20.998  0.00  0.00    +0.000 A 
ATOM     33  C   UNL     1      10.003  11.106  19.968  0.00  0.00    +0.000 A 
ENDBRANCH  25  31
ENDBRANCH   1  25
BRANCH   5  34
ATOM     34  C   UNL     1       4.037  16.048  20.211  0.00  0.00    +0.000 C 
ATOM     35  N   UNL     1       3.555  16.436  19.241  0.00  0.00    +0.000 NA
ENDBRANCH   5  34
TORSDOF 7
ENDMDL
MODEL 7
REMARK VINA RESULT:      -6.4      3.754      6.063
REMARK  Name = 
REMARK  8 active torsions:
REMARK  status: ('A' for Active; 'I' for Inactive)
REMARK    1  A    between atoms: C_1  and  C_2
REMARK    2  A    between atoms: C_5  and  S_6
REMARK    3  A    between atoms: S_6  and  C_8
REMARK    4  A    between atoms: C_9  and  C_10
REMARK    5  A    between atoms: C_17  and  N_18
REMARK    6  A    between atoms: C_19  and  C_20
REMARK    7  A    between atoms: C_22  and  C_23
REMARK    8  A    between atoms: C_26  and  N_27
REMARK                            x       y       z     vdW  Elec       q    Type
REMARK                         _______ _______ _______ _____ _____    ______ ____
ROOT
ATOM      1  C   UNL     1      -1.831  12.627  20.037  0.00  0.00    +0.000 C 
ATOM      2  C   UNL     1      -1.947  13.716  20.834  0.00  0.00    +0.000 C 
ATOM      3  O   UNL     1      -3.117  14.056  21.457  0.00  0.00    +0.000 OA
ATOM      4  C   UNL     1      -4.300  13.777  20.840  0.00  0.00    +0.000 C 
ATOM      5  C   UNL     1      -4.422  12.621  20.168  0.00  0.00    +0.000 C 
ATOM      6  C   UNL     1      -3.141  11.818  19.758  0.00  0.00    +0.000 C 
ENDROOT
BRANCH   2   7
ATOM      7  C   UNL     1      -1.048  14.853  21.072  0.00  0.00    +0.000 A 
ATOM      8  C   UNL     1      -0.052  14.648  22.034  0.00  0.00    +0.000 A 
ATOM      9  C   UNL     1       1.128  15.372  21.939  0.00  0.00    +0.000 A 
ATOM     10  C   UNL     1       1.284  16.272  20.894  0.00  0.00    +0.000 A 
ATOM     11  C   UNL     1       0.239  16.422  19.990  0.00  0.00    +0.000 A 
ATOM     12  N   UNL     1      -0.922  15.736  20.055  0.00  0.00    +0.000 NA
ENDBRANCH   2   7
BRANCH   6  13
ATOM     13  C   UNL     1      -3.293  11.187  18.347  0.00  0.00    +0.000 A 
ATOM     14  C   UNL     1      -2.601  10.038  17.907  0.00  0.00    +0.000 A 
ATOM     15  C   UNL     1      -2.662   9.620  16.557  0.00  0.00    +0.000 A 
ATOM     16  C   UNL     1      -3.420  10.350  15.631  0.00  0.00    +0.000 A 
ATOM     17  C   UNL     1      -4.171  11.445  16.064  0.00  0.00    +0.000 A 
ATOM     18  C   UNL     1      -4.109  11.850  17.408  0.00  0.00    +0.000 A 
BRANCH  16  19
ATOM     19  N   UNL     1      -3.395  10.006  14.200  0.00  0.00    +0.000 N 
ATOM     20  O   UNL     1      -4.476   9.937  13.600  0.00  0.00    +0.000 OA
ATOM     21  O   UNL     1      -2.292   9.779  13.680  0.00  0.00    +0.000 OA
ENDBRANCH  16  19
ENDBRANCH   6  13
BRANCH   4  22
ATOM     22  N   UNL     1      -5.234  14.761  21.080  0.00  0.00    +0.000 N 
ATOM     23  H   UNL     1      -4.750  15.496  21.611  0.00  0.00    +0.000 HD
ATOM     24  H   UNL     1      -5.921  14.428  21.757  0.00  0.00    +0.000 HD
ENDBRANCH   4  22
BRANCH   1  25
ATOM     25  S   UNL     1      -0.249  12.520  19.219  0.00  0.00    +0.000 S 
ATOM     26  O   UNL     1      -0.426  12.993  17.739  0.00  0.00    +0.000 OA
BRANCH  25  31
ATOM     27  C   UNL     1       2.341   6.959  19.705  0.00  0.00    +0.000 C 
ATOM     28  C   UNL     1       1.636   8.271  19.489  0.00  0.00    +0.000 A 
ATOM     29  C   UNL     1       0.982   8.882  20.555  0.00  0.00    +0.000 A 
ATOM     30  C   UNL     1       0.438  10.164  20.407  0.00  0.00    +0.000 A 
ATOM     31  C   UNL     1       0.533  10.893  19.204  0.00  0.00    +0.000 A 
ATOM     32  C   UNL     1       1.123  10.250  18.112  0.00  0.00    +0.000 A 
ATOM     33  C   UNL     1       1.684   8.957  18.263  0.00  0.00    +0.000 A 
ENDBRANCH  25  31
ENDBRANCH   1  25
BRANCH   5  34
ATOM     34  C   UNL     1      -5.745  12.063  20.082  0.00  0.00    +0.000 C 
ATOM     35  N   UNL     1      -6.831  11.690  20.153  0.00  0.00    +0.000 NA
ENDBRANCH   5  34
TORSDOF 7
ENDMDL
MODEL 8
REMARK VINA RESULT:      -6.3      3.921      6.563
REMARK  Name = 
REMARK  8 active torsions:
REMARK  status: ('A' for Active; 'I' for Inactive)
REMARK    1  A    between atoms: C_1  and  C_2
REMARK    2  A    between atoms: C_5  and  S_6
REMARK    3  A    between atoms: S_6  and  C_8
REMARK    4  A    between atoms: C_9  and  C_10
REMARK    5  A    between atoms: C_17  and  N_18
REMARK    6  A    between atoms: C_19  and  C_20
REMARK    7  A    between atoms: C_22  and  C_23
REMARK    8  A    between atoms: C_26  and  N_27
REMARK                            x       y       z     vdW  Elec       q    Type
REMARK                         _______ _______ _______ _____ _____    ______ ____
ROOT
ATOM      1  C   UNL     1      -2.244  12.149  20.049  0.00  0.00    +0.000 C 
ATOM      2  C   UNL     1      -2.532  13.003  21.060  0.00  0.00    +0.000 C 
ATOM      3  O   UNL     1      -3.797  13.159  21.559  0.00  0.00    +0.000 OA
ATOM      4  C   UNL     1      -4.860  13.029  20.717  0.00  0.00    +0.000 C 
ATOM      5  C   UNL     1      -4.823  12.076  19.771  0.00  0.00    +0.000 C 
ATOM      6  C   UNL     1      -3.455  11.418  19.380  0.00  0.00    +0.000 C 
ENDROOT
BRANCH   2   7
ATOM      7  C   UNL     1      -1.737  14.056  21.707  0.00  0.00    +0.000 A 
ATOM      8  C   UNL     1      -1.979  15.360  21.260  0.00  0.00    +0.000 A 
ATOM      9  C   UNL     1      -1.743  16.417  22.128  0.00  0.00    +0.000 A 
ATOM     10  C   UNL     1      -1.279  16.148  23.408  0.00  0.00    +0.000 A 
ATOM     11  C   UNL     1      -1.055  14.824  23.764  0.00  0.00    +0.000 A 
ATOM     12  N   UNL     1      -1.271  13.772  22.945  0.00  0.00    +0.000 NA
ENDBRANCH   2   7
BRANCH   6  13
ATOM     13  C   UNL     1      -3.366  11.159  17.851  0.00  0.00    +0.000 A 
ATOM     14  C   UNL     1      -4.100  11.868  16.876  0.00  0.00    +0.000 A 
ATOM     15  C   UNL     1      -4.093  11.466  15.520  0.00  0.00    +0.000 A 
ATOM     16  C   UNL     1      -3.350  10.346  15.125  0.00  0.00    +0.000 A 
ATOM     17  C   UNL     1      -2.558   9.678  16.061  0.00  0.00    +0.000 A 
ATOM     18  C   UNL     1      -2.565  10.088  17.405  0.00  0.00    +0.000 A 
BRANCH  16  19
ATOM     19  N   UNL     1      -3.430   9.837  13.746  0.00  0.00    +0.000 N 
ATOM     20  O   UNL     1      -2.369   9.628  13.141  0.00  0.00    +0.000 OA
ATOM     21  O   UNL     1      -4.558   9.671  13.257  0.00  0.00    +0.000 OA
ENDBRANCH  16  19
ENDBRANCH   6  13
BRANCH   4  22
ATOM     22  N   UNL     1      -5.869  13.908  21.043  0.00  0.00    +0.000 N 
ATOM     23  H   UNL     1      -5.414  14.807  21.246  0.00  0.00    +0.000 HD
ATOM     24  H   UNL     1      -6.264  13.660  21.950  0.00  0.00    +0.000 HD
ENDBRANCH   4  22
BRANCH   1  25
ATOM     25  S   UNL     1      -0.556  12.272  19.485  0.00  0.00    +0.000 S 
ATOM     26  O   UNL     1      -0.554  12.950  18.075  0.00  0.00    +0.000 OA
BRANCH  25  31
ATOM     27  C   UNL     1       2.506   6.936  19.624  0.00  0.00    +0.000 C 
ATOM     28  C   UNL     1       1.689   8.192  19.492  0.00  0.00    +0.000 A 
ATOM     29  C   UNL     1       1.006   8.687  20.600  0.00  0.00    +0.000 A 
ATOM     30  C   UNL     1       0.353   9.923  20.531  0.00  0.00    +0.000 A 
ATOM     31  C   UNL     1       0.361  10.721  19.369  0.00  0.00    +0.000 A 
ATOM     32  C   UNL     1       0.981  10.190  18.234  0.00  0.00    +0.000 A 
ATOM     33  C   UNL     1       1.652   8.944  18.305  0.00  0.00    +0.000 A 
ENDBRANCH  25  31
ENDBRANCH   1  25
BRANCH   5  34
ATOM     34  C   UNL     1      -6.088  11.539  19.346  0.00  0.00    +0.000 C 
ATOM     35  N   UNL     1      -7.149  11.263  18.997  0.00  0.00    +0.000 NA
ENDBRANCH   5  34
TORSDOF 7
ENDMDL
MODEL 9
REMARK VINA RESULT:      -6.3      7.607     11.421
REMARK  Name = 
REMARK  8 active torsions:
REMARK  status: ('A' for Active; 'I' for Inactive)
REMARK    1  A    between atoms: C_1  and  C_2
REMARK    2  A    between atoms: C_5  and  S_6
REMARK    3  A    between atoms: S_6  and  C_8
REMARK    4  A    between atoms: C_9  and  C_10
REMARK    5  A    between atoms: C_17  and  N_18
REMARK    6  A    between atoms: C_19  and  C_20
REMARK    7  A    between atoms: C_22  and  C_23
REMARK    8  A    between atoms: C_26  and  N_27
REMARK                            x       y       z     vdW  Elec       q    Type
REMARK                         _______ _______ _______ _____ _____    ______ ____
ROOT
ATOM      1  C   UNL     1       6.551  13.820  22.490  0.00  0.00    +0.000 C 
ATOM      2  C   UNL     1       5.652  13.840  23.504  0.00  0.00    +0.000 C 
ATOM      3  O   UNL     1       4.422  14.428  23.390  0.00  0.00    +0.000 OA
ATOM      4  C   UNL     1       4.285  15.530  22.600  0.00  0.00    +0.000 C 
ATOM      5  C   UNL     1       4.960  15.580  21.440  0.00  0.00    +0.000 C 
ATOM      6  C   UNL     1       6.167  14.612  21.196  0.00  0.00    +0.000 C 
ENDROOT
BRANCH   2   7
ATOM      7  C   UNL     1       5.774  13.488  24.925  0.00  0.00    +0.000 A 
ATOM      8  C   UNL     1       5.613  14.545  25.828  0.00  0.00    +0.000 A 
ATOM      9  C   UNL     1       5.155  14.266  27.108  0.00  0.00    +0.000 A 
ATOM     10  C   UNL     1       4.869  12.951  27.449  0.00  0.00    +0.000 A 
ATOM     11  C   UNL     1       5.069  11.962  26.495  0.00  0.00    +0.000 A 
ATOM     12  N   UNL     1       5.516  12.198  25.242  0.00  0.00    +0.000 NA
ENDBRANCH   2   7
BRANCH   6  13
ATOM     13  C   UNL     1       7.320  15.321  20.435  0.00  0.00    +0.000 A 
ATOM     14  C   UNL     1       8.033  16.436  20.925  0.00  0.00    +0.000 A 
ATOM     15  C   UNL     1       8.955  17.131  20.108  0.00  0.00    +0.000 A 
ATOM     16  C   UNL     1       9.173  16.716  18.787  0.00  0.00    +0.000 A 
ATOM     17  C   UNL     1       8.533  15.570  18.310  0.00  0.00    +0.000 A 
ATOM     18  C   UNL     1       7.624  14.882  19.130  0.00  0.00    +0.000 A 
BRANCH  16  19
ATOM     19  N   UNL     1      10.031  17.500  17.883  0.00  0.00    +0.000 N 
ATOM     20  O   UNL     1      11.105  17.000  17.523  0.00  0.00    +0.000 OA
ATOM     21  O   UNL     1       9.639  18.630  17.552  0.00  0.00    +0.000 OA
ENDBRANCH  16  19
ENDBRANCH   6  13
BRANCH   4  22
ATOM     22  N   UNL     1       3.382  16.421  23.134  0.00  0.00    +0.000 N 
ATOM     23  H   UNL     1       2.457  15.982  23.048  0.00  0.00    +0.000 HD
ATOM     24  H   UNL     1       3.291  17.231  22.520  0.00  0.00    +0.000 HD
ENDBRANCH   4  22
BRANCH   1  25
ATOM     25  S   UNL     1       8.131  13.143  22.965  0.00  0.00    +0.000 S 
ATOM     26  O   UNL     1       8.814  14.136  23.962  0.00  0.00    +0.000 OA
BRANCH  25  31
ATOM     27  C   UNL     1      11.852  11.488  18.351  0.00  0.00    +0.000 C 
ATOM     28  C   UNL     1      10.918  12.001  19.414  0.00  0.00    +0.000 A 
ATOM     29  C   UNL     1       9.838  11.221  19.814  0.00  0.00    +0.000 A 
ATOM     30  C   UNL     1       9.040  11.621  20.893  0.00  0.00    +0.000 A 
ATOM     31  C   UNL     1       9.289  12.801  21.623  0.00  0.00    +0.000 A 
ATOM     32  C   UNL     1      10.326  13.623  21.173  0.00  0.00    +0.000 A 
ATOM     33  C   UNL     1      11.142  13.214  20.089  0.00  0.00    +0.000 A 
ENDBRANCH  25  31
ENDBRANCH   1  25
BRANCH   5  34
ATOM     34  C   UNL     1       4.370  16.360  20.385  0.00  0.00    +0.000 C 
ATOM     35  N   UNL     1       4.049  17.005  19.488  0.00  0.00    +0.000 NA
ENDBRANCH   5  34
TORSDOF 7
ENDMDL
