MODEL 1
REMARK VINA RESULT:      -8.6      0.000      0.000
REMARK  Name = 
REMARK  12 active torsions:
REMARK  status: ('A' for Active; 'I' for Inactive)
REMARK    1  A    between atoms: C_1  and  C_2
REMARK    2  A    between atoms: C_2  and  C_3
REMARK    3  A    between atoms: C_3  and  C_4
REMARK    4  A    between atoms: C_4  and  C_5
REMARK    5  A    between atoms: C_5  and  C_6
REMARK    6  A    between atoms: C_5  and  N_7
REMARK    7  A    between atoms: C_12  and  C_13
REMARK    8  A    between atoms: N_19  and  C_20
REMARK    9  A    between atoms: C_20  and  C_21
REMARK   10  A    between atoms: N_23  and  C_24
REMARK   11  A    between atoms: C_24  and  C_25
REMARK   12  A    between atoms: C_28  and  C_29
REMARK                            x       y       z     vdW  Elec       q    Type
REMARK                         _______ _______ _______ _____ _____    ______ ____
ROOT
ATOM      1  N   UNL     1       6.758   3.967  14.328  0.00  0.00    +0.000 N 
ATOM      2  C   UNL     1       5.904   4.176  15.397  0.00  0.00    +0.000 A 
ATOM      3  N   UNL     1       4.844   3.454  15.618  0.00  0.00    +0.000 NA
ATOM      4  C   UNL     1       4.105   3.760  16.737  0.00  0.00    +0.000 A 
ATOM      5 CL   UNL     1       2.529   3.020  16.755  0.00  0.00    +0.000 Cl
ATOM      6  C   UNL     1       4.532   4.565  17.740  0.00  0.00    +0.000 A 
ATOM      7  N   UNL     1       5.763   5.229  17.615  0.00  0.00    +0.000 N 
ATOM      8  C   UNL     1       6.267   5.350  16.325  0.00  0.00    +0.000 A 
ATOM      9  O   UNL     1       6.936   6.267  15.864  0.00  0.00    +0.000 OA
ATOM     10  H   UNL     1       7.426   4.726  14.205  0.00  0.00    +0.000 HD
ENDROOT
BRANCH   6  11
ATOM     11  C   UNL     1       3.651   4.886  18.888  0.00  0.00    +0.000 A 
ATOM     12  C   UNL     1       3.438   3.960  19.915  0.00  0.00    +0.000 A 
ATOM     13  C   UNL     1       2.548   4.255  20.957  0.00  0.00    +0.000 A 
ATOM     14  C   UNL     1       1.879   5.477  20.981  0.00  0.00    +0.000 A 
ATOM     15  C   UNL     1       2.098   6.415  19.974  0.00  0.00    +0.000 A 
ATOM     16  C   UNL     1       2.980   6.121  18.932  0.00  0.00    +0.000 A 
ENDBRANCH   6  11
BRANCH   1  17
ATOM     17  C   UNL     1       6.329   3.318  13.097  0.00  0.00    +0.000 C 
ATOM     18  C   UNL     1       7.227   3.817  11.962  0.00  0.00    +0.000 C 
BRANCH  17  19
ATOM     19  C   UNL     1       4.842   3.639  12.859  0.00  0.00    +0.000 C 
BRANCH  19  20
ATOM     20  C   UNL     1       4.550   4.077  11.426  0.00  0.00    +0.000 C 
BRANCH  20  22
ATOM     21  C   UNL     1       2.827   3.876   9.620  0.00  0.00    +0.000 C 
ATOM     22  C   UNL     1       3.538   3.154  10.752  0.00  0.00    +0.000 C 
ENDBRANCH  20  22
ENDBRANCH  19  20
ENDBRANCH  17  19
ENDBRANCH   1  17
BRANCH   7  23
ATOM     23  C   UNL     1       6.205   6.180  18.627  0.00  0.00    +0.000 C 
BRANCH  23  24
ATOM     24  C   UNL     1       7.709   6.258  18.945  0.00  0.00    +0.000 C 
ATOM     25  O   UNL     1       8.320   5.405  19.586  0.00  0.00    +0.000 OA
ATOM     26  N   UNL     1       8.373   7.392  18.545  0.00  0.00    +0.000 N 
ATOM     27  H   UNL     1       9.372   7.365  18.712  0.00  0.00    +0.000 HD
BRANCH  26  28
ATOM     28  C   UNL     1       7.801   8.560  17.903  0.00  0.00    +0.000 C 
BRANCH  28  29
ATOM     29  C   UNL     1       8.489   9.848  18.290  0.00  0.00    +0.000 A 
ATOM     30  C   UNL     1       8.271  11.015  17.539  0.00  0.00    +0.000 A 
ATOM     31  C   UNL     1       8.929  12.206  17.861  0.00  0.00    +0.000 A 
ATOM     32  C   UNL     1       9.805  12.248  18.950  0.00  0.00    +0.000 A 
ATOM     33  C   UNL     1      10.002  11.100  19.722  0.00  0.00    +0.000 A 
ATOM     34  C   UNL     1       9.344   9.910  19.399  0.00  0.00    +0.000 A 
BRANCH  32  35
ATOM     35  C   UNL     1      10.565  13.487  19.273  0.00  0.00    +0.000 C 
ATOM     36  N   UNL     1      10.892  14.369  18.384  0.00  0.00    +0.000 NA
ATOM     37  N   UNL     1      10.967  13.731  20.553  0.00  0.00    +0.000 N 
ATOM     38  H   UNL     1      10.513  14.133  17.463  0.00  0.00    +0.000 HD
ATOM     39  H   UNL     1      11.229  12.921  21.103  0.00  0.00    +0.000 HD
ATOM     40  H   UNL     1      11.662  14.470  20.584  0.00  0.00    +0.000 HD
ENDBRANCH  32  35
ENDBRANCH  28  29
ENDBRANCH  26  28
ENDBRANCH  23  24
ENDBRANCH   7  23
TORSDOF 10
ENDMDL
MODEL 2
REMARK VINA RESULT:      -8.2      4.592      6.346
REMARK  Name = 
REMARK  12 active torsions:
REMARK  status: ('A' for Active; 'I' for Inactive)
REMARK    1  A    between atoms: C_1  and  C_2
REMARK    2  A    between atoms: C_2  and  C_3
REMARK    3  A    between atoms: C_3  and  C_4
REMARK    4  A    between atoms: C_4  and  C_5
REMARK    5  A    between atoms: C_5  and  C_6
REMARK    6  A    between atoms: C_5  and  N_7
REMARK    7  A    between atoms: C_12  and  C_13
REMARK    8  A    between atoms: N_19  and  C_20
REMARK    9  A    between atoms: C_20  and  C_21
REMARK   10  A    between atoms: N_23  and  C_24
REMARK   11  A    between atoms: C_24  and  C_25
REMARK   12  A    between atoms: C_28  and  C_29
REMARK                            x       y       z     vdW  Elec       q    Type
REMARK                         _______ _______ _______ _____ _____    ______ ____
ROOT
ATOM      1  N   UNL     1       6.637   5.443  15.340  0.00  0.00    +0.000 N 
ATOM      2  C   UNL     1       5.692   5.006  16.252  0.00  0.00    +0.000 A 
ATOM      3  N   UNL     1       5.509   3.751  16.548  0.00  0.00    +0.000 NA
ATOM      4  C   UNL     1       4.552   3.469  17.494  0.00  0.00    +0.000 A 
ATOM      5 CL   UNL     1       4.107   1.786  17.554  0.00  0.00    +0.000 Cl
ATOM      6  C   UNL     1       3.985   4.392  18.309  0.00  0.00    +0.000 A 
ATOM      7  N   UNL     1       4.296   5.750  18.135  0.00  0.00    +0.000 N 
ATOM      8  C   UNL     1       4.829   6.104  16.900  0.00  0.00    +0.000 A 
ATOM      9  O   UNL     1       4.679   7.157  16.293  0.00  0.00    +0.000 OA
ATOM     10  H   UNL     1       6.523   6.426  15.097  0.00  0.00    +0.000 HD
ENDROOT
BRANCH   6  11
ATOM     11  C   UNL     1       2.921   4.010  19.268  0.00  0.00    +0.000 A 
ATOM     12  C   UNL     1       3.227   3.690  20.595  0.00  0.00    +0.000 A 
ATOM     13  C   UNL     1       2.217   3.266  21.469  0.00  0.00    +0.000 A 
ATOM     14  C   UNL     1       0.900   3.171  21.023  0.00  0.00    +0.000 A 
ATOM     15  C   UNL     1       0.579   3.507  19.709  0.00  0.00    +0.000 A 
ATOM     16  C   UNL     1       1.586   3.924  18.835  0.00  0.00    +0.000 A 
ENDBRANCH   6  11
BRANCH   1  17
ATOM     17  C   UNL     1       7.142   4.597  14.268  0.00  0.00    +0.000 C 
ATOM     18  C   UNL     1       8.012   5.463  13.353  0.00  0.00    +0.000 C 
BRANCH  17  19
ATOM     19  C   UNL     1       5.947   3.969  13.527  0.00  0.00    +0.000 C 
BRANCH  19  20
ATOM     20  C   UNL     1       6.294   3.523  12.109  0.00  0.00    +0.000 C 
BRANCH  20  22
ATOM     21  C   UNL     1       6.226   1.197  11.183  0.00  0.00    +0.000 C 
ATOM     22  C   UNL     1       5.393   2.382  11.644  0.00  0.00    +0.000 C 
ENDBRANCH  20  22
ENDBRANCH  19  20
ENDBRANCH  17  19
ENDBRANCH   1  17
BRANCH   7  23
ATOM     23  C   UNL     1       3.627   6.776  18.925  0.00  0.00    +0.000 C 
BRANCH  23  24
ATOM     24  C   UNL     1       2.326   7.386  18.371  0.00  0.00    +0.000 C 
ATOM     25  O   UNL     1       2.002   7.354  17.185  0.00  0.00    +0.000 OA
ATOM     26  N   UNL     1       1.530   8.068  19.260  0.00  0.00    +0.000 N 
ATOM     27  H   UNL     1       0.654   8.388  18.866  0.00  0.00    +0.000 HD
BRANCH  26  28
ATOM     28  C   UNL     1       1.807   8.330  20.659  0.00  0.00    +0.000 C 
BRANCH  28  29
ATOM     29  C   UNL     1       0.836   9.303  21.285  0.00  0.00    +0.000 A 
ATOM     30  C   UNL     1       0.498  10.490  20.613  0.00  0.00    +0.000 A 
ATOM     31  C   UNL     1      -0.370  11.419  21.195  0.00  0.00    +0.000 A 
ATOM     32  C   UNL     1      -0.924  11.165  22.453  0.00  0.00    +0.000 A 
ATOM     33  C   UNL     1      -0.619   9.971  23.114  0.00  0.00    +0.000 A 
ATOM     34  C   UNL     1       0.249   9.045  22.531  0.00  0.00    +0.000 A 
BRANCH  32  35
ATOM     35  C   UNL     1      -1.800  12.167  23.121  0.00  0.00    +0.000 C 
ATOM     36  N   UNL     1      -1.458  13.404  23.290  0.00  0.00    +0.000 NA
ATOM     37  N   UNL     1      -3.021  11.799  23.602  0.00  0.00    +0.000 N 
ATOM     38  H   UNL     1      -0.552  13.607  22.859  0.00  0.00    +0.000 HD
ATOM     39  H   UNL     1      -3.088  10.862  23.982  0.00  0.00    +0.000 HD
ATOM     40  H   UNL     1      -3.396  12.506  24.227  0.00  0.00    +0.000 HD
ENDBRANCH  32  35
ENDBRANCH  28  29
ENDBRANCH  26  28
ENDBRANCH  23  24
ENDBRANCH   7  23
TORSDOF 10
ENDMDL
MODEL 3
REMARK VINA RESULT:      -8.0      6.998     10.447
REMARK  Name = 
REMARK  12 active torsions:
REMARK  status: ('A' for Active; 'I' for Inactive)
REMARK    1  A    between atoms: C_1  and  C_2
REMARK    2  A    between atoms: C_2  and  C_3
REMARK    3  A    between atoms: C_3  and  C_4
REMARK    4  A    between atoms: C_4  and  C_5
REMARK    5  A    between atoms: C_5  and  C_6
REMARK    6  A    between atoms: C_5  and  N_7
REMARK    7  A    between atoms: C_12  and  C_13
REMARK    8  A    between atoms: N_19  and  C_20
REMARK    9  A    between atoms: C_20  and  C_21
REMARK   10  A    between atoms: N_23  and  C_24
REMARK   11  A    between atoms: C_24  and  C_25
REMARK   12  A    between atoms: C_28  and  C_29
REMARK                            x       y       z     vdW  Elec       q    Type
REMARK                         _______ _______ _______ _____ _____    ______ ____
ROOT
ATOM      1  N   UNL     1      -2.224  10.605  17.224  0.00  0.00    +0.000 N 
ATOM      2  C   UNL     1      -1.351  11.397  17.950  0.00  0.00    +0.000 A 
ATOM      3  N   UNL     1      -1.390  12.698  17.944  0.00  0.00    +0.000 NA
ATOM      4  C   UNL     1      -0.477  13.351  18.738  0.00  0.00    +0.000 A 
ATOM      5 CL   UNL     1      -0.342  15.052  18.389  0.00  0.00    +0.000 Cl
ATOM      6  C   UNL     1       0.267  12.753  19.700  0.00  0.00    +0.000 A 
ATOM      7  N   UNL     1       0.202  11.359  19.856  0.00  0.00    +0.000 N 
ATOM      8  C   UNL     1      -0.289  10.642  18.770  0.00  0.00    +0.000 A 
ATOM      9  O   UNL     1       0.033   9.519  18.407  0.00  0.00    +0.000 OA
ATOM     10  H   UNL     1      -1.941   9.627  17.200  0.00  0.00    +0.000 HD
ENDROOT
BRANCH   6  11
ATOM     11  C   UNL     1       1.268  13.522  20.477  0.00  0.00    +0.000 A 
ATOM     12  C   UNL     1       0.884  14.318  21.562  0.00  0.00    +0.000 A 
ATOM     13  C   UNL     1       1.835  15.090  22.242  0.00  0.00    +0.000 A 
ATOM     14  C   UNL     1       3.171  15.062  21.847  0.00  0.00    +0.000 A 
ATOM     15  C   UNL     1       3.569  14.259  20.780  0.00  0.00    +0.000 A 
ATOM     16  C   UNL     1       2.622  13.493  20.098  0.00  0.00    +0.000 A 
ENDBRANCH   6  11
BRANCH   1  17
ATOM     17  C   UNL     1      -2.899  11.080  16.024  0.00  0.00    +0.000 C 
ATOM     18  C   UNL     1      -4.353  11.390  16.391  0.00  0.00    +0.000 C 
BRANCH  17  19
ATOM     19  C   UNL     1      -2.782  10.004  14.930  0.00  0.00    +0.000 C 
BRANCH  19  20
ATOM     20  C   UNL     1      -4.063   9.841  14.115  0.00  0.00    +0.000 C 
BRANCH  20  22
ATOM     21  C   UNL     1      -5.062   9.638  11.827  0.00  0.00    +0.000 C 
ATOM     22  C   UNL     1      -3.774   9.807  12.616  0.00  0.00    +0.000 C 
ENDBRANCH  20  22
ENDBRANCH  19  20
ENDBRANCH  17  19
ENDBRANCH   1  17
BRANCH   7  23
ATOM     23  C   UNL     1       1.064  10.674  20.811  0.00  0.00    +0.000 C 
BRANCH  23  24
ATOM     24  C   UNL     1       0.484   9.476  21.585  0.00  0.00    +0.000 C 
ATOM     25  O   UNL     1      -0.331   9.579  22.499  0.00  0.00    +0.000 OA
ATOM     26  N   UNL     1       0.976   8.233  21.269  0.00  0.00    +0.000 N 
ATOM     27  H   UNL     1       0.514   7.472  21.752  0.00  0.00    +0.000 HD
BRANCH  26  28
ATOM     28  C   UNL     1       2.031   7.923  20.322  0.00  0.00    +0.000 C 
BRANCH  28  29
ATOM     29  C   UNL     1       1.996   6.493  19.839  0.00  0.00    +0.000 A 
ATOM     30  C   UNL     1       2.460   6.174  18.552  0.00  0.00    +0.000 A 
ATOM     31  C   UNL     1       2.399   4.860  18.075  0.00  0.00    +0.000 A 
ATOM     32  C   UNL     1       1.886   3.845  18.888  0.00  0.00    +0.000 A 
ATOM     33  C   UNL     1       1.453   4.149  20.182  0.00  0.00    +0.000 A 
ATOM     34  C   UNL     1       1.513   5.462  20.656  0.00  0.00    +0.000 A 
BRANCH  32  35
ATOM     35  C   UNL     1       1.753   2.452  18.380  0.00  0.00    +0.000 C 
ATOM     36  N   UNL     1       2.613   1.905  17.582  0.00  0.00    +0.000 NA
ATOM     37  N   UNL     1       0.681   1.690  18.739  0.00  0.00    +0.000 N 
ATOM     38  H   UNL     1       3.407   2.525  17.402  0.00  0.00    +0.000 HD
ATOM     39  H   UNL     1      -0.199   2.181  18.856  0.00  0.00    +0.000 HD
ATOM     40  H   UNL     1       0.599   0.870  18.145  0.00  0.00    +0.000 HD
ENDBRANCH  32  35
ENDBRANCH  28  29
ENDBRANCH  26  28
ENDBRANCH  23  24
ENDBRANCH   7  23
TORSDOF 10
ENDMDL
MODEL 4
REMARK VINA RESULT:      -8.0      4.621      6.354
REMARK  Name = 
REMARK  12 active torsions:
REMARK  status: ('A' for Active; 'I' for Inactive)
REMARK    1  A    between atoms: C_1  and  C_2
REMARK    2  A    between atoms: C_2  and  C_3
REMARK    3  A    between atoms: C_3  and  C_4
REMARK    4  A    between atoms: C_4  and  C_5
REMARK    5  A    between atoms: C_5  and  C_6
REMARK    6  A    between atoms: C_5  and  N_7
REMARK    7  A    between atoms: C_12  and  C_13
REMARK    8  A    between atoms: N_19  and  C_20
REMARK    9  A    between atoms: C_20  and  C_21
REMARK   10  A    between atoms: N_23  and  C_24
REMARK   11  A    between atoms: C_24  and  C_25
REMARK   12  A    between atoms: C_28  and  C_29
REMARK                            x       y       z     vdW  Elec       q    Type
REMARK                         _______ _______ _______ _____ _____    ______ ____
ROOT
ATOM      1  N   UNL     1       6.588   5.419  15.365  0.00  0.00    +0.000 N 
ATOM      2  C   UNL     1       5.654   4.948  16.270  0.00  0.00    +0.000 A 
ATOM      3  N   UNL     1       5.483   3.684  16.531  0.00  0.00    +0.000 NA
ATOM      4  C   UNL     1       4.536   3.367  17.475  0.00  0.00    +0.000 A 
ATOM      5 CL   UNL     1       4.104   1.680  17.490  0.00  0.00    +0.000 Cl
ATOM      6  C   UNL     1       3.967   4.261  18.321  0.00  0.00    +0.000 A 
ATOM      7  N   UNL     1       4.266   5.626  18.183  0.00  0.00    +0.000 N 
ATOM      8  C   UNL     1       4.787   6.020  16.956  0.00  0.00    +0.000 A 
ATOM      9  O   UNL     1       4.624   7.089  16.381  0.00  0.00    +0.000 OA
ATOM     10  H   UNL     1       6.465   6.408  15.151  0.00  0.00    +0.000 HD
ENDROOT
BRANCH   6  11
ATOM     11  C   UNL     1       2.913   3.843  19.276  0.00  0.00    +0.000 A 
ATOM     12  C   UNL     1       1.586   3.682  18.862  0.00  0.00    +0.000 A 
ATOM     13  C   UNL     1       0.592   3.353  19.793  0.00  0.00    +0.000 A 
ATOM     14  C   UNL     1       0.922   3.175  21.135  0.00  0.00    +0.000 A 
ATOM     15  C   UNL     1       2.243   3.313  21.556  0.00  0.00    +0.000 A 
ATOM     16  C   UNL     1       3.234   3.646  20.631  0.00  0.00    +0.000 A 
ENDBRANCH   6  11
BRANCH   1  17
ATOM     17  C   UNL     1       7.092   4.609  14.265  0.00  0.00    +0.000 C 
ATOM     18  C   UNL     1       7.969   5.502  13.383  0.00  0.00    +0.000 C 
BRANCH  17  19
ATOM     19  C   UNL     1       5.897   4.014  13.499  0.00  0.00    +0.000 C 
BRANCH  19  20
ATOM     20  C   UNL     1       6.267   3.534  12.097  0.00  0.00    +0.000 C 
BRANCH  20  22
ATOM     21  C   UNL     1       6.240   1.195  11.205  0.00  0.00    +0.000 C 
ATOM     22  C   UNL     1       5.386   2.369  11.653  0.00  0.00    +0.000 C 
ENDBRANCH  20  22
ENDBRANCH  19  20
ENDBRANCH  17  19
ENDBRANCH   1  17
BRANCH   7  23
ATOM     23  C   UNL     1       3.594   6.623  19.008  0.00  0.00    +0.000 C 
BRANCH  23  24
ATOM     24  C   UNL     1       2.227   7.154  18.538  0.00  0.00    +0.000 C 
ATOM     25  O   UNL     1       1.798   7.026  17.393  0.00  0.00    +0.000 OA
ATOM     26  N   UNL     1       1.493   7.875  19.447  0.00  0.00    +0.000 N 
ATOM     27  H   UNL     1       0.573   8.140  19.116  0.00  0.00    +0.000 HD
BRANCH  26  28
ATOM     28  C   UNL     1       1.886   8.246  20.793  0.00  0.00    +0.000 C 
BRANCH  28  29
ATOM     29  C   UNL     1       0.998   9.305  21.402  0.00  0.00    +0.000 A 
ATOM     30  C   UNL     1       0.270   9.025  22.570  0.00  0.00    +0.000 A 
ATOM     31  C   UNL     1      -0.586   9.981  23.126  0.00  0.00    +0.000 A 
ATOM     32  C   UNL     1      -0.714  11.238  22.526  0.00  0.00    +0.000 A 
ATOM     33  C   UNL     1       0.033  11.535  21.382  0.00  0.00    +0.000 A 
ATOM     34  C   UNL     1       0.887  10.578  20.828  0.00  0.00    +0.000 A 
BRANCH  32  35
ATOM     35  C   UNL     1      -1.666  12.249  23.062  0.00  0.00    +0.000 C 
ATOM     36  N   UNL     1      -1.323  13.468  23.334  0.00  0.00    +0.000 NA
ATOM     37  N   UNL     1      -2.963  11.909  23.305  0.00  0.00    +0.000 N 
ATOM     38  H   UNL     1      -0.350  13.651  23.078  0.00  0.00    +0.000 HD
ATOM     39  H   UNL     1      -3.125  10.964  23.633  0.00  0.00    +0.000 HD
ATOM     40  H   UNL     1      -3.424  12.610  23.877  0.00  0.00    +0.000 HD
ENDBRANCH  32  35
ENDBRANCH  28  29
ENDBRANCH  26  28
ENDBRANCH  23  24
ENDBRANCH   7  23
TORSDOF 10
ENDMDL
MODEL 5
REMARK VINA RESULT:      -7.8      6.949     10.347
REMARK  Name = 
REMARK  12 active torsions:
REMARK  status: ('A' for Active; 'I' for Inactive)
REMARK    1  A    between atoms: C_1  and  C_2
REMARK    2  A    between atoms: C_2  and  C_3
REMARK    3  A    between atoms: C_3  and  C_4
REMARK    4  A    between atoms: C_4  and  C_5
REMARK    5  A    between atoms: C_5  and  C_6
REMARK    6  A    between atoms: C_5  and  N_7
REMARK    7  A    between atoms: C_12  and  C_13
REMARK    8  A    between atoms: N_19  and  C_20
REMARK    9  A    between atoms: C_20  and  C_21
REMARK   10  A    between atoms: N_23  and  C_24
REMARK   11  A    between atoms: C_24  and  C_25
REMARK   12  A    between atoms: C_28  and  C_29
REMARK                            x       y       z     vdW  Elec       q    Type
REMARK                         _______ _______ _______ _____ _____    ______ ____
ROOT
ATOM      1  N   UNL     1      -2.329  10.463  17.505  0.00  0.00    +0.000 N 
ATOM      2  C   UNL     1      -1.435  11.288  18.164  0.00  0.00    +0.000 A 
ATOM      3  N   UNL     1      -1.467  12.587  18.084  0.00  0.00    +0.000 NA
ATOM      4  C   UNL     1      -0.532  13.279  18.818  0.00  0.00    +0.000 A 
ATOM      5 CL   UNL     1      -0.395  14.956  18.368  0.00  0.00    +0.000 Cl
ATOM      6  C   UNL     1       0.231  12.732  19.796  0.00  0.00    +0.000 A 
ATOM      7  N   UNL     1       0.162  11.350  20.033  0.00  0.00    +0.000 N 
ATOM      8  C   UNL     1      -0.357  10.575  19.002  0.00  0.00    +0.000 A 
ATOM      9  O   UNL     1      -0.050   9.430  18.697  0.00  0.00    +0.000 OA
ATOM     10  H   UNL     1      -2.052   9.482  17.532  0.00  0.00    +0.000 HD
ENDROOT
BRANCH   6  11
ATOM     11  C   UNL     1       1.255  13.538  20.504  0.00  0.00    +0.000 A 
ATOM     12  C   UNL     1       2.606  13.460  20.150  0.00  0.00    +0.000 A 
ATOM     13  C   UNL     1       3.567  14.177  20.875  0.00  0.00    +0.000 A 
ATOM     14  C   UNL     1       3.180  14.980  21.947  0.00  0.00    +0.000 A 
ATOM     15  C   UNL     1       1.835  15.081  22.296  0.00  0.00    +0.000 A 
ATOM     16  C   UNL     1       0.876  14.362  21.578  0.00  0.00    +0.000 A 
ENDBRANCH   6  11
BRANCH   1  17
ATOM     17  C   UNL     1      -3.029  10.872  16.296  0.00  0.00    +0.000 C 
ATOM     18  C   UNL     1      -4.445  11.299  16.692  0.00  0.00    +0.000 C 
BRANCH  17  19
ATOM     19  C   UNL     1      -3.022   9.701  15.297  0.00  0.00    +0.000 C 
BRANCH  19  20
ATOM     20  C   UNL     1      -3.142  10.156  13.845  0.00  0.00    +0.000 C 
BRANCH  20  22
ATOM     21  C   UNL     1      -4.416   9.773  11.723  0.00  0.00    +0.000 C 
ATOM     22  C   UNL     1      -4.486   9.755  13.241  0.00  0.00    +0.000 C 
ENDBRANCH  20  22
ENDBRANCH  19  20
ENDBRANCH  17  19
ENDBRANCH   1  17
BRANCH   7  23
ATOM     23  C   UNL     1       1.043  10.715  21.005  0.00  0.00    +0.000 C 
BRANCH  23  24
ATOM     24  C   UNL     1       0.540   9.450  21.725  0.00  0.00    +0.000 C 
ATOM     25  O   UNL     1      -0.226   9.467  22.687  0.00  0.00    +0.000 OA
ATOM     26  N   UNL     1       1.048   8.247  21.299  0.00  0.00    +0.000 N 
ATOM     27  H   UNL     1       0.634   7.441  21.753  0.00  0.00    +0.000 HD
BRANCH  26  28
ATOM     28  C   UNL     1       2.056   8.035  20.279  0.00  0.00    +0.000 C 
BRANCH  28  29
ATOM     29  C   UNL     1       2.153   6.597  19.829  0.00  0.00    +0.000 A 
ATOM     30  C   UNL     1       1.752   5.561  20.690  0.00  0.00    +0.000 A 
ATOM     31  C   UNL     1       1.870   4.222  20.304  0.00  0.00    +0.000 A 
ATOM     32  C   UNL     1       2.380   3.902  19.042  0.00  0.00    +0.000 A 
ATOM     33  C   UNL     1       2.751   4.928  18.166  0.00  0.00    +0.000 A 
ATOM     34  C   UNL     1       2.632   6.264  18.555  0.00  0.00    +0.000 A 
BRANCH  32  35
ATOM     35  C   UNL     1       2.575   2.484  18.632  0.00  0.00    +0.000 C 
ATOM     36  N   UNL     1       3.702   2.024  18.191  0.00  0.00    +0.000 NA
ATOM     37  N   UNL     1       1.537   1.603  18.696  0.00  0.00    +0.000 N 
ATOM     38  H   UNL     1       4.436   2.736  18.220  0.00  0.00    +0.000 HD
ATOM     39  H   UNL     1       0.618   1.977  18.492  0.00  0.00    +0.000 HD
ATOM     40  H   UNL     1       1.743   0.756  18.174  0.00  0.00    +0.000 HD
ENDBRANCH  32  35
ENDBRANCH  28  29
ENDBRANCH  26  28
ENDBRANCH  23  24
ENDBRANCH   7  23
TORSDOF 10
ENDMDL
MODEL 6
REMARK VINA RESULT:      -7.8      6.744      9.815
REMARK  Name = 
REMARK  12 active torsions:
REMARK  status: ('A' for Active; 'I' for Inactive)
REMARK    1  A    between atoms: C_1  and  C_2
REMARK    2  A    between atoms: C_2  and  C_3
REMARK    3  A    between atoms: C_3  and  C_4
REMARK    4  A    between atoms: C_4  and  C_5
REMARK    5  A    between atoms: C_5  and  C_6
REMARK    6  A    between atoms: C_5  and  N_7
REMARK    7  A    between atoms: C_12  and  C_13
REMARK    8  A    between atoms: N_19  and  C_20
REMARK    9  A    between atoms: C_20  and  C_21
REMARK   10  A    between atoms: N_23  and  C_24
REMARK   11  A    between atoms: C_24  and  C_25
REMARK   12  A    between atoms: C_28  and  C_29
REMARK                            x       y       z     vdW  Elec       q    Type
REMARK                         _______ _______ _______ _____ _____    ______ ____
ROOT
ATOM      1  N   UNL     1      -3.360  10.979  18.687  0.00  0.00    +0.000 N 
ATOM      2  C   UNL     1      -2.153  11.639  18.836  0.00  0.00    +0.000 A 
ATOM      3  N   UNL     1      -2.060  12.896  19.164  0.00  0.00    +0.000 NA
ATOM      4  C   UNL     1      -0.792  13.410  19.302  0.00  0.00    +0.000 A 
ATOM      5 CL   UNL     1      -0.749  15.150  19.362  0.00  0.00    +0.000 Cl
ATOM      6  C   UNL     1       0.334  12.660  19.378  0.00  0.00    +0.000 A 
ATOM      7  N   UNL     1       0.250  11.269  19.205  0.00  0.00    +0.000 N 
ATOM      8  C   UNL     1      -0.891  10.798  18.566  0.00  0.00    +0.000 A 
ATOM      9  O   UNL     1      -0.991   9.825  17.829  0.00  0.00    +0.000 OA
ATOM     10  H   UNL     1      -3.255  10.061  18.257  0.00  0.00    +0.000 HD
ENDROOT
BRANCH   6  11
ATOM     11  C   UNL     1       1.669  13.297  19.475  0.00  0.00    +0.000 A 
ATOM     12  C   UNL     1       2.250  13.570  20.719  0.00  0.00    +0.000 A 
ATOM     13  C   UNL     1       3.482  14.234  20.791  0.00  0.00    +0.000 A 
ATOM     14  C   UNL     1       4.140  14.618  19.624  0.00  0.00    +0.000 A 
ATOM     15  C   UNL     1       3.581  14.334  18.379  0.00  0.00    +0.000 A 
ATOM     16  C   UNL     1       2.351  13.677  18.306  0.00  0.00    +0.000 A 
ENDBRANCH   6  11
BRANCH   1  17
ATOM     17  C   UNL     1      -4.599  11.672  18.366  0.00  0.00    +0.000 C 
ATOM     18  C   UNL     1      -5.762  10.846  18.921  0.00  0.00    +0.000 C 
BRANCH  17  19
ATOM     19  C   UNL     1      -4.682  11.859  16.840  0.00  0.00    +0.000 C 
BRANCH  19  20
ATOM     20  C   UNL     1      -4.253  10.616  16.064  0.00  0.00    +0.000 C 
BRANCH  20  22
ATOM     21  C   UNL     1      -3.064  10.019  13.942  0.00  0.00    +0.000 C 
ATOM     22  C   UNL     1      -3.039  10.897  15.182  0.00  0.00    +0.000 C 
ENDBRANCH  20  22
ENDBRANCH  19  20
ENDBRANCH  17  19
ENDBRANCH   1  17
BRANCH   7  23
ATOM     23  C   UNL     1       1.453  10.446  19.178  0.00  0.00    +0.000 C 
BRANCH  23  24
ATOM     24  C   UNL     1       1.467   9.153  20.014  0.00  0.00    +0.000 C 
ATOM     25  O   UNL     1       1.275   9.118  21.228  0.00  0.00    +0.000 OA
ATOM     26  N   UNL     1       1.790   7.990  19.357  0.00  0.00    +0.000 N 
ATOM     27  H   UNL     1       1.716   7.159  19.931  0.00  0.00    +0.000 HD
BRANCH  26  28
ATOM     28  C   UNL     1       2.179   7.849  17.967  0.00  0.00    +0.000 C 
BRANCH  28  29
ATOM     29  C   UNL     1       3.475   7.097  17.786  0.00  0.00    +0.000 A 
ATOM     30  C   UNL     1       4.280   7.343  16.660  0.00  0.00    +0.000 A 
ATOM     31  C   UNL     1       5.465   6.628  16.457  0.00  0.00    +0.000 A 
ATOM     32  C   UNL     1       5.868   5.666  17.388  0.00  0.00    +0.000 A 
ATOM     33  C   UNL     1       5.090   5.438  18.527  0.00  0.00    +0.000 A 
ATOM     34  C   UNL     1       3.906   6.153  18.727  0.00  0.00    +0.000 A 
BRANCH  32  35
ATOM     35  C   UNL     1       7.091   4.848  17.162  0.00  0.00    +0.000 C 
ATOM     36  N   UNL     1       7.585   4.624  15.987  0.00  0.00    +0.000 NA
ATOM     37  N   UNL     1       7.740   4.279  18.217  0.00  0.00    +0.000 N 
ATOM     38  H   UNL     1       7.068   5.125  15.259  0.00  0.00    +0.000 HD
ATOM     39  H   UNL     1       7.158   3.962  18.984  0.00  0.00    +0.000 HD
ATOM     40  H   UNL     1       8.399   3.572  17.904  0.00  0.00    +0.000 HD
ENDBRANCH  32  35
ENDBRANCH  28  29
ENDBRANCH  26  28
ENDBRANCH  23  24
ENDBRANCH   7  23
TORSDOF 10
ENDMDL
MODEL 7
REMARK VINA RESULT:      -7.8      4.425      6.181
REMARK  Name = 
REMARK  12 active torsions:
REMARK  status: ('A' for Active; 'I' for Inactive)
REMARK    1  A    between atoms: C_1  and  C_2
REMARK    2  A    between atoms: C_2  and  C_3
REMARK    3  A    between atoms: C_3  and  C_4
REMARK    4  A    between atoms: C_4  and  C_5
REMARK    5  A    between atoms: C_5  and  C_6
REMARK    6  A    between atoms: C_5  and  N_7
REMARK    7  A    between atoms: C_12  and  C_13
REMARK    8  A    between atoms: N_19  and  C_20
REMARK    9  A    between atoms: C_20  and  C_21
REMARK   10  A    between atoms: N_23  and  C_24
REMARK   11  A    between atoms: C_24  and  C_25
REMARK   12  A    between atoms: C_28  and  C_29
REMARK                            x       y       z     vdW  Elec       q    Type
REMARK                         _______ _______ _______ _____ _____    ______ ____
ROOT
ATOM      1  N   UNL     1       6.795   5.516  14.891  0.00  0.00    +0.000 N 
ATOM      2  C   UNL     1       5.833   5.145  15.814  0.00  0.00    +0.000 A 
ATOM      3  N   UNL     1       5.561   3.905  16.105  0.00  0.00    +0.000 NA
ATOM      4  C   UNL     1       4.600   3.688  17.064  0.00  0.00    +0.000 A 
ATOM      5 CL   UNL     1       4.030   2.044  17.120  0.00  0.00    +0.000 Cl
ATOM      6  C   UNL     1       4.116   4.645  17.893  0.00  0.00    +0.000 A 
ATOM      7  N   UNL     1       4.525   5.978  17.722  0.00  0.00    +0.000 N 
ATOM      8  C   UNL     1       5.065   6.300  16.482  0.00  0.00    +0.000 A 
ATOM      9  O   UNL     1       4.986   7.365  15.884  0.00  0.00    +0.000 OA
ATOM     10  H   UNL     1       6.752   6.506  14.655  0.00  0.00    +0.000 HD
ENDROOT
BRANCH   6  11
ATOM     11  C   UNL     1       3.040   4.338  18.866  0.00  0.00    +0.000 A 
ATOM     12  C   UNL     1       1.710   4.208  18.453  0.00  0.00    +0.000 A 
ATOM     13  C   UNL     1       0.698   3.985  19.397  0.00  0.00    +0.000 A 
ATOM     14  C   UNL     1       1.013   3.881  20.750  0.00  0.00    +0.000 A 
ATOM     15  C   UNL     1       2.337   3.989  21.171  0.00  0.00    +0.000 A 
ATOM     16  C   UNL     1       3.346   4.217  20.233  0.00  0.00    +0.000 A 
ENDBRANCH   6  11
BRANCH   1  17
ATOM     17  C   UNL     1       7.219   4.643  13.805  0.00  0.00    +0.000 C 
ATOM     18  C   UNL     1       8.175   5.433  12.909  0.00  0.00    +0.000 C 
BRANCH  17  19
ATOM     19  C   UNL     1       5.972   4.149  13.050  0.00  0.00    +0.000 C 
BRANCH  19  20
ATOM     20  C   UNL     1       6.166   2.775  12.414  0.00  0.00    +0.000 C 
BRANCH  20  22
ATOM     21  C   UNL     1       3.970   3.511  11.461  0.00  0.00    +0.000 C 
ATOM     22  C   UNL     1       5.078   2.473  11.387  0.00  0.00    +0.000 C 
ENDBRANCH  20  22
ENDBRANCH  19  20
ENDBRANCH  17  19
ENDBRANCH   1  17
BRANCH   7  23
ATOM     23  C   UNL     1       3.947   7.045  18.529  0.00  0.00    +0.000 C 
BRANCH  23  24
ATOM     24  C   UNL     1       2.758   7.833  17.948  0.00  0.00    +0.000 C 
ATOM     25  O   UNL     1       2.673   8.177  16.770  0.00  0.00    +0.000 OA
ATOM     26  N   UNL     1       1.783   8.230  18.830  0.00  0.00    +0.000 N 
ATOM     27  H   UNL     1       0.989   8.681  18.391  0.00  0.00    +0.000 HD
BRANCH  26  28
ATOM     28  C   UNL     1       1.774   8.041  20.268  0.00  0.00    +0.000 C 
BRANCH  28  29
ATOM     29  C   UNL     1       0.880   9.019  20.991  0.00  0.00    +0.000 A 
ATOM     30  C   UNL     1       0.469  10.201  20.352  0.00  0.00    +0.000 A 
ATOM     31  C   UNL     1      -0.328  11.137  21.020  0.00  0.00    +0.000 A 
ATOM     32  C   UNL     1      -0.736  10.894  22.335  0.00  0.00    +0.000 A 
ATOM     33  C   UNL     1      -0.358   9.705  22.967  0.00  0.00    +0.000 A 
ATOM     34  C   UNL     1       0.438   8.772  22.297  0.00  0.00    +0.000 A 
BRANCH  32  35
ATOM     35  C   UNL     1      -1.531  11.902  23.088  0.00  0.00    +0.000 C 
ATOM     36  N   UNL     1      -1.131  13.119  23.279  0.00  0.00    +0.000 NA
ATOM     37  N   UNL     1      -2.734  11.562  23.631  0.00  0.00    +0.000 N 
ATOM     38  H   UNL     1      -0.245  13.303  22.801  0.00  0.00    +0.000 HD
ATOM     39  H   UNL     1      -2.816  10.614  23.982  0.00  0.00    +0.000 HD
ATOM     40  H   UNL     1      -3.044  12.259  24.301  0.00  0.00    +0.000 HD
ENDBRANCH  32  35
ENDBRANCH  28  29
ENDBRANCH  26  28
ENDBRANCH  23  24
ENDBRANCH   7  23
TORSDOF 10
ENDMDL
MODEL 8
REMARK VINA RESULT:      -7.7      7.016     10.813
REMARK  Name = 
REMARK  12 active torsions:
REMARK  status: ('A' for Active; 'I' for Inactive)
REMARK    1  A    between atoms: C_1  and  C_2
REMARK    2  A    between atoms: C_2  and  C_3
REMARK    3  A    between atoms: C_3  and  C_4
REMARK    4  A    between atoms: C_4  and  C_5
REMARK    5  A    between atoms: C_5  and  C_6
REMARK    6  A    between atoms: C_5  and  N_7
REMARK    7  A    between atoms: C_12  and  C_13
REMARK    8  A    between atoms: N_19  and  C_20
REMARK    9  A    between atoms: C_20  and  C_21
REMARK   10  A    between atoms: N_23  and  C_24
REMARK   11  A    between atoms: C_24  and  C_25
REMARK   12  A    between atoms: C_28  and  C_29
REMARK                            x       y       z     vdW  Elec       q    Type
REMARK                         _______ _______ _______ _____ _____    ______ ____
ROOT
ATOM      1  N   UNL     1      -3.379  11.265  18.971  0.00  0.00    +0.000 N 
ATOM      2  C   UNL     1      -2.200  11.938  19.240  0.00  0.00    +0.000 A 
ATOM      3  N   UNL     1      -2.135  13.227  19.415  0.00  0.00    +0.000 NA
ATOM      4  C   UNL     1      -0.898  13.753  19.704  0.00  0.00    +0.000 A 
ATOM      5 CL   UNL     1      -0.824  15.486  19.547  0.00  0.00    +0.000 Cl
ATOM      6  C   UNL     1       0.181  13.018  20.068  0.00  0.00    +0.000 A 
ATOM      7  N   UNL     1       0.095  11.616  20.062  0.00  0.00    +0.000 N 
ATOM      8  C   UNL     1      -0.931  11.068  19.301  0.00  0.00    +0.000 A 
ATOM      9  O   UNL     1      -0.926  10.008  18.688  0.00  0.00    +0.000 OA
ATOM     10  H   UNL     1      -3.224  10.300  18.685  0.00  0.00    +0.000 HD
ENDROOT
BRANCH   6  11
ATOM     11  C   UNL     1       1.495  13.661  20.312  0.00  0.00    +0.000 A 
ATOM     12  C   UNL     1       1.809  14.209  21.560  0.00  0.00    +0.000 A 
ATOM     13  C   UNL     1       3.028  14.873  21.752  0.00  0.00    +0.000 A 
ATOM     14  C   UNL     1       3.939  14.981  20.702  0.00  0.00    +0.000 A 
ATOM     15  C   UNL     1       3.646  14.422  19.460  0.00  0.00    +0.000 A 
ATOM     16  C   UNL     1       2.428  13.765  19.266  0.00  0.00    +0.000 A 
ENDBRANCH   6  11
BRANCH   1  17
ATOM     17  C   UNL     1      -4.528  11.913  18.354  0.00  0.00    +0.000 C 
ATOM     18  C   UNL     1      -5.747  11.661  19.245  0.00  0.00    +0.000 C 
BRANCH  17  19
ATOM     19  C   UNL     1      -4.710  11.354  16.932  0.00  0.00    +0.000 C 
BRANCH  19  20
ATOM     20  C   UNL     1      -3.395  11.242  16.164  0.00  0.00    +0.000 C 
BRANCH  20  22
ATOM     21  C   UNL     1      -2.874   9.901  14.113  0.00  0.00    +0.000 C 
ATOM     22  C   UNL     1      -3.193   9.838  15.598  0.00  0.00    +0.000 C 
ENDBRANCH  20  22
ENDBRANCH  19  20
ENDBRANCH  17  19
ENDBRANCH   1  17
BRANCH   7  23
ATOM     23  C   UNL     1       1.265  10.795  20.348  0.00  0.00    +0.000 C 
BRANCH  23  24
ATOM     24  C   UNL     1       1.101   9.609  21.316  0.00  0.00    +0.000 C 
ATOM     25  O   UNL     1       0.739   9.723  22.486  0.00  0.00    +0.000 OA
ATOM     26  N   UNL     1       1.459   8.369  20.848  0.00  0.00    +0.000 N 
ATOM     27  H   UNL     1       1.267   7.613  21.494  0.00  0.00    +0.000 HD
BRANCH  26  28
ATOM     28  C   UNL     1       2.033   8.054  19.553  0.00  0.00    +0.000 C 
BRANCH  28  29
ATOM     29  C   UNL     1       2.253   6.575  19.344  0.00  0.00    +0.000 A 
ATOM     30  C   UNL     1       2.756   6.104  18.119  0.00  0.00    +0.000 A 
ATOM     31  C   UNL     1       2.930   4.735  17.896  0.00  0.00    +0.000 A 
ATOM     32  C   UNL     1       2.616   3.817  18.903  0.00  0.00    +0.000 A 
ATOM     33  C   UNL     1       2.147   4.279  20.137  0.00  0.00    +0.000 A 
ATOM     34  C   UNL     1       1.973   5.648  20.357  0.00  0.00    +0.000 A 
BRANCH  32  35
ATOM     35  C   UNL     1       2.733   2.352  18.667  0.00  0.00    +0.000 C 
ATOM     36  N   UNL     1       3.816   1.789  18.235  0.00  0.00    +0.000 NA
ATOM     37  N   UNL     1       1.666   1.534  18.891  0.00  0.00    +0.000 N 
ATOM     38  H   UNL     1       4.579   2.465  18.139  0.00  0.00    +0.000 HD
ATOM     39  H   UNL     1       0.753   1.921  18.685  0.00  0.00    +0.000 HD
ATOM     40  H   UNL     1       1.811   0.620  18.472  0.00  0.00    +0.000 HD
ENDBRANCH  32  35
ENDBRANCH  28  29
ENDBRANCH  26  28
ENDBRANCH  23  24
ENDBRANCH   7  23
TORSDOF 10
ENDMDL
MODEL 9
REMARK VINA RESULT:      -7.6      7.269     11.228
REMARK  Name = 
REMARK  12 active torsions:
REMARK  status: ('A' for Active; 'I' for Inactive)
REMARK    1  A    between atoms: C_1  and  C_2
REMARK    2  A    between atoms: C_2  and  C_3
REMARK    3  A    between atoms: C_3  and  C_4
REMARK    4  A    between atoms: C_4  and  C_5
REMARK    5  A    between atoms: C_5  and  C_6
REMARK    6  A    between atoms: C_5  and  N_7
REMARK    7  A    between atoms: C_12  and  C_13
REMARK    8  A    between atoms: N_19  and  C_20
REMARK    9  A    between atoms: C_20  and  C_21
REMARK   10  A    between atoms: N_23  and  C_24
REMARK   11  A    between atoms: C_24  and  C_25
REMARK   12  A    between atoms: C_28  and  C_29
REMARK                            x       y       z     vdW  Elec       q    Type
REMARK                         _______ _______ _______ _____ _____    ______ ____
ROOT
ATOM      1  N   UNL     1      -3.847  11.723  19.752  0.00  0.00    +0.000 N 
ATOM      2  C   UNL     1      -2.586  12.292  19.718  0.00  0.00    +0.000 A 
ATOM      3  N   UNL     1      -2.370  13.565  19.887  0.00  0.00    +0.000 NA
ATOM      4  C   UNL     1      -1.061  13.983  19.855  0.00  0.00    +0.000 A 
ATOM      5 CL   UNL     1      -0.885  15.709  19.708  0.00  0.00    +0.000 Cl
ATOM      6  C   UNL     1       0.009  13.154  19.921  0.00  0.00    +0.000 A 
ATOM      7  N   UNL     1      -0.193  11.765  19.919  0.00  0.00    +0.000 N 
ATOM      8  C   UNL     1      -1.422  11.324  19.440  0.00  0.00    +0.000 A 
ATOM      9  O   UNL     1      -1.662  10.288  18.833  0.00  0.00    +0.000 OA
ATOM     10  H   UNL     1      -3.852  10.758  19.424  0.00  0.00    +0.000 HD
ENDROOT
BRANCH   6  11
ATOM     11  C   UNL     1       1.391  13.685  19.828  0.00  0.00    +0.000 A 
ATOM     12  C   UNL     1       2.021  13.840  18.589  0.00  0.00    +0.000 A 
ATOM     13  C   UNL     1       3.351  14.279  18.525  0.00  0.00    +0.000 A 
ATOM     14  C   UNL     1       4.049  14.571  19.695  0.00  0.00    +0.000 A 
ATOM     15  C   UNL     1       3.425  14.438  20.934  0.00  0.00    +0.000 A 
ATOM     16  C   UNL     1       2.102  13.997  21.000  0.00  0.00    +0.000 A 
ENDBRANCH   6  11
BRANCH   1  17
ATOM     17  C   UNL     1      -5.057  12.479  19.460  0.00  0.00    +0.000 C 
ATOM     18  C   UNL     1      -5.929  12.480  20.718  0.00  0.00    +0.000 C 
BRANCH  17  19
ATOM     19  C   UNL     1      -5.763  11.838  18.251  0.00  0.00    +0.000 C 
BRANCH  19  20
ATOM     20  C   UNL     1      -4.983  12.003  16.949  0.00  0.00    +0.000 C 
BRANCH  20  22
ATOM     21  C   UNL     1      -3.203  10.981  15.515  0.00  0.00    +0.000 C 
ATOM     22  C   UNL     1      -4.286  10.706  16.545  0.00  0.00    +0.000 C 
ENDBRANCH  20  22
ENDBRANCH  19  20
ENDBRANCH  17  19
ENDBRANCH   1  17
BRANCH   7  23
ATOM     23  C   UNL     1       0.938  10.846  19.885  0.00  0.00    +0.000 C 
BRANCH  23  24
ATOM     24  C   UNL     1       1.052   9.791  21.001  0.00  0.00    +0.000 C 
ATOM     25  O   UNL     1       0.805  10.015  22.185  0.00  0.00    +0.000 OA
ATOM     26  N   UNL     1       1.530   8.555  20.643  0.00  0.00    +0.000 N 
ATOM     27  H   UNL     1       1.519   7.875  21.394  0.00  0.00    +0.000 HD
BRANCH  26  28
ATOM     28  C   UNL     1       1.999   8.143  19.334  0.00  0.00    +0.000 C 
BRANCH  28  29
ATOM     29  C   UNL     1       2.222   6.654  19.223  0.00  0.00    +0.000 A 
ATOM     30  C   UNL     1       2.731   6.105  18.034  0.00  0.00    +0.000 A 
ATOM     31  C   UNL     1       2.908   4.724  17.901  0.00  0.00    +0.000 A 
ATOM     32  C   UNL     1       2.591   3.874  18.965  0.00  0.00    +0.000 A 
ATOM     33  C   UNL     1       2.116   4.415  20.164  0.00  0.00    +0.000 A 
ATOM     34  C   UNL     1       1.939   5.795  20.294  0.00  0.00    +0.000 A 
BRANCH  32  35
ATOM     35  C   UNL     1       2.711   2.396  18.826  0.00  0.00    +0.000 C 
ATOM     36  N   UNL     1       1.698   1.594  18.905  0.00  0.00    +0.000 NA
ATOM     37  N   UNL     1       3.930   1.823  18.622  0.00  0.00    +0.000 N 
ATOM     38  H   UNL     1       0.819   2.107  19.011  0.00  0.00    +0.000 HD
ATOM     39  H   UNL     1       4.718   2.267  19.080  0.00  0.00    +0.000 HD
ATOM     40  H   UNL     1       3.895   0.820  18.782  0.00  0.00    +0.000 HD
ENDBRANCH  32  35
ENDBRANCH  28  29
ENDBRANCH  26  28
ENDBRANCH  23  24
ENDBRANCH   7  23
TORSDOF 10
ENDMDL
