MODEL 1
REMARK VINA RESULT:      -7.5      0.000      0.000
REMARK  Name = 
REMARK  6 active torsions:
REMARK  status: ('A' for Active; 'I' for Inactive)
REMARK    1  A    between atoms: C_1  and  C_2
REMARK    2  A    between atoms: C_2  and  C_18
REMARK    3  A    between atoms: N_3  and  N_4
REMARK    4  A    between atoms: C_5  and  C_7
REMARK    5  A    between atoms: C_10  and  N_11
REMARK    6  A    between atoms: N_20  and  C_21
REMARK                            x       y       z     vdW  Elec       q    Type
REMARK                         _______ _______ _______ _____ _____    ______ ____
ROOT
ATOM      1  C   UNL     1       1.589   5.633  20.753  0.00  0.00    +0.000 C 
ATOM      2  C   UNL     1       2.463   6.483  19.863  0.00  0.00    +0.000 C 
ATOM      3  N   UNL     1       2.390   7.775  19.687  0.00  0.00    +0.000 NA
ENDROOT
BRANCH   3   4
ATOM      4  N   UNL     1       1.426   8.491  20.347  0.00  0.00    +0.000 N 
ATOM      5  C   UNL     1       0.996   9.711  19.843  0.00  0.00    +0.000 C 
ATOM      6  O   UNL     1       1.412  10.223  18.809  0.00  0.00    +0.000 OA
ATOM      7  H   UNL     1       1.095   8.184  21.251  0.00  0.00    +0.000 HD
BRANCH   5   8
ATOM      8  C   UNL     1      -0.010  10.452  20.675  0.00  0.00    +0.000 A 
ATOM      9  C   UNL     1      -0.847  11.365  20.025  0.00  0.00    +0.000 A 
ATOM     10  C   UNL     1      -1.800  12.106  20.738  0.00  0.00    +0.000 A 
ATOM     11  C   UNL     1      -1.943  11.942  22.123  0.00  0.00    +0.000 A 
ATOM     12  C   UNL     1      -1.114  11.013  22.773  0.00  0.00    +0.000 A 
ATOM     13  C   UNL     1      -0.160  10.269  22.055  0.00  0.00    +0.000 A 
BRANCH  11  14
ATOM     14  N   UNL     1      -2.923  12.695  22.850  0.00  0.00    +0.000 N 
ATOM     15  C   UNL     1      -3.667  12.256  23.933  0.00  0.00    +0.000 A 
ATOM     16  C   UNL     1      -4.479  13.276  24.381  0.00  0.00    +0.000 A 
ATOM     17  C   UNL     1      -4.254  14.383  23.543  0.00  0.00    +0.000 A 
ATOM     18  C   UNL     1      -3.310  14.003  22.612  0.00  0.00    +0.000 A 
ENDBRANCH  11  14
ENDBRANCH   5   8
ENDBRANCH   3   4
BRANCH   2  19
ATOM     19  C   UNL     1       3.526   5.692  19.098  0.00  0.00    +0.000 C 
ATOM     20  O   UNL     1       4.142   4.823  19.698  0.00  0.00    +0.000 OA
ATOM     21  N   UNL     1       3.753   6.095  17.791  0.00  0.00    +0.000 N 
ATOM     22  H   UNL     1       3.534   7.071  17.601  0.00  0.00    +0.000 HD
BRANCH  21  23
ATOM     23  C   UNL     1       4.727   5.443  16.984  0.00  0.00    +0.000 A 
ATOM     24  C   UNL     1       5.969   6.034  16.674  0.00  0.00    +0.000 A 
ATOM     25 CL   UNL     1       6.502   7.522  17.388  0.00  0.00    +0.000 Cl
ATOM     26  C   UNL     1       6.893   5.370  15.856  0.00  0.00    +0.000 A 
ATOM     27  C   UNL     1       6.603   4.110  15.343  0.00  0.00    +0.000 A 
ATOM     28  C   UNL     1       5.391   3.500  15.662  0.00  0.00    +0.000 A 
ATOM     29  C   UNL     1       4.465   4.154  16.486  0.00  0.00    +0.000 A 
ATOM     30 CL   UNL     1       2.959   3.362  16.796  0.00  0.00    +0.000 Cl
ENDBRANCH  21  23
ENDBRANCH   2  19
TORSDOF 5
ENDMDL
MODEL 2
REMARK VINA RESULT:      -7.5      0.541      1.811
REMARK  Name = 
REMARK  6 active torsions:
REMARK  status: ('A' for Active; 'I' for Inactive)
REMARK    1  A    between atoms: C_1  and  C_2
REMARK    2  A    between atoms: C_2  and  C_18
REMARK    3  A    between atoms: N_3  and  N_4
REMARK    4  A    between atoms: C_5  and  C_7
REMARK    5  A    between atoms: C_10  and  N_11
REMARK    6  A    between atoms: N_20  and  C_21
REMARK                            x       y       z     vdW  Elec       q    Type
REMARK                         _______ _______ _______ _____ _____    ______ ____
ROOT
ATOM      1  C   UNL     1       1.484   5.344  20.725  0.00  0.00    +0.000 C 
ATOM      2  C   UNL     1       2.484   6.190  19.975  0.00  0.00    +0.000 C 
ATOM      3  N   UNL     1       2.567   7.493  19.967  0.00  0.00    +0.000 NA
ENDROOT
BRANCH   3   4
ATOM      4  N   UNL     1       1.667   8.229  20.691  0.00  0.00    +0.000 N 
ATOM      5  C   UNL     1       0.997   9.292  20.099  0.00  0.00    +0.000 C 
ATOM      6  O   UNL     1       1.138   9.639  18.930  0.00  0.00    +0.000 OA
ATOM      7  H   UNL     1       1.559   8.066  21.683  0.00  0.00    +0.000 HD
BRANCH   5   8
ATOM      8  C   UNL     1       0.087  10.080  20.994  0.00  0.00    +0.000 A 
ATOM      9  C   UNL     1      -0.543  11.206  20.453  0.00  0.00    +0.000 A 
ATOM     10  C   UNL     1      -1.395  12.002  21.233  0.00  0.00    +0.000 A 
ATOM     11  C   UNL     1      -1.642  11.682  22.575  0.00  0.00    +0.000 A 
ATOM     12  C   UNL     1      -1.023  10.542  23.113  0.00  0.00    +0.000 A 
ATOM     13  C   UNL     1      -0.171   9.744  22.329  0.00  0.00    +0.000 A 
BRANCH  11  14
ATOM     14  N   UNL     1      -2.520  12.492  23.369  0.00  0.00    +0.000 N 
ATOM     15  C   UNL     1      -3.676  12.077  24.008  0.00  0.00    +0.000 A 
ATOM     16  C   UNL     1      -4.228  13.134  24.699  0.00  0.00    +0.000 A 
ATOM     17  C   UNL     1      -3.406  14.252  24.473  0.00  0.00    +0.000 A 
ATOM     18  C   UNL     1      -2.377  13.840  23.652  0.00  0.00    +0.000 A 
ENDBRANCH  11  14
ENDBRANCH   5   8
ENDBRANCH   3   4
BRANCH   2  19
ATOM     19  C   UNL     1       3.478   5.381  19.139  0.00  0.00    +0.000 C 
ATOM     20  O   UNL     1       3.963   4.374  19.634  0.00  0.00    +0.000 OA
ATOM     21  N   UNL     1       3.803   5.917  17.902  0.00  0.00    +0.000 N 
ATOM     22  H   UNL     1       3.707   6.929  17.838  0.00  0.00    +0.000 HD
BRANCH  21  23
ATOM     23  C   UNL     1       4.726   5.261  17.041  0.00  0.00    +0.000 A 
ATOM     24  C   UNL     1       4.474   3.986  16.494  0.00  0.00    +0.000 A 
ATOM     25 CL   UNL     1       2.948   3.178  16.666  0.00  0.00    +0.000 Cl
ATOM     26  C   UNL     1       5.418   3.362  15.668  0.00  0.00    +0.000 A 
ATOM     27  C   UNL     1       6.620   3.996  15.367  0.00  0.00    +0.000 A 
ATOM     28  C   UNL     1       6.874   5.267  15.878  0.00  0.00    +0.000 A 
ATOM     29  C   UNL     1       5.931   5.901  16.698  0.00  0.00    +0.000 A 
ATOM     30 CL   UNL     1       6.334   7.454  17.342  0.00  0.00    +0.000 Cl
ENDBRANCH  21  23
ENDBRANCH   2  19
TORSDOF 5
ENDMDL
MODEL 3
REMARK VINA RESULT:      -7.3      4.356     11.289
REMARK  Name = 
REMARK  6 active torsions:
REMARK  status: ('A' for Active; 'I' for Inactive)
REMARK    1  A    between atoms: C_1  and  C_2
REMARK    2  A    between atoms: C_2  and  C_18
REMARK    3  A    between atoms: N_3  and  N_4
REMARK    4  A    between atoms: C_5  and  C_7
REMARK    5  A    between atoms: C_10  and  N_11
REMARK    6  A    between atoms: N_20  and  C_21
REMARK                            x       y       z     vdW  Elec       q    Type
REMARK                         _______ _______ _______ _____ _____    ______ ____
ROOT
ATOM      1  C   UNL     1      -1.160  10.963  23.049  0.00  0.00    +0.000 C 
ATOM      2  C   UNL     1      -0.843  12.134  22.151  0.00  0.00    +0.000 C 
ATOM      3  N   UNL     1       0.000  12.159  21.155  0.00  0.00    +0.000 NA
ENDROOT
BRANCH   3   4
ATOM      4  N   UNL     1       0.714  11.030  20.849  0.00  0.00    +0.000 N 
ATOM      5  C   UNL     1       0.501  10.375  19.643  0.00  0.00    +0.000 C 
ATOM      6  O   UNL     1      -0.297  10.739  18.785  0.00  0.00    +0.000 OA
ATOM      7  H   UNL     1       1.327  10.614  21.537  0.00  0.00    +0.000 HD
BRANCH   5   8
ATOM      8  C   UNL     1       1.280   9.110  19.432  0.00  0.00    +0.000 A 
ATOM      9  C   UNL     1       1.870   8.910  18.179  0.00  0.00    +0.000 A 
ATOM     10  C   UNL     1       2.599   7.745  17.902  0.00  0.00    +0.000 A 
ATOM     11  C   UNL     1       2.762   6.754  18.880  0.00  0.00    +0.000 A 
ATOM     12  C   UNL     1       2.185   6.962  20.143  0.00  0.00    +0.000 A 
ATOM     13  C   UNL     1       1.456   8.133  20.419  0.00  0.00    +0.000 A 
BRANCH  11  14
ATOM     14  N   UNL     1       3.515   5.567  18.597  0.00  0.00    +0.000 N 
ATOM     15  C   UNL     1       4.701   5.177  19.197  0.00  0.00    +0.000 A 
ATOM     16  C   UNL     1       5.102   3.962  18.684  0.00  0.00    +0.000 A 
ATOM     17  C   UNL     1       4.151   3.585  17.720  0.00  0.00    +0.000 A 
ATOM     18  C   UNL     1       3.199   4.581  17.676  0.00  0.00    +0.000 A 
ENDBRANCH  11  14
ENDBRANCH   5   8
ENDBRANCH   3   4
BRANCH   2  19
ATOM     19  C   UNL     1      -1.613  13.410  22.499  0.00  0.00    +0.000 C 
ATOM     20  O   UNL     1      -1.290  14.449  21.941  0.00  0.00    +0.000 OA
ATOM     21  N   UNL     1      -2.571  13.284  23.493  0.00  0.00    +0.000 N 
ATOM     22  H   UNL     1      -2.399  12.532  24.158  0.00  0.00    +0.000 HD
BRANCH  21  23
ATOM     23  C   UNL     1      -3.341  14.405  23.911  0.00  0.00    +0.000 A 
ATOM     24  C   UNL     1      -2.847  15.364  24.820  0.00  0.00    +0.000 A 
ATOM     25 CL   UNL     1      -1.202  15.372  25.372  0.00  0.00    +0.000 Cl
ATOM     26  C   UNL     1      -3.645  16.442  25.227  0.00  0.00    +0.000 A 
ATOM     27  C   UNL     1      -4.938  16.589  24.732  0.00  0.00    +0.000 A 
ATOM     28  C   UNL     1      -5.431  15.665  23.812  0.00  0.00    +0.000 A 
ATOM     29  C   UNL     1      -4.637  14.589  23.395  0.00  0.00    +0.000 A 
ATOM     30 CL   UNL     1      -5.332  13.451  22.294  0.00  0.00    +0.000 Cl
ENDBRANCH  21  23
ENDBRANCH   2  19
TORSDOF 5
ENDMDL
MODEL 4
REMARK VINA RESULT:      -7.3      4.119     11.175
REMARK  Name = 
REMARK  6 active torsions:
REMARK  status: ('A' for Active; 'I' for Inactive)
REMARK    1  A    between atoms: C_1  and  C_2
REMARK    2  A    between atoms: C_2  and  C_18
REMARK    3  A    between atoms: N_3  and  N_4
REMARK    4  A    between atoms: C_5  and  C_7
REMARK    5  A    between atoms: C_10  and  N_11
REMARK    6  A    between atoms: N_20  and  C_21
REMARK                            x       y       z     vdW  Elec       q    Type
REMARK                         _______ _______ _______ _____ _____    ______ ____
ROOT
ATOM      1  C   UNL     1      -1.014  10.472  23.120  0.00  0.00    +0.000 C 
ATOM      2  C   UNL     1      -0.646  11.751  22.408  0.00  0.00    +0.000 C 
ATOM      3  N   UNL     1       0.244  11.901  21.464  0.00  0.00    +0.000 NA
ENDROOT
BRANCH   3   4
ATOM      4  N   UNL     1       0.962  10.814  21.038  0.00  0.00    +0.000 N 
ATOM      5  C   UNL     1       0.592  10.144  19.879  0.00  0.00    +0.000 C 
ATOM      6  O   UNL     1      -0.357  10.458  19.167  0.00  0.00    +0.000 OA
ATOM      7  H   UNL     1       1.703  10.437  21.612  0.00  0.00    +0.000 HD
BRANCH   5   8
ATOM      8  C   UNL     1       1.397   8.926  19.534  0.00  0.00    +0.000 A 
ATOM      9  C   UNL     1       1.948   8.852  18.250  0.00  0.00    +0.000 A 
ATOM     10  C   UNL     1       2.699   7.737  17.850  0.00  0.00    +0.000 A 
ATOM     11  C   UNL     1       2.923   6.672  18.733  0.00  0.00    +0.000 A 
ATOM     12  C   UNL     1       2.385   6.754  20.028  0.00  0.00    +0.000 A 
ATOM     13  C   UNL     1       1.634   7.875  20.428  0.00  0.00    +0.000 A 
BRANCH  11  14
ATOM     14  N   UNL     1       3.698   5.537  18.325  0.00  0.00    +0.000 N 
ATOM     15  C   UNL     1       3.309   4.544  17.440  0.00  0.00    +0.000 A 
ATOM     16  C   UNL     1       4.338   3.642  17.276  0.00  0.00    +0.000 A 
ATOM     17  C   UNL     1       5.398   4.067  18.095  0.00  0.00    +0.000 A 
ATOM     18  C   UNL     1       4.983   5.218  18.732  0.00  0.00    +0.000 A 
ENDBRANCH  11  14
ENDBRANCH   5   8
ENDBRANCH   3   4
BRANCH   2  19
ATOM     19  C   UNL     1      -1.420  12.978  22.894  0.00  0.00    +0.000 C 
ATOM     20  O   UNL     1      -0.936  13.645  23.799  0.00  0.00    +0.000 OA
ATOM     21  N   UNL     1      -2.660  13.180  22.309  0.00  0.00    +0.000 N 
ATOM     22  H   UNL     1      -3.108  12.336  21.957  0.00  0.00    +0.000 HD
BRANCH  21  23
ATOM     23  C   UNL     1      -3.477  14.280  22.690  0.00  0.00    +0.000 A 
ATOM     24  C   UNL     1      -4.454  14.181  23.702  0.00  0.00    +0.000 A 
ATOM     25 CL   UNL     1      -4.629  12.772  24.700  0.00  0.00    +0.000 Cl
ATOM     26  C   UNL     1      -5.257  15.281  24.033  0.00  0.00    +0.000 A 
ATOM     27  C   UNL     1      -5.096  16.495  23.372  0.00  0.00    +0.000 A 
ATOM     28  C   UNL     1      -4.117  16.618  22.388  0.00  0.00    +0.000 A 
ATOM     29  C   UNL     1      -3.305  15.525  22.057  0.00  0.00    +0.000 A 
ATOM     30 CL   UNL     1      -2.148  15.732  20.789  0.00  0.00    +0.000 Cl
ENDBRANCH  21  23
ENDBRANCH   2  19
TORSDOF 5
ENDMDL
MODEL 5
REMARK VINA RESULT:      -7.3      4.324     11.461
REMARK  Name = 
REMARK  6 active torsions:
REMARK  status: ('A' for Active; 'I' for Inactive)
REMARK    1  A    between atoms: C_1  and  C_2
REMARK    2  A    between atoms: C_2  and  C_18
REMARK    3  A    between atoms: N_3  and  N_4
REMARK    4  A    between atoms: C_5  and  C_7
REMARK    5  A    between atoms: C_10  and  N_11
REMARK    6  A    between atoms: N_20  and  C_21
REMARK                            x       y       z     vdW  Elec       q    Type
REMARK                         _______ _______ _______ _____ _____    ______ ____
ROOT
ATOM      1  C   UNL     1      -1.213  11.088  23.025  0.00  0.00    +0.000 C 
ATOM      2  C   UNL     1      -1.604  11.881  21.802  0.00  0.00    +0.000 C 
ATOM      3  N   UNL     1      -1.315  11.609  20.559  0.00  0.00    +0.000 NA
ENDROOT
BRANCH   3   4
ATOM      4  N   UNL     1      -0.566  10.498  20.269  0.00  0.00    +0.000 N 
ATOM      5  C   UNL     1       0.647  10.627  19.607  0.00  0.00    +0.000 C 
ATOM      6  O   UNL     1       1.135  11.695  19.250  0.00  0.00    +0.000 OA
ATOM      7  H   UNL     1      -0.937   9.575  20.449  0.00  0.00    +0.000 HD
BRANCH   5   8
ATOM      8  C   UNL     1       1.357   9.348  19.273  0.00  0.00    +0.000 A 
ATOM      9  C   UNL     1       1.463   8.381  20.278  0.00  0.00    +0.000 A 
ATOM     10  C   UNL     1       2.126   7.167  20.046  0.00  0.00    +0.000 A 
ATOM     11  C   UNL     1       2.692   6.890  18.794  0.00  0.00    +0.000 A 
ATOM     12  C   UNL     1       2.571   7.854  17.779  0.00  0.00    +0.000 A 
ATOM     13  C   UNL     1       1.903   9.070  18.014  0.00  0.00    +0.000 A 
BRANCH  11  14
ATOM     14  N   UNL     1       3.363   5.645  18.556  0.00  0.00    +0.000 N 
ATOM     15  C   UNL     1       3.560   4.624  19.470  0.00  0.00    +0.000 A 
ATOM     16  C   UNL     1       4.216   3.576  18.859  0.00  0.00    +0.000 A 
ATOM     17  C   UNL     1       4.455   3.957  17.527  0.00  0.00    +0.000 A 
ATOM     18  C   UNL     1       3.936   5.224  17.367  0.00  0.00    +0.000 A 
ENDBRANCH  11  14
ENDBRANCH   5   8
ENDBRANCH   3   4
BRANCH   2  19
ATOM     19  C   UNL     1      -2.417  13.140  22.113  0.00  0.00    +0.000 C 
ATOM     20  O   UNL     1      -2.404  14.051  21.297  0.00  0.00    +0.000 OA
ATOM     21  N   UNL     1      -3.040  13.166  23.350  0.00  0.00    +0.000 N 
ATOM     22  H   UNL     1      -2.593  12.595  24.065  0.00  0.00    +0.000 HD
BRANCH  21  23
ATOM     23  C   UNL     1      -3.813  14.289  23.756  0.00  0.00    +0.000 A 
ATOM     24  C   UNL     1      -5.168  14.443  23.398  0.00  0.00    +0.000 A 
ATOM     25 CL   UNL     1      -6.070  13.201  22.590  0.00  0.00    +0.000 Cl
ATOM     26  C   UNL     1      -5.890  15.576  23.797  0.00  0.00    +0.000 A 
ATOM     27  C   UNL     1      -5.281  16.566  24.564  0.00  0.00    +0.000 A 
ATOM     28  C   UNL     1      -3.950  16.417  24.948  0.00  0.00    +0.000 A 
ATOM     29  C   UNL     1      -3.225  15.283  24.560  0.00  0.00    +0.000 A 
ATOM     30 CL   UNL     1      -1.562  15.189  25.026  0.00  0.00    +0.000 Cl
ENDBRANCH  21  23
ENDBRANCH   2  19
TORSDOF 5
ENDMDL
MODEL 6
REMARK VINA RESULT:      -7.3      4.209     11.134
REMARK  Name = 
REMARK  6 active torsions:
REMARK  status: ('A' for Active; 'I' for Inactive)
REMARK    1  A    between atoms: C_1  and  C_2
REMARK    2  A    between atoms: C_2  and  C_18
REMARK    3  A    between atoms: N_3  and  N_4
REMARK    4  A    between atoms: C_5  and  C_7
REMARK    5  A    between atoms: C_10  and  N_11
REMARK    6  A    between atoms: N_20  and  C_21
REMARK                            x       y       z     vdW  Elec       q    Type
REMARK                         _______ _______ _______ _____ _____    ______ ____
ROOT
ATOM      1  C   UNL     1      -1.101  10.662  23.040  0.00  0.00    +0.000 C 
ATOM      2  C   UNL     1      -0.640  11.939  22.381  0.00  0.00    +0.000 C 
ATOM      3  N   UNL     1       0.273  12.065  21.457  0.00  0.00    +0.000 NA
ENDROOT
BRANCH   3   4
ATOM      4  N   UNL     1       0.929  10.952  21.001  0.00  0.00    +0.000 N 
ATOM      5  C   UNL     1       0.670  10.462  19.728  0.00  0.00    +0.000 C 
ATOM      6  O   UNL     1      -0.121  10.965  18.936  0.00  0.00    +0.000 OA
ATOM      7  H   UNL     1       1.529  10.427  21.621  0.00  0.00    +0.000 HD
BRANCH   5   8
ATOM      8  C   UNL     1       1.385   9.198  19.349  0.00  0.00    +0.000 A 
ATOM      9  C   UNL     1       1.543   8.218  20.335  0.00  0.00    +0.000 A 
ATOM     10  C   UNL     1       2.214   7.018  20.061  0.00  0.00    +0.000 A 
ATOM     11  C   UNL     1       2.736   6.767  18.785  0.00  0.00    +0.000 A 
ATOM     12  C   UNL     1       2.563   7.743  17.790  0.00  0.00    +0.000 A 
ATOM     13  C   UNL     1       1.887   8.946  18.067  0.00  0.00    +0.000 A 
BRANCH  11  14
ATOM     14  N   UNL     1       3.416   5.536  18.503  0.00  0.00    +0.000 N 
ATOM     15  C   UNL     1       4.058   5.196  17.324  0.00  0.00    +0.000 A 
ATOM     16  C   UNL     1       4.620   3.944  17.447  0.00  0.00    +0.000 A 
ATOM     17  C   UNL     1       4.306   3.473  18.734  0.00  0.00    +0.000 A 
ATOM     18  C   UNL     1       3.564   4.455  19.357  0.00  0.00    +0.000 A 
ENDBRANCH  11  14
ENDBRANCH   5   8
ENDBRANCH   3   4
BRANCH   2  19
ATOM     19  C   UNL     1      -1.344  13.194  22.900  0.00  0.00    +0.000 C 
ATOM     20  O   UNL     1      -0.828  13.805  23.825  0.00  0.00    +0.000 OA
ATOM     21  N   UNL     1      -2.567  13.486  22.316  0.00  0.00    +0.000 N 
ATOM     22  H   UNL     1      -3.062  12.680  21.938  0.00  0.00    +0.000 HD
BRANCH  21  23
ATOM     23  C   UNL     1      -3.321  14.621  22.726  0.00  0.00    +0.000 A 
ATOM     24  C   UNL     1      -3.069  15.915  22.227  0.00  0.00    +0.000 A 
ATOM     25 CL   UNL     1      -1.947  16.221  20.939  0.00  0.00    +0.000 Cl
ATOM     26  C   UNL     1      -3.818  17.013  22.673  0.00  0.00    +0.000 A 
ATOM     27  C   UNL     1      -4.831  16.840  23.611  0.00  0.00    +0.000 A 
ATOM     28  C   UNL     1      -5.111  15.563  24.095  0.00  0.00    +0.000 A 
ATOM     29  C   UNL     1      -4.372  14.460  23.648  0.00  0.00    +0.000 A 
ATOM     30 CL   UNL     1      -4.736  12.914  24.330  0.00  0.00    +0.000 Cl
ENDBRANCH  21  23
ENDBRANCH   2  19
TORSDOF 5
ENDMDL
MODEL 7
REMARK VINA RESULT:      -7.3      0.473      2.052
REMARK  Name = 
REMARK  6 active torsions:
REMARK  status: ('A' for Active; 'I' for Inactive)
REMARK    1  A    between atoms: C_1  and  C_2
REMARK    2  A    between atoms: C_2  and  C_18
REMARK    3  A    between atoms: N_3  and  N_4
REMARK    4  A    between atoms: C_5  and  C_7
REMARK    5  A    between atoms: C_10  and  N_11
REMARK    6  A    between atoms: N_20  and  C_21
REMARK                            x       y       z     vdW  Elec       q    Type
REMARK                         _______ _______ _______ _____ _____    ______ ____
ROOT
ATOM      1  C   UNL     1       1.526   5.747  20.842  0.00  0.00    +0.000 C 
ATOM      2  C   UNL     1       2.389   6.513  19.869  0.00  0.00    +0.000 C 
ATOM      3  N   UNL     1       2.350   7.794  19.619  0.00  0.00    +0.000 NA
ENDROOT
BRANCH   3   4
ATOM      4  N   UNL     1       1.438   8.580  20.272  0.00  0.00    +0.000 N 
ATOM      5  C   UNL     1       0.821   9.633  19.608  0.00  0.00    +0.000 C 
ATOM      6  O   UNL     1       1.022   9.929  18.435  0.00  0.00    +0.000 OA
ATOM      7  H   UNL     1       1.281   8.460  21.263  0.00  0.00    +0.000 HD
BRANCH   5   8
ATOM      8  C   UNL     1      -0.107  10.478  20.430  0.00  0.00    +0.000 A 
ATOM      9  C   UNL     1      -0.114  10.280  21.815  0.00  0.00    +0.000 A 
ATOM     10  C   UNL     1      -0.967  11.021  22.646  0.00  0.00    +0.000 A 
ATOM     11  C   UNL     1      -1.828  11.987  22.108  0.00  0.00    +0.000 A 
ATOM     12  C   UNL     1      -1.809  12.198  20.720  0.00  0.00    +0.000 A 
ATOM     13  C   UNL     1      -0.951  11.455  19.888  0.00  0.00    +0.000 A 
BRANCH  11  14
ATOM     14  N   UNL     1      -2.693  12.749  22.961  0.00  0.00    +0.000 N 
ATOM     15  C   UNL     1      -2.322  13.782  23.806  0.00  0.00    +0.000 A 
ATOM     16  C   UNL     1      -3.439  14.289  24.435  0.00  0.00    +0.000 A 
ATOM     17  C   UNL     1      -4.542  13.541  23.989  0.00  0.00    +0.000 A 
ATOM     18  C   UNL     1      -4.064  12.602  23.099  0.00  0.00    +0.000 A 
ENDBRANCH  11  14
ENDBRANCH   5   8
ENDBRANCH   3   4
BRANCH   2  19
ATOM     19  C   UNL     1       3.393   5.643  19.111  0.00  0.00    +0.000 C 
ATOM     20  O   UNL     1       3.841   4.654  19.675  0.00  0.00    +0.000 OA
ATOM     21  N   UNL     1       3.771   6.107  17.861  0.00  0.00    +0.000 N 
ATOM     22  H   UNL     1       3.699   7.116  17.740  0.00  0.00    +0.000 HD
BRANCH  21  23
ATOM     23  C   UNL     1       4.710   5.389  17.068  0.00  0.00    +0.000 A 
ATOM     24  C   UNL     1       4.444   4.097  16.569  0.00  0.00    +0.000 A 
ATOM     25 CL   UNL     1       2.892   3.336  16.716  0.00  0.00    +0.000 Cl
ATOM     26  C   UNL     1       5.404   3.412  15.810  0.00  0.00    +0.000 A 
ATOM     27  C   UNL     1       6.633   4.001  15.529  0.00  0.00    +0.000 A 
ATOM     28  C   UNL     1       6.900   5.288  15.993  0.00  0.00    +0.000 A 
ATOM     29  C   UNL     1       5.943   5.983  16.744  0.00  0.00    +0.000 A 
ATOM     30 CL   UNL     1       6.363   7.553  17.333  0.00  0.00    +0.000 Cl
ENDBRANCH  21  23
ENDBRANCH   2  19
TORSDOF 5
ENDMDL
MODEL 8
REMARK VINA RESULT:      -7.2      4.341     11.352
REMARK  Name = 
REMARK  6 active torsions:
REMARK  status: ('A' for Active; 'I' for Inactive)
REMARK    1  A    between atoms: C_1  and  C_2
REMARK    2  A    between atoms: C_2  and  C_18
REMARK    3  A    between atoms: N_3  and  N_4
REMARK    4  A    between atoms: C_5  and  C_7
REMARK    5  A    between atoms: C_10  and  N_11
REMARK    6  A    between atoms: N_20  and  C_21
REMARK                            x       y       z     vdW  Elec       q    Type
REMARK                         _______ _______ _______ _____ _____    ______ ____
ROOT
ATOM      1  C   UNL     1      -1.185  11.067  23.083  0.00  0.00    +0.000 C 
ATOM      2  C   UNL     1      -1.538  11.857  21.846  0.00  0.00    +0.000 C 
ATOM      3  N   UNL     1      -1.210  11.581  20.613  0.00  0.00    +0.000 NA
ENDROOT
BRANCH   3   4
ATOM      4  N   UNL     1      -0.454  10.469  20.350  0.00  0.00    +0.000 N 
ATOM      5  C   UNL     1       0.634  10.553  19.491  0.00  0.00    +0.000 C 
ATOM      6  O   UNL     1       1.001  11.580  18.930  0.00  0.00    +0.000 OA
ATOM      7  H   UNL     1      -0.740   9.566  20.701  0.00  0.00    +0.000 HD
BRANCH   5   8
ATOM      8  C   UNL     1       1.355   9.266  19.211  0.00  0.00    +0.000 A 
ATOM      9  C   UNL     1       1.405   8.313  20.234  0.00  0.00    +0.000 A 
ATOM     10  C   UNL     1       2.074   7.094  20.053  0.00  0.00    +0.000 A 
ATOM     11  C   UNL     1       2.703   6.798  18.836  0.00  0.00    +0.000 A 
ATOM     12  C   UNL     1       2.638   7.748  17.803  0.00  0.00    +0.000 A 
ATOM     13  C   UNL     1       1.964   8.969  17.986  0.00  0.00    +0.000 A 
BRANCH  11  14
ATOM     14  N   UNL     1       3.380   5.548  18.650  0.00  0.00    +0.000 N 
ATOM     15  C   UNL     1       3.485   4.831  17.468  0.00  0.00    +0.000 A 
ATOM     16  C   UNL     1       4.239   3.698  17.680  0.00  0.00    +0.000 A 
ATOM     17  C   UNL     1       4.604   3.689  19.038  0.00  0.00    +0.000 A 
ATOM     18  C   UNL     1       4.062   4.820  19.611  0.00  0.00    +0.000 A 
ENDBRANCH  11  14
ENDBRANCH   5   8
ENDBRANCH   3   4
BRANCH   2  19
ATOM     19  C   UNL     1      -2.359  13.117  22.128  0.00  0.00    +0.000 C 
ATOM     20  O   UNL     1      -2.205  14.083  21.394  0.00  0.00    +0.000 OA
ATOM     21  N   UNL     1      -3.159  13.075  23.259  0.00  0.00    +0.000 N 
ATOM     22  H   UNL     1      -2.836  12.441  23.987  0.00  0.00    +0.000 HD
BRANCH  21  23
ATOM     23  C   UNL     1      -3.958  14.193  23.631  0.00  0.00    +0.000 A 
ATOM     24  C   UNL     1      -3.471  15.229  24.453  0.00  0.00    +0.000 A 
ATOM     25 CL   UNL     1      -1.808  15.338  24.938  0.00  0.00    +0.000 Cl
ATOM     26  C   UNL     1      -4.296  16.302  24.817  0.00  0.00    +0.000 A 
ATOM     27  C   UNL     1      -5.610  16.366  24.364  0.00  0.00    +0.000 A 
ATOM     28  C   UNL     1      -6.100  15.363  23.529  0.00  0.00    +0.000 A 
ATOM     29  C   UNL     1      -5.278  14.292  23.154  0.00  0.00    +0.000 A 
ATOM     30 CL   UNL     1      -5.967  13.055  22.161  0.00  0.00    +0.000 Cl
ENDBRANCH  21  23
ENDBRANCH   2  19
TORSDOF 5
ENDMDL
MODEL 9
REMARK VINA RESULT:      -7.2      4.413     11.561
REMARK  Name = 
REMARK  6 active torsions:
REMARK  status: ('A' for Active; 'I' for Inactive)
REMARK    1  A    between atoms: C_1  and  C_2
REMARK    2  A    between atoms: C_2  and  C_18
REMARK    3  A    between atoms: N_3  and  N_4
REMARK    4  A    between atoms: C_5  and  C_7
REMARK    5  A    between atoms: C_10  and  N_11
REMARK    6  A    between atoms: N_20  and  C_21
REMARK                            x       y       z     vdW  Elec       q    Type
REMARK                         _______ _______ _______ _____ _____    ______ ____
ROOT
ATOM      1  C   UNL     1      -1.491  11.329  22.934  0.00  0.00    +0.000 C 
ATOM      2  C   UNL     1      -1.789  12.243  21.770  0.00  0.00    +0.000 C 
ATOM      3  N   UNL     1      -1.488  12.047  20.515  0.00  0.00    +0.000 NA
ENDROOT
BRANCH   3   4
ATOM      4  N   UNL     1      -0.817  10.908  20.153  0.00  0.00    +0.000 N 
ATOM      5  C   UNL     1       0.567  10.920  20.039  0.00  0.00    +0.000 C 
ATOM      6  O   UNL     1       1.275  11.900  20.252  0.00  0.00    +0.000 OA
ATOM      7  H   UNL     1      -1.330  10.083  19.875  0.00  0.00    +0.000 HD
BRANCH   5   8
ATOM      8  C   UNL     1       1.202   9.645  19.568  0.00  0.00    +0.000 A 
ATOM      9  C   UNL     1       1.591   9.568  18.226  0.00  0.00    +0.000 A 
ATOM     10  C   UNL     1       2.176   8.403  17.710  0.00  0.00    +0.000 A 
ATOM     11  C   UNL     1       2.393   7.287  18.531  0.00  0.00    +0.000 A 
ATOM     12  C   UNL     1       2.018   7.370  19.882  0.00  0.00    +0.000 A 
ATOM     13  C   UNL     1       1.433   8.541  20.398  0.00  0.00    +0.000 A 
BRANCH  11  14
ATOM     14  N   UNL     1       2.998   6.099  18.003  0.00  0.00    +0.000 N 
ATOM     15  C   UNL     1       4.240   6.003  17.397  0.00  0.00    +0.000 A 
ATOM     16  C   UNL     1       4.486   4.691  17.052  0.00  0.00    +0.000 A 
ATOM     17  C   UNL     1       3.359   3.943  17.434  0.00  0.00    +0.000 A 
ATOM     18  C   UNL     1       2.461   4.822  18.002  0.00  0.00    +0.000 A 
ENDBRANCH  11  14
ENDBRANCH   5   8
ENDBRANCH   3   4
BRANCH   2  19
ATOM     19  C   UNL     1      -2.513  13.532  22.164  0.00  0.00    +0.000 C 
ATOM     20  O   UNL     1      -2.414  14.499  21.422  0.00  0.00    +0.000 OA
ATOM     21  N   UNL     1      -3.163  13.510  23.388  0.00  0.00    +0.000 N 
ATOM     22  H   UNL     1      -2.777  12.853  24.064  0.00  0.00    +0.000 HD
BRANCH  21  23
ATOM     23  C   UNL     1      -3.860  14.654  23.866  0.00  0.00    +0.000 A 
ATOM     24  C   UNL     1      -5.215  14.897  23.558  0.00  0.00    +0.000 A 
ATOM     25 CL   UNL     1      -6.208  13.743  22.725  0.00  0.00    +0.000 Cl
ATOM     26  C   UNL     1      -5.861  16.048  24.029  0.00  0.00    +0.000 A 
ATOM     27  C   UNL     1      -5.176  16.968  24.818  0.00  0.00    +0.000 A 
ATOM     28  C   UNL     1      -3.844  16.730  25.153  0.00  0.00    +0.000 A 
ATOM     29  C   UNL     1      -3.195  15.577  24.693  0.00  0.00    +0.000 A 
ATOM     30 CL   UNL     1      -1.527  15.372  25.102  0.00  0.00    +0.000 Cl
ENDBRANCH  21  23
ENDBRANCH   2  19
TORSDOF 5
ENDMDL
