MODEL 1
REMARK VINA RESULT:      -8.0      0.000      0.000
REMARK  Name = 
REMARK  3 active torsions:
REMARK  status: ('A' for Active; 'I' for Inactive)
REMARK    1  A    between atoms: C_1  and  O_2
REMARK    2  A    between atoms: O_2  and  C_3
REMARK    3  A    between atoms: N_12  and  C_13
REMARK                            x       y       z     vdW  Elec       q    Type
REMARK                         _______ _______ _______ _____ _____    ______ ____
ROOT
ATOM      1  C   UNL     1       1.343   7.372  20.616  0.00  0.00    +0.000 A 
ATOM      2  C   UNL     1       2.234   7.722  19.610  0.00  0.00    +0.000 A 
ATOM      3  C   UNL     1       3.068   6.752  19.044  0.00  0.00    +0.000 A 
ATOM      4  C   UNL     1       3.078   5.417  19.490  0.00  0.00    +0.000 A 
ATOM      5  C   UNL     1       2.140   5.065  20.480  0.00  0.00    +0.000 A 
ATOM      6  C   UNL     1       1.281   6.041  21.026  0.00  0.00    +0.000 A 
ATOM      7  C   UNL     1       1.990   3.645  20.957  0.00  0.00    +0.000 C 
ATOM      8  C   UNL     1       3.209   2.811  20.625  0.00  0.00    +0.000 C 
ATOM      9  C   UNL     1       3.658   3.068  19.196  0.00  0.00    +0.000 C 
ATOM     10  N   UNL     1       4.012   4.478  18.964  0.00  0.00    +0.000 N 
ENDROOT
BRANCH  10  11
ATOM     11  C   UNL     1       5.293   4.776  18.397  0.00  0.00    +0.000 A 
ATOM     12  C   UNL     1       6.310   5.215  19.262  0.00  0.00    +0.000 A 
ATOM     13  C   UNL     1       7.542   5.580  18.760  0.00  0.00    +0.000 A 
ATOM     14  N   UNL     1       7.868   5.486  17.465  0.00  0.00    +0.000 NA
ATOM     15  C   UNL     1       6.941   5.020  16.618  0.00  0.00    +0.000 A 
ATOM     16  C   UNL     1       7.332   4.881  15.293  0.00  0.00    +0.000 A 
ATOM     17  C   UNL     1       6.471   4.404  14.307  0.00  0.00    +0.000 A 
ATOM     18  C   UNL     1       5.162   4.108  14.639  0.00  0.00    +0.000 A 
ATOM     19  C   UNL     1       4.734   4.281  15.957  0.00  0.00    +0.000 A 
ATOM     20  C   UNL     1       5.617   4.678  16.999  0.00  0.00    +0.000 A 
ENDBRANCH  10  11
BRANCH   1  22
ATOM     21  C   UNL     1       1.077   9.317  21.943  0.00  0.00    +0.000 C 
ATOM     22  O   UNL     1       0.485   8.222  21.255  0.00  0.00    +0.000 OA
ENDBRANCH   1  22
TORSDOF 2
ENDMDL
MODEL 2
REMARK VINA RESULT:      -7.6      1.219      1.448
REMARK  Name = 
REMARK  3 active torsions:
REMARK  status: ('A' for Active; 'I' for Inactive)
REMARK    1  A    between atoms: C_1  and  O_2
REMARK    2  A    between atoms: O_2  and  C_3
REMARK    3  A    between atoms: N_12  and  C_13
REMARK                            x       y       z     vdW  Elec       q    Type
REMARK                         _______ _______ _______ _____ _____    ______ ____
ROOT
ATOM      1  C   UNL     1       1.570   8.774  19.126  0.00  0.00    +0.000 A 
ATOM      2  C   UNL     1       2.541   8.643  18.141  0.00  0.00    +0.000 A 
ATOM      3  C   UNL     1       3.255   7.447  18.015  0.00  0.00    +0.000 A 
ATOM      4  C   UNL     1       3.064   6.363  18.891  0.00  0.00    +0.000 A 
ATOM      5  C   UNL     1       2.047   6.491  19.858  0.00  0.00    +0.000 A 
ATOM      6  C   UNL     1       1.310   7.688  19.960  0.00  0.00    +0.000 A 
ATOM      7  C   UNL     1       1.685   5.356  20.778  0.00  0.00    +0.000 C 
ATOM      8  C   UNL     1       2.791   4.325  20.857  0.00  0.00    +0.000 C 
ATOM      9  C   UNL     1       3.327   4.010  19.470  0.00  0.00    +0.000 C 
ATOM     10  N   UNL     1       3.880   5.198  18.800  0.00  0.00    +0.000 N 
ENDROOT
BRANCH  10  11
ATOM     11  C   UNL     1       5.211   5.128  18.276  0.00  0.00    +0.000 A 
ATOM     12  C   UNL     1       6.280   5.346  19.163  0.00  0.00    +0.000 A 
ATOM     13  C   UNL     1       7.579   5.358  18.699  0.00  0.00    +0.000 A 
ATOM     14  N   UNL     1       7.909   5.108  17.425  0.00  0.00    +0.000 NA
ATOM     15  C   UNL     1       6.920   4.844  16.562  0.00  0.00    +0.000 A 
ATOM     16  C   UNL     1       7.303   4.533  15.264  0.00  0.00    +0.000 A 
ATOM     17  C   UNL     1       6.379   4.232  14.265  0.00  0.00    +0.000 A 
ATOM     18  C   UNL     1       5.028   4.297  14.553  0.00  0.00    +0.000 A 
ATOM     19  C   UNL     1       4.619   4.649  15.841  0.00  0.00    +0.000 A 
ATOM     20  C   UNL     1       5.542   4.870  16.901  0.00  0.00    +0.000 A 
ENDBRANCH  10  11
BRANCH   1  22
ATOM     21  C   UNL     1      -0.146  10.219  18.362  0.00  0.00    +0.000 C 
ATOM     22  O   UNL     1       0.813   9.887  19.359  0.00  0.00    +0.000 OA
ENDBRANCH   1  22
TORSDOF 2
ENDMDL
MODEL 3
REMARK VINA RESULT:      -7.4      2.403      6.003
REMARK  Name = 
REMARK  3 active torsions:
REMARK  status: ('A' for Active; 'I' for Inactive)
REMARK    1  A    between atoms: C_1  and  O_2
REMARK    2  A    between atoms: O_2  and  C_3
REMARK    3  A    between atoms: N_12  and  C_13
REMARK                            x       y       z     vdW  Elec       q    Type
REMARK                         _______ _______ _______ _____ _____    ______ ____
ROOT
ATOM      1  C   UNL     1       7.835   6.877  18.418  0.00  0.00    +0.000 A 
ATOM      2  C   UNL     1       7.245   6.031  19.349  0.00  0.00    +0.000 A 
ATOM      3  C   UNL     1       6.352   5.041  18.929  0.00  0.00    +0.000 A 
ATOM      4  C   UNL     1       5.978   4.888  17.581  0.00  0.00    +0.000 A 
ATOM      5  C   UNL     1       6.615   5.723  16.641  0.00  0.00    +0.000 A 
ATOM      6  C   UNL     1       7.538   6.700  17.067  0.00  0.00    +0.000 A 
ATOM      7  C   UNL     1       6.371   5.577  15.163  0.00  0.00    +0.000 C 
ATOM      8  C   UNL     1       5.092   4.820  14.879  0.00  0.00    +0.000 C 
ATOM      9  C   UNL     1       4.989   3.593  15.769  0.00  0.00    +0.000 C 
ATOM     10  N   UNL     1       4.987   3.937  17.200  0.00  0.00    +0.000 N 
ENDROOT
BRANCH  10  11
ATOM     11  C   UNL     1       3.930   3.432  18.023  0.00  0.00    +0.000 A 
ATOM     12  C   UNL     1       3.703   2.045  18.026  0.00  0.00    +0.000 A 
ATOM     13  C   UNL     1       2.655   1.513  18.748  0.00  0.00    +0.000 A 
ATOM     14  N   UNL     1       1.844   2.246  19.522  0.00  0.00    +0.000 NA
ATOM     15  C   UNL     1       2.063   3.565  19.585  0.00  0.00    +0.000 A 
ATOM     16  C   UNL     1       1.241   4.286  20.441  0.00  0.00    +0.000 A 
ATOM     17  C   UNL     1       1.362   5.664  20.608  0.00  0.00    +0.000 A 
ATOM     18  C   UNL     1       2.296   6.356  19.858  0.00  0.00    +0.000 A 
ATOM     19  C   UNL     1       3.104   5.658  18.960  0.00  0.00    +0.000 A 
ATOM     20  C   UNL     1       3.063   4.241  18.838  0.00  0.00    +0.000 A 
ENDBRANCH  10  11
BRANCH   1  22
ATOM     21  C   UNL     1       8.383   9.170  18.181  0.00  0.00    +0.000 C 
ATOM     22  O   UNL     1       8.712   7.886  18.698  0.00  0.00    +0.000 OA
ENDBRANCH   1  22
TORSDOF 2
ENDMDL
MODEL 4
REMARK VINA RESULT:      -7.3      1.117      2.420
REMARK  Name = 
REMARK  3 active torsions:
REMARK  status: ('A' for Active; 'I' for Inactive)
REMARK    1  A    between atoms: C_1  and  O_2
REMARK    2  A    between atoms: O_2  and  C_3
REMARK    3  A    between atoms: N_12  and  C_13
REMARK                            x       y       z     vdW  Elec       q    Type
REMARK                         _______ _______ _______ _____ _____    ______ ____
ROOT
ATOM      1  C   UNL     1       1.479   7.788  20.468  0.00  0.00    +0.000 A 
ATOM      2  C   UNL     1       2.188   7.903  19.279  0.00  0.00    +0.000 A 
ATOM      3  C   UNL     1       2.645   6.755  18.623  0.00  0.00    +0.000 A 
ATOM      4  C   UNL     1       2.456   5.464  19.148  0.00  0.00    +0.000 A 
ATOM      5  C   UNL     1       1.699   5.357  20.331  0.00  0.00    +0.000 A 
ATOM      6  C   UNL     1       1.215   6.515  20.972  0.00  0.00    +0.000 A 
ATOM      7  C   UNL     1       1.345   4.020  20.924  0.00  0.00    +0.000 C 
ATOM      8  C   UNL     1       2.250   2.921  20.407  0.00  0.00    +0.000 C 
ATOM      9  C   UNL     1       2.426   3.038  18.903  0.00  0.00    +0.000 C 
ATOM     10  N   UNL     1       3.024   4.324  18.507  0.00  0.00    +0.000 N 
ENDROOT
BRANCH  10  11
ATOM     11  C   UNL     1       4.186   4.308  17.671  0.00  0.00    +0.000 A 
ATOM     12  C   UNL     1       4.036   3.876  16.341  0.00  0.00    +0.000 A 
ATOM     13  C   UNL     1       5.134   3.775  15.513  0.00  0.00    +0.000 A 
ATOM     14  N   UNL     1       6.371   4.131  15.881  0.00  0.00    +0.000 NA
ATOM     15  C   UNL     1       6.544   4.598  17.125  0.00  0.00    +0.000 A 
ATOM     16  C   UNL     1       7.828   5.011  17.454  0.00  0.00    +0.000 A 
ATOM     17  C   UNL     1       8.149   5.522  18.710  0.00  0.00    +0.000 A 
ATOM     18  C   UNL     1       7.172   5.573  19.688  0.00  0.00    +0.000 A 
ATOM     19  C   UNL     1       5.884   5.123  19.392  0.00  0.00    +0.000 A 
ATOM     20  C   UNL     1       5.509   4.683  18.092  0.00  0.00    +0.000 A 
ENDBRANCH  10  11
BRANCH   1  22
ATOM     21  C   UNL     1       0.649  10.007  20.494  0.00  0.00    +0.000 C 
ATOM     22  O   UNL     1       0.988   8.826  21.209  0.00  0.00    +0.000 OA
ENDBRANCH   1  22
TORSDOF 2
ENDMDL
MODEL 5
REMARK VINA RESULT:      -7.0      2.779      6.796
REMARK  Name = 
REMARK  3 active torsions:
REMARK  status: ('A' for Active; 'I' for Inactive)
REMARK    1  A    between atoms: C_1  and  O_2
REMARK    2  A    between atoms: O_2  and  C_3
REMARK    3  A    between atoms: N_12  and  C_13
REMARK                            x       y       z     vdW  Elec       q    Type
REMARK                         _______ _______ _______ _____ _____    ______ ____
ROOT
ATOM      1  C   UNL     1       4.943   4.403  16.733  0.00  0.00    +0.000 A 
ATOM      2  C   UNL     1       4.982   5.790  16.807  0.00  0.00    +0.000 A 
ATOM      3  C   UNL     1       4.185   6.464  17.737  0.00  0.00    +0.000 A 
ATOM      4  C   UNL     1       3.289   5.791  18.587  0.00  0.00    +0.000 A 
ATOM      5  C   UNL     1       3.290   4.383  18.533  0.00  0.00    +0.000 A 
ATOM      6  C   UNL     1       4.118   3.707  17.615  0.00  0.00    +0.000 A 
ATOM      7  C   UNL     1       2.450   3.557  19.470  0.00  0.00    +0.000 C 
ATOM      8  C   UNL     1       1.331   4.370  20.085  0.00  0.00    +0.000 C 
ATOM      9  C   UNL     1       1.848   5.721  20.552  0.00  0.00    +0.000 C 
ATOM     10  N   UNL     1       2.416   6.515  19.450  0.00  0.00    +0.000 N 
ENDROOT
BRANCH  10  11
ATOM     11  C   UNL     1       1.936   7.849  19.252  0.00  0.00    +0.000 A 
ATOM     12  C   UNL     1       2.073   8.416  17.973  0.00  0.00    +0.000 A 
ATOM     13  C   UNL     1       1.690   9.721  17.745  0.00  0.00    +0.000 A 
ATOM     14  N   UNL     1       1.119  10.496  18.676  0.00  0.00    +0.000 NA
ATOM     15  C   UNL     1       0.923   9.972  19.893  0.00  0.00    +0.000 A 
ATOM     16  C   UNL     1       0.276  10.783  20.815  0.00  0.00    +0.000 A 
ATOM     17  C   UNL     1       0.004  10.364  22.116  0.00  0.00    +0.000 A 
ATOM     18  C   UNL     1       0.437   9.117  22.528  0.00  0.00    +0.000 A 
ATOM     19  C   UNL     1       1.126   8.301  21.630  0.00  0.00    +0.000 A 
ATOM     20  C   UNL     1       1.336   8.668  20.272  0.00  0.00    +0.000 A 
ENDBRANCH  10  11
BRANCH   1  22
ATOM     21  C   UNL     1       6.026   4.233  14.632  0.00  0.00    +0.000 C 
ATOM     22  O   UNL     1       5.661   3.628  15.866  0.00  0.00    +0.000 OA
ENDBRANCH   1  22
TORSDOF 2
ENDMDL
MODEL 6
REMARK VINA RESULT:      -6.9      2.855      6.836
REMARK  Name = 
REMARK  3 active torsions:
REMARK  status: ('A' for Active; 'I' for Inactive)
REMARK    1  A    between atoms: C_1  and  O_2
REMARK    2  A    between atoms: O_2  and  C_3
REMARK    3  A    between atoms: N_12  and  C_13
REMARK                            x       y       z     vdW  Elec       q    Type
REMARK                         _______ _______ _______ _____ _____    ______ ____
ROOT
ATOM      1  C   UNL     1       6.817   4.792  14.058  0.00  0.00    +0.000 A 
ATOM      2  C   UNL     1       5.533   4.304  14.263  0.00  0.00    +0.000 A 
ATOM      3  C   UNL     1       4.976   4.316  15.546  0.00  0.00    +0.000 A 
ATOM      4  C   UNL     1       5.690   4.766  16.672  0.00  0.00    +0.000 A 
ATOM      5  C   UNL     1       6.975   5.298  16.445  0.00  0.00    +0.000 A 
ATOM      6  C   UNL     1       7.520   5.311  15.145  0.00  0.00    +0.000 A 
ATOM      7  C   UNL     1       7.787   5.904  17.558  0.00  0.00    +0.000 C 
ATOM      8  C   UNL     1       7.295   5.455  18.918  0.00  0.00    +0.000 C 
ATOM      9  C   UNL     1       5.778   5.525  18.986  0.00  0.00    +0.000 C 
ATOM     10  N   UNL     1       5.131   4.668  17.979  0.00  0.00    +0.000 N 
ENDROOT
BRANCH  10  11
ATOM     11  C   UNL     1       4.145   3.728  18.416  0.00  0.00    +0.000 A 
ATOM     12  C   UNL     1       4.318   2.378  18.062  0.00  0.00    +0.000 A 
ATOM     13  C   UNL     1       3.363   1.441  18.398  0.00  0.00    +0.000 A 
ATOM     14  N   UNL     1       2.270   1.727  19.118  0.00  0.00    +0.000 NA
ATOM     15  C   UNL     1       2.098   2.993  19.518  0.00  0.00    +0.000 A 
ATOM     16  C   UNL     1       0.985   3.243  20.310  0.00  0.00    +0.000 A 
ATOM     17  C   UNL     1       0.687   4.512  20.800  0.00  0.00    +0.000 A 
ATOM     18  C   UNL     1       1.492   5.579  20.447  0.00  0.00    +0.000 A 
ATOM     19  C   UNL     1       2.593   5.360  19.616  0.00  0.00    +0.000 A 
ATOM     20  C   UNL     1       2.971   4.060  19.178  0.00  0.00    +0.000 A 
ENDBRANCH  10  11
BRANCH   1  22
ATOM     21  C   UNL     1       7.083   3.862  11.895  0.00  0.00    +0.000 C 
ATOM     22  O   UNL     1       7.477   4.828  12.862  0.00  0.00    +0.000 OA
ENDBRANCH   1  22
TORSDOF 2
ENDMDL
MODEL 7
REMARK VINA RESULT:      -6.9      2.742      6.425
REMARK  Name = 
REMARK  3 active torsions:
REMARK  status: ('A' for Active; 'I' for Inactive)
REMARK    1  A    between atoms: C_1  and  O_2
REMARK    2  A    between atoms: O_2  and  C_3
REMARK    3  A    between atoms: N_12  and  C_13
REMARK                            x       y       z     vdW  Elec       q    Type
REMARK                         _______ _______ _______ _____ _____    ______ ____
ROOT
ATOM      1  C   UNL     1       6.181   4.299  14.345  0.00  0.00    +0.000 A 
ATOM      2  C   UNL     1       4.901   4.734  14.663  0.00  0.00    +0.000 A 
ATOM      3  C   UNL     1       4.606   5.152  15.964  0.00  0.00    +0.000 A 
ATOM      4  C   UNL     1       5.555   5.105  17.002  0.00  0.00    +0.000 A 
ATOM      5  C   UNL     1       6.861   4.703  16.659  0.00  0.00    +0.000 A 
ATOM      6  C   UNL     1       7.160   4.312  15.338  0.00  0.00    +0.000 A 
ATOM      7  C   UNL     1       7.981   4.716  17.664  0.00  0.00    +0.000 C 
ATOM      8  C   UNL     1       7.458   4.738  19.084  0.00  0.00    +0.000 C 
ATOM      9  C   UNL     1       6.330   5.747  19.222  0.00  0.00    +0.000 C 
ATOM     10  N   UNL     1       5.192   5.440  18.339  0.00  0.00    +0.000 N 
ENDROOT
BRANCH  10  11
ATOM     11  C   UNL     1       3.886   5.347  18.917  0.00  0.00    +0.000 A 
ATOM     12  C   UNL     1       3.298   6.526  19.408  0.00  0.00    +0.000 A 
ATOM     13  C   UNL     1       2.070   6.483  20.035  0.00  0.00    +0.000 A 
ATOM     14  N   UNL     1       1.344   5.364  20.160  0.00  0.00    +0.000 NA
ATOM     15  C   UNL     1       1.849   4.231  19.657  0.00  0.00    +0.000 A 
ATOM     16  C   UNL     1       1.046   3.102  19.753  0.00  0.00    +0.000 A 
ATOM     17  C   UNL     1       1.444   1.859  19.267  0.00  0.00    +0.000 A 
ATOM     18  C   UNL     1       2.705   1.721  18.716  0.00  0.00    +0.000 A 
ATOM     19  C   UNL     1       3.546   2.833  18.647  0.00  0.00    +0.000 A 
ATOM     20  C   UNL     1       3.130   4.131  19.052  0.00  0.00    +0.000 A 
ENDBRANCH  10  11
BRANCH   1  22
ATOM     21  C   UNL     1       5.595   3.291  12.282  0.00  0.00    +0.000 C 
ATOM     22  O   UNL     1       6.595   3.858  13.120  0.00  0.00    +0.000 OA
ENDBRANCH   1  22
TORSDOF 2
ENDMDL
MODEL 8
REMARK VINA RESULT:      -6.9      1.537      2.828
REMARK  Name = 
REMARK  3 active torsions:
REMARK  status: ('A' for Active; 'I' for Inactive)
REMARK    1  A    between atoms: C_1  and  O_2
REMARK    2  A    between atoms: O_2  and  C_3
REMARK    3  A    between atoms: N_12  and  C_13
REMARK                            x       y       z     vdW  Elec       q    Type
REMARK                         _______ _______ _______ _____ _____    ______ ____
ROOT
ATOM      1  C   UNL     1       1.645   9.109  19.288  0.00  0.00    +0.000 A 
ATOM      2  C   UNL     1       2.279   8.762  18.102  0.00  0.00    +0.000 A 
ATOM      3  C   UNL     1       2.666   7.438  17.876  0.00  0.00    +0.000 A 
ATOM      4  C   UNL     1       2.482   6.426  18.836  0.00  0.00    +0.000 A 
ATOM      5  C   UNL     1       1.800   6.780  20.017  0.00  0.00    +0.000 A 
ATOM      6  C   UNL     1       1.384   8.111  20.227  0.00  0.00    +0.000 A 
ATOM      7  C   UNL     1       1.455   5.758  21.066  0.00  0.00    +0.000 C 
ATOM      8  C   UNL     1       2.299   4.509  20.930  0.00  0.00    +0.000 C 
ATOM      9  C   UNL     1       2.381   4.076  19.476  0.00  0.00    +0.000 C 
ATOM     10  N   UNL     1       2.982   5.110  18.616  0.00  0.00    +0.000 N 
ENDROOT
BRANCH  10  11
ATOM     11  C   UNL     1       4.087   4.746  17.782  0.00  0.00    +0.000 A 
ATOM     12  C   UNL     1       3.807   4.180  16.526  0.00  0.00    +0.000 A 
ATOM     13  C   UNL     1       4.833   3.750  15.712  0.00  0.00    +0.000 A 
ATOM     14  N   UNL     1       6.129   3.892  16.019  0.00  0.00    +0.000 NA
ATOM     15  C   UNL     1       6.435   4.476  17.185  0.00  0.00    +0.000 A 
ATOM     16  C   UNL     1       7.786   4.660  17.445  0.00  0.00    +0.000 A 
ATOM     17  C   UNL     1       8.246   5.258  18.617  0.00  0.00    +0.000 A 
ATOM     18  C   UNL     1       7.334   5.636  19.585  0.00  0.00    +0.000 A 
ATOM     19  C   UNL     1       5.973   5.422  19.363  0.00  0.00    +0.000 A 
ATOM     20  C   UNL     1       5.472   4.897  18.139  0.00  0.00    +0.000 A 
ENDBRANCH  10  11
BRANCH   1  22
ATOM     21  C   UNL     1       1.152  11.316  18.582  0.00  0.00    +0.000 C 
ATOM     22  O   UNL     1       1.226  10.363  19.635  0.00  0.00    +0.000 OA
ENDBRANCH   1  22
TORSDOF 2
ENDMDL
MODEL 9
REMARK VINA RESULT:      -6.8      2.201      4.745
REMARK  Name = 
REMARK  3 active torsions:
REMARK  status: ('A' for Active; 'I' for Inactive)
REMARK    1  A    between atoms: C_1  and  O_2
REMARK    2  A    between atoms: O_2  and  C_3
REMARK    3  A    between atoms: N_12  and  C_13
REMARK                            x       y       z     vdW  Elec       q    Type
REMARK                         _______ _______ _______ _____ _____    ______ ____
ROOT
ATOM      1  C   UNL     1      -0.320  10.313  22.517  0.00  0.00    +0.000 A 
ATOM      2  C   UNL     1       0.603   9.320  22.818  0.00  0.00    +0.000 A 
ATOM      3  C   UNL     1       1.319   8.694  21.792  0.00  0.00    +0.000 A 
ATOM      4  C   UNL     1       1.107   8.998  20.435  0.00  0.00    +0.000 A 
ATOM      5  C   UNL     1       0.201  10.037  20.144  0.00  0.00    +0.000 A 
ATOM      6  C   UNL     1      -0.496  10.685  21.184  0.00  0.00    +0.000 A 
ATOM      7  C   UNL     1      -0.024  10.518  18.736  0.00  0.00    +0.000 C 
ATOM      8  C   UNL     1       0.434   9.497  17.716  0.00  0.00    +0.000 C 
ATOM      9  C   UNL     1       1.794   8.936  18.096  0.00  0.00    +0.000 C 
ATOM     10  N   UNL     1       1.778   8.270  19.409  0.00  0.00    +0.000 N 
ENDROOT
BRANCH  10  11
ATOM     11  C   UNL     1       2.273   6.930  19.501  0.00  0.00    +0.000 A 
ATOM     12  C   UNL     1       1.756   6.104  20.514  0.00  0.00    +0.000 A 
ATOM     13  C   UNL     1       2.247   4.827  20.690  0.00  0.00    +0.000 A 
ATOM     14  N   UNL     1       3.175   4.277  19.896  0.00  0.00    +0.000 NA
ATOM     15  C   UNL     1       3.653   5.016  18.887  0.00  0.00    +0.000 A 
ATOM     16  C   UNL     1       4.570   4.395  18.049  0.00  0.00    +0.000 A 
ATOM     17  C   UNL     1       5.144   5.045  16.958  0.00  0.00    +0.000 A 
ATOM     18  C   UNL     1       4.836   6.372  16.725  0.00  0.00    +0.000 A 
ATOM     19  C   UNL     1       3.949   7.030  17.579  0.00  0.00    +0.000 A 
ATOM     20  C   UNL     1       3.280   6.364  18.644  0.00  0.00    +0.000 A 
ENDBRANCH  10  11
BRANCH   1  22
ATOM     21  C   UNL     1      -1.720  12.176  22.949  0.00  0.00    +0.000 C 
ATOM     22  O   UNL     1      -1.087  10.992  23.421  0.00  0.00    +0.000 OA
ENDBRANCH   1  22
TORSDOF 2
ENDMDL
