MODEL 1
REMARK VINA RESULT:      -7.9      0.000      0.000
REMARK  Name = 
REMARK  9 active torsions:
REMARK  status: ('A' for Active; 'I' for Inactive)
REMARK    1  A    between atoms: C_1  and  O_2
REMARK    2  A    between atoms: O_2  and  C_3
REMARK    3  A    between atoms: C_6  and  N_7
REMARK    4  A    between atoms: N_7  and  C_8
REMARK    5  A    between atoms: N_7  and  S_19
REMARK    6  A    between atoms: C_8  and  C_9
REMARK    7  A    between atoms: N_11  and  N_12
REMARK    8  A    between atoms: C_13  and  C_14
REMARK    9  A    between atoms: S_19  and  C_22
REMARK                            x       y       z     vdW  Elec       q    Type
REMARK                         _______ _______ _______ _____ _____    ______ ____
ROOT
ATOM      1  N   UNL     1       3.535   6.325  17.291  0.00  0.00    +0.000 N 
ENDROOT
BRANCH   1   5
ATOM      2  C   UNL     1       1.882   3.220  19.679  0.00  0.00    +0.000 A 
ATOM      3  C   UNL     1       2.961   3.968  20.156  0.00  0.00    +0.000 A 
ATOM      4  C   UNL     1       3.498   5.012  19.398  0.00  0.00    +0.000 A 
ATOM      5  C   UNL     1       2.974   5.301  18.138  0.00  0.00    +0.000 A 
ATOM      6  C   UNL     1       1.916   4.532  17.644  0.00  0.00    +0.000 A 
ATOM      7  C   UNL     1       1.360   3.502  18.418  0.00  0.00    +0.000 A 
BRANCH   2   9
ATOM      8  C   UNL     1       1.400   2.538  21.900  0.00  0.00    +0.000 C 
ATOM      9  O   UNL     1       1.466   2.221  20.516  0.00  0.00    +0.000 OA
ENDBRANCH   2   9
ENDBRANCH   1   5
BRANCH   1  10
ATOM     10  S   UNL     1       4.958   5.854  16.420  0.00  0.00    +0.000 S 
ATOM     11  O   UNL     1       4.967   4.409  16.300  0.00  0.00    +0.000 OA
ATOM     12  O   UNL     1       5.024   6.687  15.240  0.00  0.00    +0.000 OA
BRANCH  10  13
ATOM     13  C   UNL     1       6.332   6.318  17.473  0.00  0.00    +0.000 A 
ATOM     14  C   UNL     1       6.987   7.540  17.288  0.00  0.00    +0.000 A 
ATOM     15  C   UNL     1       8.084   7.867  18.097  0.00  0.00    +0.000 A 
ATOM     16  C   UNL     1       8.505   6.989  19.095  0.00  0.00    +0.000 A 
ATOM     17  C   UNL     1       7.814   5.800  19.318  0.00  0.00    +0.000 A 
ATOM     18  C   UNL     1       6.714   5.472  18.527  0.00  0.00    +0.000 A 
ENDBRANCH  10  13
ENDBRANCH   1  10
BRANCH   1  19
ATOM     19  C   UNL     1       3.582   7.698  17.866  0.00  0.00    +0.000 C 
BRANCH  19  20
ATOM     20  C   UNL     1       2.272   8.331  18.280  0.00  0.00    +0.000 C 
ATOM     21  O   UNL     1       1.641   9.011  17.465  0.00  0.00    +0.000 OA
ATOM     22  N   UNL     1       1.944   8.231  19.624  0.00  0.00    +0.000 N 
ATOM     23  H   UNL     1       2.467   7.623  20.244  0.00  0.00    +0.000 HD
BRANCH  22  24
ATOM     24  N   UNL     1       0.912   9.003  20.089  0.00  0.00    +0.000 NA
ATOM     25  C   UNL     1       1.034   9.569  21.248  0.00  0.00    +0.000 C 
BRANCH  25  26
ATOM     26  C   UNL     1      -0.027  10.420  21.745  0.00  0.00    +0.000 A 
ATOM     27  C   UNL     1      -0.682  10.366  22.961  0.00  0.00    +0.000 A 
ATOM     28  C   UNL     1      -1.696  11.361  23.081  0.00  0.00    +0.000 A 
ATOM     29  C   UNL     1      -1.780  12.145  21.952  0.00  0.00    +0.000 A 
ATOM     30  S   UNL     1      -0.636  11.682  20.764  0.00  0.00    +0.000 S 
ENDBRANCH  25  26
ENDBRANCH  22  24
ENDBRANCH  19  20
ENDBRANCH   1  19
TORSDOF 8
ENDMDL
MODEL 2
REMARK VINA RESULT:      -7.4      2.460      5.505
REMARK  Name = 
REMARK  9 active torsions:
REMARK  status: ('A' for Active; 'I' for Inactive)
REMARK    1  A    between atoms: C_1  and  O_2
REMARK    2  A    between atoms: O_2  and  C_3
REMARK    3  A    between atoms: C_6  and  N_7
REMARK    4  A    between atoms: N_7  and  C_8
REMARK    5  A    between atoms: N_7  and  S_19
REMARK    6  A    between atoms: C_8  and  C_9
REMARK    7  A    between atoms: N_11  and  N_12
REMARK    8  A    between atoms: C_13  and  C_14
REMARK    9  A    between atoms: S_19  and  C_22
REMARK                            x       y       z     vdW  Elec       q    Type
REMARK                         _______ _______ _______ _____ _____    ______ ____
ROOT
ATOM      1  N   UNL     1       4.860   3.850  17.988  0.00  0.00    +0.000 N 
ENDROOT
BRANCH   1   5
ATOM      2  C   UNL     1       6.986   4.951  14.474  0.00  0.00    +0.000 A 
ATOM      3  C   UNL     1       5.683   4.457  14.376  0.00  0.00    +0.000 A 
ATOM      4  C   UNL     1       4.958   4.120  15.521  0.00  0.00    +0.000 A 
ATOM      5  C   UNL     1       5.543   4.248  16.781  0.00  0.00    +0.000 A 
ATOM      6  C   UNL     1       6.859   4.709  16.881  0.00  0.00    +0.000 A 
ATOM      7  C   UNL     1       7.576   5.073  15.731  0.00  0.00    +0.000 A 
BRANCH   2   9
ATOM      8  C   UNL     1       7.266   4.364  12.192  0.00  0.00    +0.000 C 
ATOM      9  O   UNL     1       7.584   5.228  13.276  0.00  0.00    +0.000 OA
ENDBRANCH   2   9
ENDBRANCH   1   5
BRANCH   1  10
ATOM     10  S   UNL     1       3.456   2.863  17.742  0.00  0.00    +0.000 S 
ATOM     11  O   UNL     1       2.594   3.521  16.780  0.00  0.00    +0.000 OA
ATOM     12  O   UNL     1       3.926   1.517  17.505  0.00  0.00    +0.000 OA
BRANCH  10  13
ATOM     13  C   UNL     1       2.602   2.856  19.318  0.00  0.00    +0.000 A 
ATOM     14  C   UNL     1       1.245   3.188  19.392  0.00  0.00    +0.000 A 
ATOM     15  C   UNL     1       0.606   3.215  20.638  0.00  0.00    +0.000 A 
ATOM     16  C   UNL     1       1.314   2.891  21.795  0.00  0.00    +0.000 A 
ATOM     17  C   UNL     1       2.648   2.502  21.714  0.00  0.00    +0.000 A 
ATOM     18  C   UNL     1       3.289   2.460  20.476  0.00  0.00    +0.000 A 
ENDBRANCH  10  13
ENDBRANCH   1  10
BRANCH   1  19
ATOM     19  C   UNL     1       4.707   4.903  19.031  0.00  0.00    +0.000 C 
BRANCH  19  20
ATOM     20  C   UNL     1       3.649   5.962  18.810  0.00  0.00    +0.000 C 
ATOM     21  O   UNL     1       3.614   6.570  17.736  0.00  0.00    +0.000 OA
ATOM     22  N   UNL     1       2.876   6.292  19.913  0.00  0.00    +0.000 N 
ATOM     23  H   UNL     1       2.909   5.732  20.759  0.00  0.00    +0.000 HD
BRANCH  22  24
ATOM     24  N   UNL     1       2.093   7.413  19.833  0.00  0.00    +0.000 NA
ATOM     25  C   UNL     1       1.564   7.879  20.920  0.00  0.00    +0.000 C 
BRANCH  25  26
ATOM     26  C   UNL     1       0.764   9.084  20.867  0.00  0.00    +0.000 A 
ATOM     27  C   UNL     1       0.541   9.928  19.795  0.00  0.00    +0.000 A 
ATOM     28  C   UNL     1      -0.289  11.037  20.134  0.00  0.00    +0.000 A 
ATOM     29  C   UNL     1      -0.674  11.001  21.455  0.00  0.00    +0.000 A 
ATOM     30  S   UNL     1      -0.043   9.634  22.271  0.00  0.00    +0.000 S 
ENDBRANCH  25  26
ENDBRANCH  22  24
ENDBRANCH  19  20
ENDBRANCH   1  19
TORSDOF 8
ENDMDL
MODEL 3
REMARK VINA RESULT:      -7.3      0.831      1.661
REMARK  Name = 
REMARK  9 active torsions:
REMARK  status: ('A' for Active; 'I' for Inactive)
REMARK    1  A    between atoms: C_1  and  O_2
REMARK    2  A    between atoms: O_2  and  C_3
REMARK    3  A    between atoms: C_6  and  N_7
REMARK    4  A    between atoms: N_7  and  C_8
REMARK    5  A    between atoms: N_7  and  S_19
REMARK    6  A    between atoms: C_8  and  C_9
REMARK    7  A    between atoms: N_11  and  N_12
REMARK    8  A    between atoms: C_13  and  C_14
REMARK    9  A    between atoms: S_19  and  C_22
REMARK                            x       y       z     vdW  Elec       q    Type
REMARK                         _______ _______ _______ _____ _____    ______ ____
ROOT
ATOM      1  N   UNL     1       3.499   6.508  17.315  0.00  0.00    +0.000 N 
ENDROOT
BRANCH   1   5
ATOM      2  C   UNL     1       1.786   3.578  19.876  0.00  0.00    +0.000 A 
ATOM      3  C   UNL     1       1.329   3.710  18.562  0.00  0.00    +0.000 A 
ATOM      4  C   UNL     1       1.901   4.646  17.697  0.00  0.00    +0.000 A 
ATOM      5  C   UNL     1       2.922   5.482  18.149  0.00  0.00    +0.000 A 
ATOM      6  C   UNL     1       3.357   5.376  19.473  0.00  0.00    +0.000 A 
ATOM      7  C   UNL     1       2.801   4.417  20.333  0.00  0.00    +0.000 A 
BRANCH   2   9
ATOM      8  C   UNL     1       1.598   2.429  21.943  0.00  0.00    +0.000 C 
ATOM      9  O   UNL     1       1.130   2.634  20.617  0.00  0.00    +0.000 OA
ENDBRANCH   2   9
ENDBRANCH   1   5
BRANCH   1  10
ATOM     10  S   UNL     1       4.894   6.017  16.411  0.00  0.00    +0.000 S 
ATOM     11  O   UNL     1       4.841   4.580  16.227  0.00  0.00    +0.000 OA
ATOM     12  O   UNL     1       4.987   6.899  15.269  0.00  0.00    +0.000 OA
BRANCH  10  13
ATOM     13  C   UNL     1       6.294   6.375  17.472  0.00  0.00    +0.000 A 
ATOM     14  C   UNL     1       6.675   5.475  18.473  0.00  0.00    +0.000 A 
ATOM     15  C   UNL     1       7.748   5.792  19.316  0.00  0.00    +0.000 A 
ATOM     16  C   UNL     1       8.445   6.988  19.144  0.00  0.00    +0.000 A 
ATOM     17  C   UNL     1       8.103   7.855  18.110  0.00  0.00    +0.000 A 
ATOM     18  C   UNL     1       7.045   7.542  17.257  0.00  0.00    +0.000 A 
ENDBRANCH  10  13
ENDBRANCH   1  10
BRANCH   1  19
ATOM     19  C   UNL     1       3.594   7.866  17.919  0.00  0.00    +0.000 C 
BRANCH  19  20
ATOM     20  C   UNL     1       2.308   8.642  18.109  0.00  0.00    +0.000 C 
ATOM     21  O   UNL     1       1.966   9.468  17.258  0.00  0.00    +0.000 OA
ATOM     22  N   UNL     1       1.673   8.479  19.330  0.00  0.00    +0.000 N 
ATOM     23  H   UNL     1       1.965   7.755  19.978  0.00  0.00    +0.000 HD
BRANCH  22  24
ATOM     24  N   UNL     1       0.661   9.348  19.645  0.00  0.00    +0.000 NA
ATOM     25  C   UNL     1       0.960  10.455  20.249  0.00  0.00    +0.000 C 
BRANCH  25  26
ATOM     26  C   UNL     1      -0.087  11.406  20.558  0.00  0.00    +0.000 A 
ATOM     27  C   UNL     1      -0.720  12.300  19.716  0.00  0.00    +0.000 A 
ATOM     28  C   UNL     1      -1.689  13.099  20.392  0.00  0.00    +0.000 A 
ATOM     29  C   UNL     1      -1.766  12.784  21.730  0.00  0.00    +0.000 A 
ATOM     30  S   UNL     1      -0.680  11.530  22.158  0.00  0.00    +0.000 S 
ENDBRANCH  25  26
ENDBRANCH  22  24
ENDBRANCH  19  20
ENDBRANCH   1  19
TORSDOF 8
ENDMDL
MODEL 4
REMARK VINA RESULT:      -7.3      2.450      5.498
REMARK  Name = 
REMARK  9 active torsions:
REMARK  status: ('A' for Active; 'I' for Inactive)
REMARK    1  A    between atoms: C_1  and  O_2
REMARK    2  A    between atoms: O_2  and  C_3
REMARK    3  A    between atoms: C_6  and  N_7
REMARK    4  A    between atoms: N_7  and  C_8
REMARK    5  A    between atoms: N_7  and  S_19
REMARK    6  A    between atoms: C_8  and  C_9
REMARK    7  A    between atoms: N_11  and  N_12
REMARK    8  A    between atoms: C_13  and  C_14
REMARK    9  A    between atoms: S_19  and  C_22
REMARK                            x       y       z     vdW  Elec       q    Type
REMARK                         _______ _______ _______ _____ _____    ______ ____
ROOT
ATOM      1  N   UNL     1       4.860   3.881  17.984  0.00  0.00    +0.000 N 
ENDROOT
BRANCH   1   5
ATOM      2  C   UNL     1       6.976   4.934  14.450  0.00  0.00    +0.000 A 
ATOM      3  C   UNL     1       5.669   4.449  14.362  0.00  0.00    +0.000 A 
ATOM      4  C   UNL     1       4.947   4.127  15.514  0.00  0.00    +0.000 A 
ATOM      5  C   UNL     1       5.539   4.262  16.770  0.00  0.00    +0.000 A 
ATOM      6  C   UNL     1       6.859   4.715  16.859  0.00  0.00    +0.000 A 
ATOM      7  C   UNL     1       7.573   5.064  15.703  0.00  0.00    +0.000 A 
BRANCH   2   9
ATOM      8  C   UNL     1       7.181   4.374  12.153  0.00  0.00    +0.000 C 
ATOM      9  O   UNL     1       7.570   5.197  13.246  0.00  0.00    +0.000 OA
ENDBRANCH   2   9
ENDBRANCH   1   5
BRANCH   1  10
ATOM     10  S   UNL     1       3.459   2.884  17.755  0.00  0.00    +0.000 S 
ATOM     11  O   UNL     1       2.590   3.527  16.789  0.00  0.00    +0.000 OA
ATOM     12  O   UNL     1       3.934   1.537  17.530  0.00  0.00    +0.000 OA
BRANCH  10  13
ATOM     13  C   UNL     1       2.612   2.890  19.334  0.00  0.00    +0.000 A 
ATOM     14  C   UNL     1       3.288   2.528  20.504  0.00  0.00    +0.000 A 
ATOM     15  C   UNL     1       2.597   2.501  21.722  0.00  0.00    +0.000 A 
ATOM     16  C   UNL     1       1.249   2.854  21.771  0.00  0.00    +0.000 A 
ATOM     17  C   UNL     1       0.593   3.272  20.617  0.00  0.00    +0.000 A 
ATOM     18  C   UNL     1       1.276   3.315  19.402  0.00  0.00    +0.000 A 
ENDBRANCH  10  13
ENDBRANCH   1  10
BRANCH   1  19
ATOM     19  C   UNL     1       4.703   4.948  19.011  0.00  0.00    +0.000 C 
BRANCH  19  20
ATOM     20  C   UNL     1       3.706   6.051  18.731  0.00  0.00    +0.000 C 
ATOM     21  O   UNL     1       3.765   6.667  17.662  0.00  0.00    +0.000 OA
ATOM     22  N   UNL     1       2.877   6.406  19.784  0.00  0.00    +0.000 N 
ATOM     23  H   UNL     1       2.833   5.841  20.626  0.00  0.00    +0.000 HD
BRANCH  22  24
ATOM     24  N   UNL     1       2.148   7.559  19.663  0.00  0.00    +0.000 NA
ATOM     25  C   UNL     1       1.516   8.005  20.703  0.00  0.00    +0.000 C 
BRANCH  25  26
ATOM     26  C   UNL     1       0.769   9.242  20.610  0.00  0.00    +0.000 A 
ATOM     27  C   UNL     1       0.113   9.934  21.611  0.00  0.00    +0.000 A 
ATOM     28  C   UNL     1      -0.539  11.108  21.129  0.00  0.00    +0.000 A 
ATOM     29  C   UNL     1      -0.356  11.273  19.774  0.00  0.00    +0.000 A 
ATOM     30  S   UNL     1       0.601  10.024  19.099  0.00  0.00    +0.000 S 
ENDBRANCH  25  26
ENDBRANCH  22  24
ENDBRANCH  19  20
ENDBRANCH   1  19
TORSDOF 8
ENDMDL
MODEL 5
REMARK VINA RESULT:      -7.3      4.708      7.497
REMARK  Name = 
REMARK  9 active torsions:
REMARK  status: ('A' for Active; 'I' for Inactive)
REMARK    1  A    between atoms: C_1  and  O_2
REMARK    2  A    between atoms: O_2  and  C_3
REMARK    3  A    between atoms: C_6  and  N_7
REMARK    4  A    between atoms: N_7  and  C_8
REMARK    5  A    between atoms: N_7  and  S_19
REMARK    6  A    between atoms: C_8  and  C_9
REMARK    7  A    between atoms: N_11  and  N_12
REMARK    8  A    between atoms: C_13  and  C_14
REMARK    9  A    between atoms: S_19  and  C_22
REMARK                            x       y       z     vdW  Elec       q    Type
REMARK                         _______ _______ _______ _____ _____    ______ ____
ROOT
ATOM      1  N   UNL     1       6.331   5.004  17.604  0.00  0.00    +0.000 N 
ENDROOT
BRANCH   1   5
ATOM      2  C   UNL     1       6.214   3.946  13.487  0.00  0.00    +0.000 A 
ATOM      3  C   UNL     1       5.201   3.515  14.348  0.00  0.00    +0.000 A 
ATOM      4  C   UNL     1       5.207   3.878  15.697  0.00  0.00    +0.000 A 
ATOM      5  C   UNL     1       6.245   4.658  16.206  0.00  0.00    +0.000 A 
ATOM      6  C   UNL     1       7.277   5.063  15.354  0.00  0.00    +0.000 A 
ATOM      7  C   UNL     1       7.256   4.721  13.994  0.00  0.00    +0.000 A 
BRANCH   2   9
ATOM      8  C   UNL     1       4.770   3.301  11.718  0.00  0.00    +0.000 C 
ATOM      9  O   UNL     1       6.092   3.507  12.198  0.00  0.00    +0.000 OA
ENDBRANCH   2   9
ENDBRANCH   1   5
BRANCH   1  10
ATOM     10  S   UNL     1       4.864   5.615  18.297  0.00  0.00    +0.000 S 
ATOM     11  O   UNL     1       5.135   6.029  19.659  0.00  0.00    +0.000 OA
ATOM     12  O   UNL     1       4.306   6.550  17.345  0.00  0.00    +0.000 OA
BRANCH  10  13
ATOM     13  C   UNL     1       3.754   4.209  18.369  0.00  0.00    +0.000 A 
ATOM     14  C   UNL     1       2.433   4.323  17.923  0.00  0.00    +0.000 A 
ATOM     15  C   UNL     1       1.571   3.224  18.025  0.00  0.00    +0.000 A 
ATOM     16  C   UNL     1       2.034   2.016  18.547  0.00  0.00    +0.000 A 
ATOM     17  C   UNL     1       3.365   1.886  18.935  0.00  0.00    +0.000 A 
ATOM     18  C   UNL     1       4.234   2.971  18.825  0.00  0.00    +0.000 A 
ENDBRANCH  10  13
ENDBRANCH   1  10
BRANCH   1  19
ATOM     19  C   UNL     1       7.565   5.722  18.027  0.00  0.00    +0.000 C 
BRANCH  19  20
ATOM     20  C   UNL     1       7.624   7.216  17.795  0.00  0.00    +0.000 C 
ATOM     21  O   UNL     1       7.144   7.689  16.760  0.00  0.00    +0.000 OA
ATOM     22  N   UNL     1       8.369   7.946  18.708  0.00  0.00    +0.000 N 
ATOM     23  H   UNL     1       8.703   7.521  19.567  0.00  0.00    +0.000 HD
BRANCH  22  24
ATOM     24  N   UNL     1       8.663   9.248  18.398  0.00  0.00    +0.000 NA
ATOM     25  C   UNL     1       9.359   9.944  19.241  0.00  0.00    +0.000 C 
BRANCH  25  26
ATOM     26  C   UNL     1       9.715  11.310  18.918  0.00  0.00    +0.000 A 
ATOM     27  C   UNL     1      10.407  11.788  17.822  0.00  0.00    +0.000 A 
ATOM     28  C   UNL     1      10.591  13.201  17.863  0.00  0.00    +0.000 A 
ATOM     29  C   UNL     1      10.028  13.757  18.990  0.00  0.00    +0.000 A 
ATOM     30  S   UNL     1       9.280  12.577  19.981  0.00  0.00    +0.000 S 
ENDBRANCH  25  26
ENDBRANCH  22  24
ENDBRANCH  19  20
ENDBRANCH   1  19
TORSDOF 8
ENDMDL
MODEL 6
REMARK VINA RESULT:      -7.3      2.183      5.263
REMARK  Name = 
REMARK  9 active torsions:
REMARK  status: ('A' for Active; 'I' for Inactive)
REMARK    1  A    between atoms: C_1  and  O_2
REMARK    2  A    between atoms: O_2  and  C_3
REMARK    3  A    between atoms: C_6  and  N_7
REMARK    4  A    between atoms: N_7  and  C_8
REMARK    5  A    between atoms: N_7  and  S_19
REMARK    6  A    between atoms: C_8  and  C_9
REMARK    7  A    between atoms: N_11  and  N_12
REMARK    8  A    between atoms: C_13  and  C_14
REMARK    9  A    between atoms: S_19  and  C_22
REMARK                            x       y       z     vdW  Elec       q    Type
REMARK                         _______ _______ _______ _____ _____    ______ ____
ROOT
ATOM      1  N   UNL     1       3.775   4.779  17.615  0.00  0.00    +0.000 N 
ENDROOT
BRANCH   1   5
ATOM      2  C   UNL     1       7.150   5.307  15.084  0.00  0.00    +0.000 A 
ATOM      3  C   UNL     1       5.984   4.725  14.580  0.00  0.00    +0.000 A 
ATOM      4  C   UNL     1       4.855   4.572  15.389  0.00  0.00    +0.000 A 
ATOM      5  C   UNL     1       4.891   4.976  16.723  0.00  0.00    +0.000 A 
ATOM      6  C   UNL     1       6.068   5.527  17.240  0.00  0.00    +0.000 A 
ATOM      7  C   UNL     1       7.192   5.705  16.419  0.00  0.00    +0.000 A 
BRANCH   2   9
ATOM      8  C   UNL     1       7.840   5.277  12.814  0.00  0.00    +0.000 C 
ATOM      9  O   UNL     1       8.182   5.383  14.190  0.00  0.00    +0.000 OA
ENDBRANCH   2   9
ENDBRANCH   1   5
BRANCH   1  10
ATOM     10  S   UNL     1       3.135   3.168  17.641  0.00  0.00    +0.000 S 
ATOM     11  O   UNL     1       1.992   3.112  16.751  0.00  0.00    +0.000 OA
ATOM     12  O   UNL     1       4.253   2.269  17.455  0.00  0.00    +0.000 OA
BRANCH  10  13
ATOM     13  C   UNL     1       2.533   2.925  19.311  0.00  0.00    +0.000 A 
ATOM     14  C   UNL     1       1.163   2.972  19.586  0.00  0.00    +0.000 A 
ATOM     15  C   UNL     1       0.715   2.819  20.905  0.00  0.00    +0.000 A 
ATOM     16  C   UNL     1       1.631   2.598  21.933  0.00  0.00    +0.000 A 
ATOM     17  C   UNL     1       2.990   2.490  21.650  0.00  0.00    +0.000 A 
ATOM     18  C   UNL     1       3.443   2.629  20.339  0.00  0.00    +0.000 A 
ENDBRANCH  10  13
ENDBRANCH   1  10
BRANCH   1  19
ATOM     19  C   UNL     1       2.748   5.857  17.628  0.00  0.00    +0.000 C 
BRANCH  19  20
ATOM     20  C   UNL     1       2.530   6.605  18.925  0.00  0.00    +0.000 C 
ATOM     21  O   UNL     1       2.661   6.010  19.999  0.00  0.00    +0.000 OA
ATOM     22  N   UNL     1       2.033   7.895  18.810  0.00  0.00    +0.000 N 
ATOM     23  H   UNL     1       1.987   8.357  17.908  0.00  0.00    +0.000 HD
BRANCH  22  24
ATOM     24  N   UNL     1       1.579   8.509  19.948  0.00  0.00    +0.000 NA
ATOM     25  C   UNL     1       0.654   9.410  19.839  0.00  0.00    +0.000 C 
BRANCH  25  26
ATOM     26  C   UNL     1       0.131  10.046  21.030  0.00  0.00    +0.000 A 
ATOM     27  C   UNL     1      -0.149   9.481  22.260  0.00  0.00    +0.000 A 
ATOM     28  C   UNL     1      -0.681  10.424  23.188  0.00  0.00    +0.000 A 
ATOM     29  C   UNL     1      -0.785  11.681  22.635  0.00  0.00    +0.000 A 
ATOM     30  S   UNL     1      -0.237  11.715  21.013  0.00  0.00    +0.000 S 
ENDBRANCH  25  26
ENDBRANCH  22  24
ENDBRANCH  19  20
ENDBRANCH   1  19
TORSDOF 8
ENDMDL
MODEL 7
REMARK VINA RESULT:      -7.2      2.422      5.400
REMARK  Name = 
REMARK  9 active torsions:
REMARK  status: ('A' for Active; 'I' for Inactive)
REMARK    1  A    between atoms: C_1  and  O_2
REMARK    2  A    between atoms: O_2  and  C_3
REMARK    3  A    between atoms: C_6  and  N_7
REMARK    4  A    between atoms: N_7  and  C_8
REMARK    5  A    between atoms: N_7  and  S_19
REMARK    6  A    between atoms: C_8  and  C_9
REMARK    7  A    between atoms: N_11  and  N_12
REMARK    8  A    between atoms: C_13  and  C_14
REMARK    9  A    between atoms: S_19  and  C_22
REMARK                            x       y       z     vdW  Elec       q    Type
REMARK                         _______ _______ _______ _____ _____    ______ ____
ROOT
ATOM      1  N   UNL     1       4.934   3.924  18.053  0.00  0.00    +0.000 N 
ENDROOT
BRANCH   1   5
ATOM      2  C   UNL     1       7.022   4.977  14.502  0.00  0.00    +0.000 A 
ATOM      3  C   UNL     1       7.547   5.324  15.749  0.00  0.00    +0.000 A 
ATOM      4  C   UNL     1       6.891   4.959  16.928  0.00  0.00    +0.000 A 
ATOM      5  C   UNL     1       5.683   4.264  16.868  0.00  0.00    +0.000 A 
ATOM      6  C   UNL     1       5.138   3.946  15.620  0.00  0.00    +0.000 A 
ATOM      7  C   UNL     1       5.812   4.288  14.438  0.00  0.00    +0.000 A 
BRANCH   2   9
ATOM      8  C   UNL     1       7.465   4.808  12.177  0.00  0.00    +0.000 C 
ATOM      9  O   UNL     1       7.758   5.407  13.433  0.00  0.00    +0.000 OA
ENDBRANCH   2   9
ENDBRANCH   1   5
BRANCH   1  10
ATOM     10  S   UNL     1       3.514   2.970  17.771  0.00  0.00    +0.000 S 
ATOM     11  O   UNL     1       2.672   3.667  16.819  0.00  0.00    +0.000 OA
ATOM     12  O   UNL     1       3.960   1.620  17.504  0.00  0.00    +0.000 OA
BRANCH  10  13
ATOM     13  C   UNL     1       2.647   2.939  19.340  0.00  0.00    +0.000 A 
ATOM     14  C   UNL     1       1.318   3.367  19.425  0.00  0.00    +0.000 A 
ATOM     15  C   UNL     1       0.671   3.372  20.668  0.00  0.00    +0.000 A 
ATOM     16  C   UNL     1       1.342   2.933  21.809  0.00  0.00    +0.000 A 
ATOM     17  C   UNL     1       2.645   2.451  21.713  0.00  0.00    +0.000 A 
ATOM     18  C   UNL     1       3.293   2.430  20.478  0.00  0.00    +0.000 A 
ENDBRANCH  10  13
ENDBRANCH   1  10
BRANCH   1  19
ATOM     19  C   UNL     1       4.765   5.012  19.056  0.00  0.00    +0.000 C 
BRANCH  19  20
ATOM     20  C   UNL     1       3.756   6.097  18.752  0.00  0.00    +0.000 C 
ATOM     21  O   UNL     1       3.799   6.679  17.663  0.00  0.00    +0.000 OA
ATOM     22  N   UNL     1       2.935   6.478  19.802  0.00  0.00    +0.000 N 
ATOM     23  H   UNL     1       2.903   5.940  20.661  0.00  0.00    +0.000 HD
BRANCH  22  24
ATOM     24  N   UNL     1       2.194   7.621  19.651  0.00  0.00    +0.000 NA
ATOM     25  C   UNL     1       1.468   8.024  20.646  0.00  0.00    +0.000 C 
BRANCH  25  26
ATOM     26  C   UNL     1       0.705   9.249  20.525  0.00  0.00    +0.000 A 
ATOM     27  C   UNL     1       0.046   9.960  21.511  0.00  0.00    +0.000 A 
ATOM     28  C   UNL     1      -0.622  11.112  21.002  0.00  0.00    +0.000 A 
ATOM     29  C   UNL     1      -0.448  11.245  19.642  0.00  0.00    +0.000 A 
ATOM     30  S   UNL     1       0.521   9.990  18.995  0.00  0.00    +0.000 S 
ENDBRANCH  25  26
ENDBRANCH  22  24
ENDBRANCH  19  20
ENDBRANCH   1  19
TORSDOF 8
ENDMDL
MODEL 8
REMARK VINA RESULT:      -7.2      1.609      1.718
REMARK  Name = 
REMARK  9 active torsions:
REMARK  status: ('A' for Active; 'I' for Inactive)
REMARK    1  A    between atoms: C_1  and  O_2
REMARK    2  A    between atoms: O_2  and  C_3
REMARK    3  A    between atoms: C_6  and  N_7
REMARK    4  A    between atoms: N_7  and  C_8
REMARK    5  A    between atoms: N_7  and  S_19
REMARK    6  A    between atoms: C_8  and  C_9
REMARK    7  A    between atoms: N_11  and  N_12
REMARK    8  A    between atoms: C_13  and  C_14
REMARK    9  A    between atoms: S_19  and  C_22
REMARK                            x       y       z     vdW  Elec       q    Type
REMARK                         _______ _______ _______ _____ _____    ______ ____
ROOT
ATOM      1  N   UNL     1       3.481   6.446  17.309  0.00  0.00    +0.000 N 
ENDROOT
BRANCH   1   5
ATOM      2  C   UNL     1       1.832   3.306  19.653  0.00  0.00    +0.000 A 
ATOM      3  C   UNL     1       2.933   4.025  20.125  0.00  0.00    +0.000 A 
ATOM      4  C   UNL     1       3.469   5.080  19.383  0.00  0.00    +0.000 A 
ATOM      5  C   UNL     1       2.922   5.409  18.142  0.00  0.00    +0.000 A 
ATOM      6  C   UNL     1       1.843   4.669  17.652  0.00  0.00    +0.000 A 
ATOM      7  C   UNL     1       1.288   3.628  18.411  0.00  0.00    +0.000 A 
BRANCH   2   9
ATOM      8  C   UNL     1       1.511   2.528  21.872  0.00  0.00    +0.000 C 
ATOM      9  O   UNL     1       1.418   2.292  20.473  0.00  0.00    +0.000 OA
ENDBRANCH   2   9
ENDBRANCH   1   5
BRANCH   1  10
ATOM     10  S   UNL     1       4.881   5.977  16.399  0.00  0.00    +0.000 S 
ATOM     11  O   UNL     1       4.859   4.538  16.230  0.00  0.00    +0.000 OA
ATOM     12  O   UNL     1       4.945   6.849  15.248  0.00  0.00    +0.000 OA
BRANCH  10  13
ATOM     13  C   UNL     1       6.280   6.378  17.445  0.00  0.00    +0.000 A 
ATOM     14  C   UNL     1       6.983   7.574  17.264  0.00  0.00    +0.000 A 
ATOM     15  C   UNL     1       8.097   7.851  18.066  0.00  0.00    +0.000 A 
ATOM     16  C   UNL     1       8.490   6.948  19.054  0.00  0.00    +0.000 A 
ATOM     17  C   UNL     1       7.755   5.787  19.274  0.00  0.00    +0.000 A 
ATOM     18  C   UNL     1       6.636   5.509  18.489  0.00  0.00    +0.000 A 
ENDBRANCH  10  13
ENDBRANCH   1  10
BRANCH   1  19
ATOM     19  C   UNL     1       3.558   7.804  17.916  0.00  0.00    +0.000 C 
BRANCH  19  20
ATOM     20  C   UNL     1       2.271   8.428  18.407  0.00  0.00    +0.000 C 
ATOM     21  O   UNL     1       1.670   7.914  19.356  0.00  0.00    +0.000 OA
ATOM     22  N   UNL     1       1.763   9.464  17.640  0.00  0.00    +0.000 N 
ATOM     23  H   UNL     1       2.314   9.883  16.899  0.00  0.00    +0.000 HD
BRANCH  22  24
ATOM     24  N   UNL     1       0.483   9.881  17.895  0.00  0.00    +0.000 NA
ATOM     25  C   UNL     1       0.306  10.892  18.688  0.00  0.00    +0.000 C 
BRANCH  25  26
ATOM     26  C   UNL     1      -1.035  11.375  18.943  0.00  0.00    +0.000 A 
ATOM     27  C   UNL     1      -1.456  12.308  19.871  0.00  0.00    +0.000 A 
ATOM     28  C   UNL     1      -2.868  12.508  19.846  0.00  0.00    +0.000 A 
ATOM     29  C   UNL     1      -3.477  11.722  18.894  0.00  0.00    +0.000 A 
ATOM     30  S   UNL     1      -2.349  10.759  18.039  0.00  0.00    +0.000 S 
ENDBRANCH  25  26
ENDBRANCH  22  24
ENDBRANCH  19  20
ENDBRANCH   1  19
TORSDOF 8
ENDMDL
MODEL 9
REMARK VINA RESULT:      -7.2      4.655      7.497
REMARK  Name = 
REMARK  9 active torsions:
REMARK  status: ('A' for Active; 'I' for Inactive)
REMARK    1  A    between atoms: C_1  and  O_2
REMARK    2  A    between atoms: O_2  and  C_3
REMARK    3  A    between atoms: C_6  and  N_7
REMARK    4  A    between atoms: N_7  and  C_8
REMARK    5  A    between atoms: N_7  and  S_19
REMARK    6  A    between atoms: C_8  and  C_9
REMARK    7  A    between atoms: N_11  and  N_12
REMARK    8  A    between atoms: C_13  and  C_14
REMARK    9  A    between atoms: S_19  and  C_22
REMARK                            x       y       z     vdW  Elec       q    Type
REMARK                         _______ _______ _______ _____ _____    ______ ____
ROOT
ATOM      1  N   UNL     1       6.294   5.023  17.493  0.00  0.00    +0.000 N 
ENDROOT
BRANCH   1   5
ATOM      2  C   UNL     1       6.234   4.089  13.345  0.00  0.00    +0.000 A 
ATOM      3  C   UNL     1       5.105   3.847  14.132  0.00  0.00    +0.000 A 
ATOM      4  C   UNL     1       5.096   4.176  15.490  0.00  0.00    +0.000 A 
ATOM      5  C   UNL     1       6.232   4.728  16.082  0.00  0.00    +0.000 A 
ATOM      6  C   UNL     1       7.374   4.940  15.305  0.00  0.00    +0.000 A 
ATOM      7  C   UNL     1       7.372   4.634  13.936  0.00  0.00    +0.000 A 
BRANCH   2   9
ATOM      8  C   UNL     1       5.873   2.326  11.799  0.00  0.00    +0.000 C 
ATOM      9  O   UNL     1       6.111   3.708  12.038  0.00  0.00    +0.000 OA
ENDBRANCH   2   9
ENDBRANCH   1   5
BRANCH   1  10
ATOM     10  S   UNL     1       4.833   5.662  18.172  0.00  0.00    +0.000 S 
ATOM     11  O   UNL     1       5.104   6.085  19.532  0.00  0.00    +0.000 OA
ATOM     12  O   UNL     1       4.294   6.595  17.208  0.00  0.00    +0.000 OA
BRANCH  10  13
ATOM     13  C   UNL     1       3.703   4.273  18.252  0.00  0.00    +0.000 A 
ATOM     14  C   UNL     1       4.153   3.013  18.661  0.00  0.00    +0.000 A 
ATOM     15  C   UNL     1       3.262   1.932  18.679  0.00  0.00    +0.000 A 
ATOM     16  C   UNL     1       1.929   2.117  18.313  0.00  0.00    +0.000 A 
ATOM     17  C   UNL     1       1.467   3.383  17.964  0.00  0.00    +0.000 A 
ATOM     18  C   UNL     1       2.344   4.468  17.956  0.00  0.00    +0.000 A 
ENDBRANCH  10  13
ENDBRANCH   1  10
BRANCH   1  19
ATOM     19  C   UNL     1       7.543   5.681  17.970  0.00  0.00    +0.000 C 
BRANCH  19  20
ATOM     20  C   UNL     1       7.658   7.179  17.794  0.00  0.00    +0.000 C 
ATOM     21  O   UNL     1       7.216   7.706  16.769  0.00  0.00    +0.000 OA
ATOM     22  N   UNL     1       8.409   7.850  18.748  0.00  0.00    +0.000 N 
ATOM     23  H   UNL     1       8.711   7.382  19.597  0.00  0.00    +0.000 HD
BRANCH  22  24
ATOM     24  N   UNL     1       8.754   9.150  18.491  0.00  0.00    +0.000 NA
ATOM     25  C   UNL     1       9.208   9.875  19.465  0.00  0.00    +0.000 C 
BRANCH  25  26
ATOM     26  C   UNL     1       9.616  11.241  19.211  0.00  0.00    +0.000 A 
ATOM     27  C   UNL     1      10.551  12.005  19.884  0.00  0.00    +0.000 A 
ATOM     28  C   UNL     1      10.663  13.325  19.357  0.00  0.00    +0.000 A 
ATOM     29  C   UNL     1       9.811  13.523  18.293  0.00  0.00    +0.000 A 
ATOM     30  S   UNL     1       8.892  12.122  17.937  0.00  0.00    +0.000 S 
ENDBRANCH  25  26
ENDBRANCH  22  24
ENDBRANCH  19  20
ENDBRANCH   1  19
TORSDOF 8
ENDMDL
