MODEL 1
REMARK VINA RESULT:      -8.0      0.000      0.000
REMARK  Name = 
REMARK  9 active torsions:
REMARK  status: ('A' for Active; 'I' for Inactive)
REMARK    1  A    between atoms: C_1  and  C_2
REMARK    2  A    between atoms: C_6  and  C_7
REMARK    3  A    between atoms: N_9  and  C_10
REMARK    4  A    between atoms: C_10  and  N_11
REMARK    5  A    between atoms: C_10  and  C_24
REMARK    6  A    between atoms: N_11  and  C_12
REMARK    7  A    between atoms: C_12  and  N_14
REMARK    8  A    between atoms: N_14  and  C_15
REMARK    9  A    between atoms: C_18  and  N_19
REMARK                            x       y       z     vdW  Elec       q    Type
REMARK                         _______ _______ _______ _____ _____    ______ ____
ROOT
ATOM      1  C   UNL     1       4.005   4.245  19.359  0.00  0.00    +0.000 C 
ENDROOT
BRANCH   1   4
ATOM      2  C   UNL     1       2.665   6.230  18.866  0.00  0.00    +0.000 C 
ATOM      3  O   UNL     1       2.384   5.790  17.758  0.00  0.00    +0.000 OA
ATOM      4  N   UNL     1       3.518   5.569  19.727  0.00  0.00    +0.000 N 
ATOM      5  H   UNL     1       3.717   5.946  20.640  0.00  0.00    +0.000 HD
BRANCH   2  11
ATOM      6  C   UNL     1       0.518   9.093  22.421  0.00  0.00    +0.000 C 
ATOM      7  C   UNL     1       1.023   8.906  21.020  0.00  0.00    +0.000 A 
ATOM      8  C   UNL     1       0.865   9.919  20.066  0.00  0.00    +0.000 A 
ATOM      9  C   UNL     1       1.301   9.731  18.751  0.00  0.00    +0.000 A 
ATOM     10  C   UNL     1       1.898   8.528  18.383  0.00  0.00    +0.000 A 
ATOM     11  C   UNL     1       2.079   7.512  19.329  0.00  0.00    +0.000 A 
ATOM     12  C   UNL     1       1.639   7.701  20.646  0.00  0.00    +0.000 A 
ENDBRANCH   2  11
ENDBRANCH   1   4
BRANCH   1  13
ATOM     13  C   UNL     1       3.297   3.017  20.128  0.00  0.00    +0.000 C 
ATOM     14 CL   UNL     1       2.080   2.142  19.108  0.00  0.00    +0.000 Cl
ATOM     15 CL   UNL     1       4.493   1.820  20.727  0.00  0.00    +0.000 Cl
ATOM     16 CL   UNL     1       2.340   3.580  21.582  0.00  0.00    +0.000 Cl
ENDBRANCH   1  13
BRANCH   1  17
ATOM     17  N   UNL     1       5.468   4.271  19.485  0.00  0.00    +0.000 N 
ATOM     18  H   UNL     1       5.917   3.475  19.913  0.00  0.00    +0.000 HD
BRANCH  17  19
ATOM     19  C   UNL     1       6.316   5.171  18.866  0.00  0.00    +0.000 C 
ATOM     20  S   UNL     1       7.764   5.713  19.502  0.00  0.00    +0.000 S 
BRANCH  19  21
ATOM     21  N   UNL     1       5.733   5.653  17.701  0.00  0.00    +0.000 N 
ATOM     22  H   UNL     1       5.510   6.643  17.747  0.00  0.00    +0.000 HD
BRANCH  21  23
ATOM     23  C   UNL     1       5.913   5.125  16.404  0.00  0.00    +0.000 A 
ATOM     24  C   UNL     1       4.840   4.575  15.699  0.00  0.00    +0.000 A 
ATOM     25  C   UNL     1       5.011   4.091  14.402  0.00  0.00    +0.000 A 
ATOM     26  C   UNL     1       6.276   4.163  13.808  0.00  0.00    +0.000 A 
ATOM     27  C   UNL     1       7.358   4.733  14.496  0.00  0.00    +0.000 A 
ATOM     28  C   UNL     1       7.166   5.228  15.792  0.00  0.00    +0.000 A 
BRANCH  26  29
ATOM     29  N   UNL     1       6.461   3.649  12.446  0.00  0.00    +0.000 N 
ATOM     30  O   UNL     1       7.328   4.182  11.744  0.00  0.00    +0.000 OA
ATOM     31  O   UNL     1       5.738   2.712  12.083  0.00  0.00    +0.000 OA
ENDBRANCH  26  29
ENDBRANCH  21  23
ENDBRANCH  19  21
ENDBRANCH  17  19
ENDBRANCH   1  17
TORSDOF 8
ENDMDL
MODEL 2
REMARK VINA RESULT:      -7.9      0.177      1.097
REMARK  Name = 
REMARK  9 active torsions:
REMARK  status: ('A' for Active; 'I' for Inactive)
REMARK    1  A    between atoms: C_1  and  C_2
REMARK    2  A    between atoms: C_6  and  C_7
REMARK    3  A    between atoms: N_9  and  C_10
REMARK    4  A    between atoms: C_10  and  N_11
REMARK    5  A    between atoms: C_10  and  C_24
REMARK    6  A    between atoms: N_11  and  C_12
REMARK    7  A    between atoms: C_12  and  N_14
REMARK    8  A    between atoms: N_14  and  C_15
REMARK    9  A    between atoms: C_18  and  N_19
REMARK                            x       y       z     vdW  Elec       q    Type
REMARK                         _______ _______ _______ _____ _____    ______ ____
ROOT
ATOM      1  C   UNL     1       4.042   4.129  19.295  0.00  0.00    +0.000 C 
ENDROOT
BRANCH   1   4
ATOM      2  C   UNL     1       2.698   6.103  18.772  0.00  0.00    +0.000 C 
ATOM      3  O   UNL     1       2.351   5.609  17.706  0.00  0.00    +0.000 OA
ATOM      4  N   UNL     1       3.590   5.476  19.618  0.00  0.00    +0.000 N 
ATOM      5  H   UNL     1       3.844   5.898  20.497  0.00  0.00    +0.000 HD
BRANCH   2  11
ATOM      6  C   UNL     1       0.671   9.141  22.251  0.00  0.00    +0.000 C 
ATOM      7  C   UNL     1       1.154   8.893  20.852  0.00  0.00    +0.000 A 
ATOM      8  C   UNL     1       1.011   9.877  19.866  0.00  0.00    +0.000 A 
ATOM      9  C   UNL     1       1.427   9.634  18.554  0.00  0.00    +0.000 A 
ATOM     10  C   UNL     1       1.987   8.404  18.220  0.00  0.00    +0.000 A 
ATOM     11  C   UNL     1       2.152   7.415  19.198  0.00  0.00    +0.000 A 
ATOM     12  C   UNL     1       1.733   7.660  20.512  0.00  0.00    +0.000 A 
ENDBRANCH   2  11
ENDBRANCH   1   4
BRANCH   1  13
ATOM     13  C   UNL     1       3.371   2.953  20.171  0.00  0.00    +0.000 C 
ATOM     14 CL   UNL     1       2.198   1.941  19.229  0.00  0.00    +0.000 Cl
ATOM     15 CL   UNL     1       4.603   1.863  20.890  0.00  0.00    +0.000 Cl
ATOM     16 CL   UNL     1       2.378   3.614  21.558  0.00  0.00    +0.000 Cl
ENDBRANCH   1  13
BRANCH   1  17
ATOM     17  N   UNL     1       5.510   4.143  19.331  0.00  0.00    +0.000 N 
ATOM     18  H   UNL     1       5.982   3.298  19.616  0.00  0.00    +0.000 HD
BRANCH  17  19
ATOM     19  C   UNL     1       6.321   5.124  18.790  0.00  0.00    +0.000 C 
ATOM     20  S   UNL     1       7.724   5.700  19.495  0.00  0.00    +0.000 S 
BRANCH  19  21
ATOM     21  N   UNL     1       5.738   5.647  17.644  0.00  0.00    +0.000 N 
ATOM     22  H   UNL     1       5.499   6.631  17.732  0.00  0.00    +0.000 HD
BRANCH  21  23
ATOM     23  C   UNL     1       5.936   5.181  16.326  0.00  0.00    +0.000 A 
ATOM     24  C   UNL     1       7.143   5.408  15.660  0.00  0.00    +0.000 A 
ATOM     25  C   UNL     1       7.353   4.912  14.374  0.00  0.00    +0.000 A 
ATOM     26  C   UNL     1       6.338   4.175  13.752  0.00  0.00    +0.000 A 
ATOM     27  C   UNL     1       5.130   3.919  14.418  0.00  0.00    +0.000 A 
ATOM     28  C   UNL     1       4.941   4.412  15.715  0.00  0.00    +0.000 A 
BRANCH  26  29
ATOM     29  N   UNL     1       6.554   3.657  12.397  0.00  0.00    +0.000 N 
ATOM     30  O   UNL     1       5.907   2.660  12.054  0.00  0.00    +0.000 OA
ATOM     31  O   UNL     1       7.370   4.248  11.679  0.00  0.00    +0.000 OA
ENDBRANCH  26  29
ENDBRANCH  21  23
ENDBRANCH  19  21
ENDBRANCH  17  19
ENDBRANCH   1  17
TORSDOF 8
ENDMDL
MODEL 3
REMARK VINA RESULT:      -7.8      0.862      2.023
REMARK  Name = 
REMARK  9 active torsions:
REMARK  status: ('A' for Active; 'I' for Inactive)
REMARK    1  A    between atoms: C_1  and  C_2
REMARK    2  A    between atoms: C_6  and  C_7
REMARK    3  A    between atoms: N_9  and  C_10
REMARK    4  A    between atoms: C_10  and  N_11
REMARK    5  A    between atoms: C_10  and  C_24
REMARK    6  A    between atoms: N_11  and  C_12
REMARK    7  A    between atoms: C_12  and  N_14
REMARK    8  A    between atoms: N_14  and  C_15
REMARK    9  A    between atoms: C_18  and  N_19
REMARK                            x       y       z     vdW  Elec       q    Type
REMARK                         _______ _______ _______ _____ _____    ______ ____
ROOT
ATOM      1  C   UNL     1       3.688   5.047  19.141  0.00  0.00    +0.000 C 
ENDROOT
BRANCH   1   4
ATOM      2  C   UNL     1       2.525   7.197  19.105  0.00  0.00    +0.000 C 
ATOM      3  O   UNL     1       2.750   7.322  17.908  0.00  0.00    +0.000 OA
ATOM      4  N   UNL     1       2.999   6.127  19.837  0.00  0.00    +0.000 N 
ATOM      5  H   UNL     1       2.783   6.041  20.817  0.00  0.00    +0.000 HD
BRANCH   2  11
ATOM      6  C   UNL     1      -0.046  11.536  19.223  0.00  0.00    +0.000 C 
ATOM      7  C   UNL     1       0.483  10.309  19.907  0.00  0.00    +0.000 A 
ATOM      8  C   UNL     1       0.303  10.130  21.284  0.00  0.00    +0.000 A 
ATOM      9  C   UNL     1       0.826   9.007  21.929  0.00  0.00    +0.000 A 
ATOM     10  C   UNL     1       1.535   8.055  21.200  0.00  0.00    +0.000 A 
ATOM     11  C   UNL     1       1.710   8.210  19.820  0.00  0.00    +0.000 A 
ATOM     12  C   UNL     1       1.186   9.338  19.175  0.00  0.00    +0.000 A 
ENDBRANCH   2  11
ENDBRANCH   1   4
BRANCH   1  13
ATOM     13  C   UNL     1       3.015   3.590  19.302  0.00  0.00    +0.000 C 
ATOM     14 CL   UNL     1       1.715   3.540  20.566  0.00  0.00    +0.000 Cl
ATOM     15 CL   UNL     1       2.320   2.997  17.758  0.00  0.00    +0.000 Cl
ATOM     16 CL   UNL     1       4.225   2.334  19.854  0.00  0.00    +0.000 Cl
ENDBRANCH   1  13
BRANCH   1  17
ATOM     17  N   UNL     1       5.100   5.104  19.541  0.00  0.00    +0.000 N 
ATOM     18  H   UNL     1       5.374   4.608  20.376  0.00  0.00    +0.000 HD
BRANCH  17  19
ATOM     19  C   UNL     1       6.141   5.576  18.761  0.00  0.00    +0.000 C 
ATOM     20  S   UNL     1       7.734   5.682  19.257  0.00  0.00    +0.000 S 
BRANCH  19  21
ATOM     21  N   UNL     1       5.652   6.064  17.556  0.00  0.00    +0.000 N 
ATOM     22  H   UNL     1       5.514   7.070  17.561  0.00  0.00    +0.000 HD
BRANCH  21  23
ATOM     23  C   UNL     1       5.842   5.477  16.287  0.00  0.00    +0.000 A 
ATOM     24  C   UNL     1       7.014   5.705  15.561  0.00  0.00    +0.000 A 
ATOM     25  C   UNL     1       7.218   5.092  14.325  0.00  0.00    +0.000 A 
ATOM     26  C   UNL     1       6.233   4.238  13.815  0.00  0.00    +0.000 A 
ATOM     27  C   UNL     1       5.062   3.981  14.544  0.00  0.00    +0.000 A 
ATOM     28  C   UNL     1       4.879   4.593  15.790  0.00  0.00    +0.000 A 
BRANCH  26  29
ATOM     29  N   UNL     1       6.443   3.596  12.513  0.00  0.00    +0.000 N 
ATOM     30  O   UNL     1       5.680   2.675  12.198  0.00  0.00    +0.000 OA
ATOM     31  O   UNL     1       7.369   4.016  11.808  0.00  0.00    +0.000 OA
ENDBRANCH  26  29
ENDBRANCH  21  23
ENDBRANCH  19  21
ENDBRANCH  17  19
ENDBRANCH   1  17
TORSDOF 8
ENDMDL
MODEL 4
REMARK VINA RESULT:      -7.8      0.384      1.926
REMARK  Name = 
REMARK  9 active torsions:
REMARK  status: ('A' for Active; 'I' for Inactive)
REMARK    1  A    between atoms: C_1  and  C_2
REMARK    2  A    between atoms: C_6  and  C_7
REMARK    3  A    between atoms: N_9  and  C_10
REMARK    4  A    between atoms: C_10  and  N_11
REMARK    5  A    between atoms: C_10  and  C_24
REMARK    6  A    between atoms: N_11  and  C_12
REMARK    7  A    between atoms: C_12  and  N_14
REMARK    8  A    between atoms: N_14  and  C_15
REMARK    9  A    between atoms: C_18  and  N_19
REMARK                            x       y       z     vdW  Elec       q    Type
REMARK                         _______ _______ _______ _____ _____    ______ ____
ROOT
ATOM      1  C   UNL     1       4.065   4.289  19.409  0.00  0.00    +0.000 C 
ENDROOT
BRANCH   1   4
ATOM      2  C   UNL     1       2.593   6.205  19.036  0.00  0.00    +0.000 C 
ATOM      3  O   UNL     1       2.264   5.766  17.941  0.00  0.00    +0.000 OA
ATOM      4  N   UNL     1       3.533   5.579  19.829  0.00  0.00    +0.000 N 
ATOM      5  H   UNL     1       3.771   5.954  20.734  0.00  0.00    +0.000 HD
BRANCH   2  11
ATOM      6  C   UNL     1       1.237  11.036  18.522  0.00  0.00    +0.000 C 
ATOM      7  C   UNL     1       1.326   9.782  19.342  0.00  0.00    +0.000 A 
ATOM      8  C   UNL     1       0.905   9.775  20.678  0.00  0.00    +0.000 A 
ATOM      9  C   UNL     1       1.022   8.618  21.453  0.00  0.00    +0.000 A 
ATOM     10  C   UNL     1       1.561   7.461  20.897  0.00  0.00    +0.000 A 
ATOM     11  C   UNL     1       1.970   7.447  19.558  0.00  0.00    +0.000 A 
ATOM     12  C   UNL     1       1.855   8.608  18.782  0.00  0.00    +0.000 A 
ENDBRANCH   2  11
ENDBRANCH   1   4
BRANCH   1  13
ATOM     13  C   UNL     1       3.425   3.009  20.152  0.00  0.00    +0.000 C 
ATOM     14 CL   UNL     1       4.671   1.869  20.812  0.00  0.00    +0.000 Cl
ATOM     15 CL   UNL     1       2.334   3.487  21.495  0.00  0.00    +0.000 Cl
ATOM     16 CL   UNL     1       2.435   1.978  19.010  0.00  0.00    +0.000 Cl
ENDBRANCH   1  13
BRANCH   1  17
ATOM     17  N   UNL     1       5.528   4.370  19.504  0.00  0.00    +0.000 N 
ATOM     18  H   UNL     1       6.010   3.632  19.995  0.00  0.00    +0.000 HD
BRANCH  17  19
ATOM     19  C   UNL     1       6.337   5.235  18.789  0.00  0.00    +0.000 C 
ATOM     20  S   UNL     1       7.835   5.780  19.294  0.00  0.00    +0.000 S 
BRANCH  19  21
ATOM     21  N   UNL     1       5.673   5.681  17.654  0.00  0.00    +0.000 N 
ATOM     22  H   UNL     1       5.360   6.644  17.729  0.00  0.00    +0.000 HD
BRANCH  21  23
ATOM     23  C   UNL     1       5.860   5.197  16.341  0.00  0.00    +0.000 A 
ATOM     24  C   UNL     1       6.992   5.550  15.602  0.00  0.00    +0.000 A 
ATOM     25  C   UNL     1       7.196   5.039  14.321  0.00  0.00    +0.000 A 
ATOM     26  C   UNL     1       6.252   4.160  13.778  0.00  0.00    +0.000 A 
ATOM     27  C   UNL     1       5.122   3.778  14.517  0.00  0.00    +0.000 A 
ATOM     28  C   UNL     1       4.939   4.289  15.809  0.00  0.00    +0.000 A 
BRANCH  26  29
ATOM     29  N   UNL     1       6.460   3.625  12.428  0.00  0.00    +0.000 N 
ATOM     30  O   UNL     1       5.764   2.666  12.077  0.00  0.00    +0.000 OA
ATOM     31  O   UNL     1       7.320   4.167  11.722  0.00  0.00    +0.000 OA
ENDBRANCH  26  29
ENDBRANCH  21  23
ENDBRANCH  19  21
ENDBRANCH  17  19
ENDBRANCH   1  17
TORSDOF 8
ENDMDL
MODEL 5
REMARK VINA RESULT:      -7.7      2.778      7.960
REMARK  Name = 
REMARK  9 active torsions:
REMARK  status: ('A' for Active; 'I' for Inactive)
REMARK    1  A    between atoms: C_1  and  C_2
REMARK    2  A    between atoms: C_6  and  C_7
REMARK    3  A    between atoms: N_9  and  C_10
REMARK    4  A    between atoms: C_10  and  N_11
REMARK    5  A    between atoms: C_10  and  C_24
REMARK    6  A    between atoms: N_11  and  C_12
REMARK    7  A    between atoms: C_12  and  N_14
REMARK    8  A    between atoms: N_14  and  C_15
REMARK    9  A    between atoms: C_18  and  N_19
REMARK                            x       y       z     vdW  Elec       q    Type
REMARK                         _______ _______ _______ _____ _____    ______ ____
ROOT
ATOM      1  C   UNL     1       4.713   4.011  17.929  0.00  0.00    +0.000 C 
ENDROOT
BRANCH   1   4
ATOM      2  C   UNL     1       6.238   4.238  16.033  0.00  0.00    +0.000 C 
ATOM      3  O   UNL     1       7.196   4.341  16.789  0.00  0.00    +0.000 OA
ATOM      4  N   UNL     1       4.942   4.129  16.495  0.00  0.00    +0.000 N 
ATOM      5  H   UNL     1       4.175   4.028  15.850  0.00  0.00    +0.000 HD
BRANCH   2  11
ATOM      6  C   UNL     1       5.316   2.345  11.449  0.00  0.00    +0.000 C 
ATOM      7  C   UNL     1       6.036   3.310  12.346  0.00  0.00    +0.000 A 
ATOM      8  C   UNL     1       7.014   4.168  11.828  0.00  0.00    +0.000 A 
ATOM      9  C   UNL     1       7.711   5.040  12.668  0.00  0.00    +0.000 A 
ATOM     10  C   UNL     1       7.434   5.059  14.033  0.00  0.00    +0.000 A 
ATOM     11  C   UNL     1       6.448   4.219  14.564  0.00  0.00    +0.000 A 
ATOM     12  C   UNL     1       5.751   3.344  13.721  0.00  0.00    +0.000 A 
ENDBRANCH   2  11
ENDBRANCH   1   4
BRANCH   1  13
ATOM     13  C   UNL     1       3.402   3.168  18.345  0.00  0.00    +0.000 C 
ATOM     14 CL   UNL     1       1.902   3.706  17.478  0.00  0.00    +0.000 Cl
ATOM     15 CL   UNL     1       3.615   1.409  18.060  0.00  0.00    +0.000 Cl
ATOM     16 CL   UNL     1       2.991   3.370  20.116  0.00  0.00    +0.000 Cl
ENDBRANCH   1  13
BRANCH   1  17
ATOM     17  N   UNL     1       4.759   5.367  18.491  0.00  0.00    +0.000 N 
ATOM     18  H   UNL     1       5.149   5.481  19.414  0.00  0.00    +0.000 HD
BRANCH  17  19
ATOM     19  C   UNL     1       4.537   6.538  17.790  0.00  0.00    +0.000 C 
ATOM     20  S   UNL     1       5.738   7.542  17.202  0.00  0.00    +0.000 S 
BRANCH  19  21
ATOM     21  N   UNL     1       3.179   6.824  17.755  0.00  0.00    +0.000 N 
ATOM     22  H   UNL     1       2.638   6.125  17.253  0.00  0.00    +0.000 HD
BRANCH  21  23
ATOM     23  C   UNL     1       2.466   7.580  18.711  0.00  0.00    +0.000 A 
ATOM     24  C   UNL     1       1.885   8.803  18.367  0.00  0.00    +0.000 A 
ATOM     25  C   UNL     1       1.147   9.530  19.301  0.00  0.00    +0.000 A 
ATOM     26  C   UNL     1       0.989   9.019  20.594  0.00  0.00    +0.000 A 
ATOM     27  C   UNL     1       1.548   7.781  20.946  0.00  0.00    +0.000 A 
ATOM     28  C   UNL     1       2.273   7.056  19.993  0.00  0.00    +0.000 A 
BRANCH  26  29
ATOM     29  N   UNL     1       0.218   9.784  21.580  0.00  0.00    +0.000 N 
ATOM     30  O   UNL     1      -0.718   9.209  22.147  0.00  0.00    +0.000 OA
ATOM     31  O   UNL     1       0.553  10.958  21.785  0.00  0.00    +0.000 OA
ENDBRANCH  26  29
ENDBRANCH  21  23
ENDBRANCH  19  21
ENDBRANCH  17  19
ENDBRANCH   1  17
TORSDOF 8
ENDMDL
MODEL 6
REMARK VINA RESULT:      -7.6      1.194      1.425
REMARK  Name = 
REMARK  9 active torsions:
REMARK  status: ('A' for Active; 'I' for Inactive)
REMARK    1  A    between atoms: C_1  and  C_2
REMARK    2  A    between atoms: C_6  and  C_7
REMARK    3  A    between atoms: N_9  and  C_10
REMARK    4  A    between atoms: C_10  and  N_11
REMARK    5  A    between atoms: C_10  and  C_24
REMARK    6  A    between atoms: N_11  and  C_12
REMARK    7  A    between atoms: C_12  and  N_14
REMARK    8  A    between atoms: N_14  and  C_15
REMARK    9  A    between atoms: C_18  and  N_19
REMARK                            x       y       z     vdW  Elec       q    Type
REMARK                         _______ _______ _______ _____ _____    ______ ____
ROOT
ATOM      1  C   UNL     1       3.349   5.056  18.999  0.00  0.00    +0.000 C 
ENDROOT
BRANCH   1   4
ATOM      2  C   UNL     1       2.543   7.352  18.768  0.00  0.00    +0.000 C 
ATOM      3  O   UNL     1       3.181   7.494  17.732  0.00  0.00    +0.000 OA
ATOM      4  N   UNL     1       2.601   6.194  19.517  0.00  0.00    +0.000 N 
ATOM      5  H   UNL     1       2.051   6.099  20.356  0.00  0.00    +0.000 HD
BRANCH   2  11
ATOM      6  C   UNL     1      -0.163   9.576  22.398  0.00  0.00    +0.000 C 
ATOM      7  C   UNL     1       0.335   9.523  20.983  0.00  0.00    +0.000 A 
ATOM      8  C   UNL     1      -0.102  10.462  20.041  0.00  0.00    +0.000 A 
ATOM      9  C   UNL     1       0.331  10.391  18.714  0.00  0.00    +0.000 A 
ATOM     10  C   UNL     1       1.204   9.380  18.322  0.00  0.00    +0.000 A 
ATOM     11  C   UNL     1       1.663   8.443  19.256  0.00  0.00    +0.000 A 
ATOM     12  C   UNL     1       1.226   8.513  20.585  0.00  0.00    +0.000 A 
ENDBRANCH   2  11
ENDBRANCH   1   4
BRANCH   1  13
ATOM     13  C   UNL     1       2.597   3.634  19.114  0.00  0.00    +0.000 C 
ATOM     14 CL   UNL     1       2.336   2.833  17.508  0.00  0.00    +0.000 Cl
ATOM     15 CL   UNL     1       3.482   2.488  20.174  0.00  0.00    +0.000 Cl
ATOM     16 CL   UNL     1       0.914   3.803  19.808  0.00  0.00    +0.000 Cl
ENDBRANCH   1  13
BRANCH   1  17
ATOM     17  N   UNL     1       4.676   5.086  19.627  0.00  0.00    +0.000 N 
ATOM     18  H   UNL     1       4.720   5.096  20.635  0.00  0.00    +0.000 HD
BRANCH  17  19
ATOM     19  C   UNL     1       5.880   4.868  18.981  0.00  0.00    +0.000 C 
ATOM     20  S   UNL     1       7.319   5.631  19.359  0.00  0.00    +0.000 S 
BRANCH  19  21
ATOM     21  N   UNL     1       5.693   4.020  17.897  0.00  0.00    +0.000 N 
ATOM     22  H   UNL     1       4.855   3.451  17.977  0.00  0.00    +0.000 HD
BRANCH  21  23
ATOM     23  C   UNL     1       6.164   4.239  16.584  0.00  0.00    +0.000 A 
ATOM     24  C   UNL     1       5.528   3.648  15.489  0.00  0.00    +0.000 A 
ATOM     25  C   UNL     1       5.969   3.896  14.189  0.00  0.00    +0.000 A 
ATOM     26  C   UNL     1       7.059   4.751  13.990  0.00  0.00    +0.000 A 
ATOM     27  C   UNL     1       7.692   5.369  15.078  0.00  0.00    +0.000 A 
ATOM     28  C   UNL     1       7.228   5.121  16.376  0.00  0.00    +0.000 A 
BRANCH  26  29
ATOM     29  N   UNL     1       7.528   5.010  12.624  0.00  0.00    +0.000 N 
ATOM     30  O   UNL     1       7.206   4.205  11.743  0.00  0.00    +0.000 OA
ATOM     31  O   UNL     1       8.219   6.021  12.436  0.00  0.00    +0.000 OA
ENDBRANCH  26  29
ENDBRANCH  21  23
ENDBRANCH  19  21
ENDBRANCH  17  19
ENDBRANCH   1  17
TORSDOF 8
ENDMDL
MODEL 7
REMARK VINA RESULT:      -7.6      0.986      1.462
REMARK  Name = 
REMARK  9 active torsions:
REMARK  status: ('A' for Active; 'I' for Inactive)
REMARK    1  A    between atoms: C_1  and  C_2
REMARK    2  A    between atoms: C_6  and  C_7
REMARK    3  A    between atoms: N_9  and  C_10
REMARK    4  A    between atoms: C_10  and  N_11
REMARK    5  A    between atoms: C_10  and  C_24
REMARK    6  A    between atoms: N_11  and  C_12
REMARK    7  A    between atoms: C_12  and  N_14
REMARK    8  A    between atoms: N_14  and  C_15
REMARK    9  A    between atoms: C_18  and  N_19
REMARK                            x       y       z     vdW  Elec       q    Type
REMARK                         _______ _______ _______ _____ _____    ______ ____
ROOT
ATOM      1  C   UNL     1       3.606   5.112  19.163  0.00  0.00    +0.000 C 
ENDROOT
BRANCH   1   4
ATOM      2  C   UNL     1       2.583   7.323  18.964  0.00  0.00    +0.000 C 
ATOM      3  O   UNL     1       2.952   7.412  17.800  0.00  0.00    +0.000 OA
ATOM      4  N   UNL     1       2.906   6.242  19.759  0.00  0.00    +0.000 N 
ATOM      5  H   UNL     1       2.573   6.188  20.709  0.00  0.00    +0.000 HD
BRANCH   2  11
ATOM      6  C   UNL     1       0.072   9.329  22.852  0.00  0.00    +0.000 C 
ATOM      7  C   UNL     1       0.517   9.372  21.419  0.00  0.00    +0.000 A 
ATOM      8  C   UNL     1       0.073  10.391  20.568  0.00  0.00    +0.000 A 
ATOM      9  C   UNL     1       0.456  10.412  19.224  0.00  0.00    +0.000 A 
ATOM     10  C   UNL     1       1.285   9.412  18.724  0.00  0.00    +0.000 A 
ATOM     11  C   UNL     1       1.751   8.395  19.566  0.00  0.00    +0.000 A 
ATOM     12  C   UNL     1       1.365   8.374  20.912  0.00  0.00    +0.000 A 
ENDBRANCH   2  11
ENDBRANCH   1   4
BRANCH   1  13
ATOM     13  C   UNL     1       2.870   3.686  19.328  0.00  0.00    +0.000 C 
ATOM     14 CL   UNL     1       1.593   3.687  20.615  0.00  0.00    +0.000 Cl
ATOM     15 CL   UNL     1       2.120   3.135  17.793  0.00  0.00    +0.000 Cl
ATOM     16 CL   UNL     1       4.031   2.373  19.850  0.00  0.00    +0.000 Cl
ENDBRANCH   1  13
BRANCH   1  17
ATOM     17  N   UNL     1       4.985   5.139  19.668  0.00  0.00    +0.000 N 
ATOM     18  H   UNL     1       5.186   4.631  20.516  0.00  0.00    +0.000 HD
BRANCH  17  19
ATOM     19  C   UNL     1       6.090   5.598  18.974  0.00  0.00    +0.000 C 
ATOM     20  S   UNL     1       7.650   5.631  19.575  0.00  0.00    +0.000 S 
BRANCH  19  21
ATOM     21  N   UNL     1       5.698   6.141  17.757  0.00  0.00    +0.000 N 
ATOM     22  H   UNL     1       5.689   7.157  17.760  0.00  0.00    +0.000 HD
BRANCH  21  23
ATOM     23  C   UNL     1       5.845   5.532  16.492  0.00  0.00    +0.000 A 
ATOM     24  C   UNL     1       6.471   4.289  16.365  0.00  0.00    +0.000 A 
ATOM     25  C   UNL     1       6.579   3.670  15.120  0.00  0.00    +0.000 A 
ATOM     26  C   UNL     1       6.050   4.307  13.992  0.00  0.00    +0.000 A 
ATOM     27  C   UNL     1       5.399   5.544  14.109  0.00  0.00    +0.000 A 
ATOM     28  C   UNL     1       5.285   6.146  15.368  0.00  0.00    +0.000 A 
BRANCH  26  29
ATOM     29  N   UNL     1       6.168   3.661  12.680  0.00  0.00    +0.000 N 
ATOM     30  O   UNL     1       7.190   3.881  12.021  0.00  0.00    +0.000 OA
ATOM     31  O   UNL     1       5.236   2.933  12.313  0.00  0.00    +0.000 OA
ENDBRANCH  26  29
ENDBRANCH  21  23
ENDBRANCH  19  21
ENDBRANCH  17  19
ENDBRANCH   1  17
TORSDOF 8
ENDMDL
MODEL 8
REMARK VINA RESULT:      -7.5      1.266      2.017
REMARK  Name = 
REMARK  9 active torsions:
REMARK  status: ('A' for Active; 'I' for Inactive)
REMARK    1  A    between atoms: C_1  and  C_2
REMARK    2  A    between atoms: C_6  and  C_7
REMARK    3  A    between atoms: N_9  and  C_10
REMARK    4  A    between atoms: C_10  and  N_11
REMARK    5  A    between atoms: C_10  and  C_24
REMARK    6  A    between atoms: N_11  and  C_12
REMARK    7  A    between atoms: C_12  and  N_14
REMARK    8  A    between atoms: N_14  and  C_15
REMARK    9  A    between atoms: C_18  and  N_19
REMARK                            x       y       z     vdW  Elec       q    Type
REMARK                         _______ _______ _______ _____ _____    ______ ____
ROOT
ATOM      1  C   UNL     1       3.251   5.340  19.354  0.00  0.00    +0.000 C 
ENDROOT
BRANCH   1   4
ATOM      2  C   UNL     1       2.142   7.518  19.291  0.00  0.00    +0.000 C 
ATOM      3  O   UNL     1       2.292   7.582  18.077  0.00  0.00    +0.000 OA
ATOM      4  N   UNL     1       2.636   6.470  20.040  0.00  0.00    +0.000 N 
ATOM      5  H   UNL     1       2.482   6.435  21.036  0.00  0.00    +0.000 HD
BRANCH   2  11
ATOM      6  C   UNL     1      -0.023  12.071  19.444  0.00  0.00    +0.000 C 
ATOM      7  C   UNL     1       0.369  10.786  20.112  0.00  0.00    +0.000 A 
ATOM      8  C   UNL     1       0.130  10.593  21.479  0.00  0.00    +0.000 A 
ATOM      9  C   UNL     1       0.529   9.412  22.110  0.00  0.00    +0.000 A 
ATOM     10  C   UNL     1       1.170   8.416  21.378  0.00  0.00    +0.000 A 
ATOM     11  C   UNL     1       1.401   8.586  20.007  0.00  0.00    +0.000 A 
ATOM     12  C   UNL     1       1.003   9.771  19.376  0.00  0.00    +0.000 A 
ENDBRANCH   2  11
ENDBRANCH   1   4
BRANCH   1  13
ATOM     13  C   UNL     1       2.393   3.975  19.380  0.00  0.00    +0.000 C 
ATOM     14 CL   UNL     1       0.850   4.118  20.323  0.00  0.00    +0.000 Cl
ATOM     15 CL   UNL     1       1.989   3.404  17.727  0.00  0.00    +0.000 Cl
ATOM     16 CL   UNL     1       3.296   2.614  20.203  0.00  0.00    +0.000 Cl
ENDBRANCH   1  13
BRANCH   1  17
ATOM     17  N   UNL     1       4.615   5.203  19.880  0.00  0.00    +0.000 N 
ATOM     18  H   UNL     1       4.729   5.126  20.880  0.00  0.00    +0.000 HD
BRANCH  17  19
ATOM     19  C   UNL     1       5.745   4.932  19.130  0.00  0.00    +0.000 C 
ATOM     20  S   UNL     1       7.258   5.588  19.411  0.00  0.00    +0.000 S 
BRANCH  19  21
ATOM     21  N   UNL     1       5.416   4.138  18.039  0.00  0.00    +0.000 N 
ATOM     22  H   UNL     1       4.498   3.711  18.121  0.00  0.00    +0.000 HD
BRANCH  21  23
ATOM     23  C   UNL     1       5.906   4.292  16.725  0.00  0.00    +0.000 A 
ATOM     24  C   UNL     1       5.087   4.043  15.621  0.00  0.00    +0.000 A 
ATOM     25  C   UNL     1       5.559   4.234  14.323  0.00  0.00    +0.000 A 
ATOM     26  C   UNL     1       6.871   4.685  14.134  0.00  0.00    +0.000 A 
ATOM     27  C   UNL     1       7.698   4.961  15.233  0.00  0.00    +0.000 A 
ATOM     28  C   UNL     1       7.203   4.778  16.530  0.00  0.00    +0.000 A 
BRANCH  26  29
ATOM     29  N   UNL     1       7.373   4.882  12.770  0.00  0.00    +0.000 N 
ATOM     30  O   UNL     1       8.169   5.809  12.579  0.00  0.00    +0.000 OA
ATOM     31  O   UNL     1       6.970   4.107  11.892  0.00  0.00    +0.000 OA
ENDBRANCH  26  29
ENDBRANCH  21  23
ENDBRANCH  19  21
ENDBRANCH  17  19
ENDBRANCH   1  17
TORSDOF 8
ENDMDL
MODEL 9
REMARK VINA RESULT:      -7.3      2.975      7.834
REMARK  Name = 
REMARK  9 active torsions:
REMARK  status: ('A' for Active; 'I' for Inactive)
REMARK    1  A    between atoms: C_1  and  C_2
REMARK    2  A    between atoms: C_6  and  C_7
REMARK    3  A    between atoms: N_9  and  C_10
REMARK    4  A    between atoms: C_10  and  N_11
REMARK    5  A    between atoms: C_10  and  C_24
REMARK    6  A    between atoms: N_11  and  C_12
REMARK    7  A    between atoms: C_12  and  N_14
REMARK    8  A    between atoms: N_14  and  C_15
REMARK    9  A    between atoms: C_18  and  N_19
REMARK                            x       y       z     vdW  Elec       q    Type
REMARK                         _______ _______ _______ _____ _____    ______ ____
ROOT
ATOM      1  C   UNL     1       3.799   3.816  18.261  0.00  0.00    +0.000 C 
ENDROOT
BRANCH   1   4
ATOM      2  C   UNL     1       5.025   4.791  16.384  0.00  0.00    +0.000 C 
ATOM      3  O   UNL     1       5.164   5.844  16.994  0.00  0.00    +0.000 OA
ATOM      4  N   UNL     1       4.307   3.731  16.897  0.00  0.00    +0.000 N 
ATOM      5  H   UNL     1       4.224   2.870  16.380  0.00  0.00    +0.000 HD
BRANCH   2  11
ATOM      6  C   UNL     1       4.995   2.939  11.692  0.00  0.00    +0.000 C 
ATOM      7  C   UNL     1       5.663   3.720  12.786  0.00  0.00    +0.000 A 
ATOM      8  C   UNL     1       6.953   4.234  12.608  0.00  0.00    +0.000 A 
ATOM      9  C   UNL     1       7.590   4.928  13.639  0.00  0.00    +0.000 A 
ATOM     10  C   UNL     1       6.941   5.112  14.857  0.00  0.00    +0.000 A 
ATOM     11  C   UNL     1       5.644   4.619  15.046  0.00  0.00    +0.000 A 
ATOM     12  C   UNL     1       5.007   3.921  14.012  0.00  0.00    +0.000 A 
ENDBRANCH   2  11
ENDBRANCH   1   4
BRANCH   1  13
ATOM     13  C   UNL     1       3.325   2.416  18.904  0.00  0.00    +0.000 C 
ATOM     14 CL   UNL     1       4.030   0.970  18.066  0.00  0.00    +0.000 Cl
ATOM     15 CL   UNL     1       3.730   2.305  20.649  0.00  0.00    +0.000 Cl
ATOM     16 CL   UNL     1       1.517   2.176  18.766  0.00  0.00    +0.000 Cl
ENDBRANCH   1  13
BRANCH   1  17
ATOM     17  N   UNL     1       2.771   4.864  18.276  0.00  0.00    +0.000 N 
ATOM     18  H   UNL     1       2.104   4.881  17.519  0.00  0.00    +0.000 HD
BRANCH  17  19
ATOM     19  C   UNL     1       2.476   5.690  19.346  0.00  0.00    +0.000 C 
ATOM     20  S   UNL     1       1.685   5.207  20.737  0.00  0.00    +0.000 S 
BRANCH  19  21
ATOM     21  N   UNL     1       2.820   7.002  19.044  0.00  0.00    +0.000 N 
ATOM     22  H   UNL     1       3.590   7.070  18.386  0.00  0.00    +0.000 HD
BRANCH  21  23
ATOM     23  C   UNL     1       1.956   8.117  19.095  0.00  0.00    +0.000 A 
ATOM     24  C   UNL     1       1.458   8.582  20.314  0.00  0.00    +0.000 A 
ATOM     25  C   UNL     1       0.637   9.709  20.367  0.00  0.00    +0.000 A 
ATOM     26  C   UNL     1       0.316  10.376  19.179  0.00  0.00    +0.000 A 
ATOM     27  C   UNL     1       0.827   9.933  17.950  0.00  0.00    +0.000 A 
ATOM     28  C   UNL     1       1.662   8.809  17.916  0.00  0.00    +0.000 A 
BRANCH  26  29
ATOM     29  N   UNL     1      -0.552  11.557  19.231  0.00  0.00    +0.000 N 
ATOM     30  O   UNL     1      -0.732  12.090  20.332  0.00  0.00    +0.000 OA
ATOM     31  O   UNL     1      -1.050  11.950  18.168  0.00  0.00    +0.000 OA
ENDBRANCH  26  29
ENDBRANCH  21  23
ENDBRANCH  19  21
ENDBRANCH  17  19
ENDBRANCH   1  17
TORSDOF 8
ENDMDL
