MODEL 1
REMARK VINA RESULT:      -8.1      0.000      0.000
REMARK  Name = 
REMARK  1 active torsions:
REMARK  status: ('A' for Active; 'I' for Inactive)
REMARK    1  A    between atoms: C_20  and  C_21
REMARK                            x       y       z     vdW  Elec       q    Type
REMARK                         _______ _______ _______ _____ _____    ______ ____
ROOT
ATOM      1 CL   UNL     1      -5.121  14.363  20.347  0.00  0.00    +0.000 Cl
ATOM      2  C   UNL     1      -4.345  13.468  21.589  0.00  0.00    +0.000 A 
ATOM      3  C   UNL     1      -4.852  13.444  22.849  0.00  0.00    +0.000 A 
ATOM      4  C   UNL     1      -4.119  12.677  23.702  0.00  0.00    +0.000 A 
ATOM      5 CL   UNL     1      -4.570  12.512  25.349  0.00  0.00    +0.000 Cl
ATOM      6  N   UNL     1      -3.011  12.004  23.369  0.00  0.00    +0.000 NA
ATOM      7  C   UNL     1      -2.584  12.099  22.104  0.00  0.00    +0.000 A 
ATOM      8  N   UNL     1      -1.461  11.408  21.730  0.00  0.00    +0.000 N 
ATOM      9  C   UNL     1      -0.741  10.582  22.712  0.00  0.00    +0.000 C 
ATOM     10  C   UNL     1      -0.277   9.235  22.110  0.00  0.00    +0.000 C 
ATOM     11  C   UNL     1       0.324   9.427  20.759  0.00  0.00    +0.000 A 
ATOM     12  C   UNL     1       0.030  10.540  20.003  0.00  0.00    +0.000 A 
ATOM     13  N   UNL     1       0.685  10.439  18.808  0.00  0.00    +0.000 N 
ATOM     14  C   UNL     1       1.422   9.275  18.785  0.00  0.00    +0.000 A 
ATOM     15  C   UNL     1       2.250   8.760  17.783  0.00  0.00    +0.000 A 
ATOM     16  C   UNL     1       2.888   7.543  18.033  0.00  0.00    +0.000 A 
ATOM     17  C   UNL     1       2.704   6.870  19.240  0.00  0.00    +0.000 A 
ATOM     18  C   UNL     1       1.869   7.395  20.232  0.00  0.00    +0.000 A 
ATOM     19  C   UNL     1       1.214   8.620  20.004  0.00  0.00    +0.000 A 
ATOM     20  C   UNL     1      -0.851  11.684  20.421  0.00  0.00    +0.000 C 
ATOM     21  N   UNL     1      -3.238  12.823  21.188  0.00  0.00    +0.000 NA
ATOM     22  H   UNL     1       0.661  11.121  18.063  0.00  0.00    +0.000 HD
ENDROOT
BRANCH  20  23
ATOM     23  C   UNL     1      -0.065  12.998  20.420  0.00  0.00    +0.000 A 
ATOM     24  C   UNL     1      -0.303  13.999  19.444  0.00  0.00    +0.000 A 
ATOM     25  C   UNL     1       0.388  15.213  19.456  0.00  0.00    +0.000 A 
ATOM     26  C   UNL     1       1.304  15.413  20.461  0.00  0.00    +0.000 A 
ATOM     27  C   UNL     1       1.544  14.462  21.424  0.00  0.00    +0.000 A 
ATOM     28  C   UNL     1       0.882  13.248  21.431  0.00  0.00    +0.000 A 
ATOM     29  O   UNL     1       2.472  14.867  22.331  0.00  0.00    +0.000 OA
ATOM     30  C   UNL     1       2.825  16.161  21.798  0.00  0.00    +0.000 C 
ATOM     31  O   UNL     1       2.055  16.533  20.637  0.00  0.00    +0.000 OA
ENDBRANCH  20  23
TORSDOF 1
ENDMDL
MODEL 2
REMARK VINA RESULT:      -8.1      0.722      1.426
REMARK  Name = 
REMARK  1 active torsions:
REMARK  status: ('A' for Active; 'I' for Inactive)
REMARK    1  A    between atoms: C_20  and  C_21
REMARK                            x       y       z     vdW  Elec       q    Type
REMARK                         _______ _______ _______ _____ _____    ______ ____
ROOT
ATOM      1 CL   UNL     1      -5.258  14.242  20.306  0.00  0.00    +0.000 Cl
ATOM      2  C   UNL     1      -4.423  13.414  21.556  0.00  0.00    +0.000 A 
ATOM      3  C   UNL     1      -4.895  13.421  22.830  0.00  0.00    +0.000 A 
ATOM      4  C   UNL     1      -4.118  12.705  23.689  0.00  0.00    +0.000 A 
ATOM      5 CL   UNL     1      -4.519  12.587  25.352  0.00  0.00    +0.000 Cl
ATOM      6  N   UNL     1      -3.002  12.051  23.348  0.00  0.00    +0.000 NA
ATOM      7  C   UNL     1      -2.612  12.112  22.069  0.00  0.00    +0.000 A 
ATOM      8  N   UNL     1      -1.480  11.437  21.688  0.00  0.00    +0.000 N 
ATOM      9  C   UNL     1      -0.711  10.667  22.678  0.00  0.00    +0.000 C 
ATOM     10  C   UNL     1      -0.226   9.313  22.110  0.00  0.00    +0.000 C 
ATOM     11  C   UNL     1       0.332   9.472  20.737  0.00  0.00    +0.000 A 
ATOM     12  C   UNL     1      -0.013  10.549  19.951  0.00  0.00    +0.000 A 
ATOM     13  N   UNL     1       0.612  10.422  18.743  0.00  0.00    +0.000 N 
ATOM     14  C   UNL     1       1.380   9.279  18.740  0.00  0.00    +0.000 A 
ATOM     15  C   UNL     1       2.195   8.751  17.733  0.00  0.00    +0.000 A 
ATOM     16  C   UNL     1       2.873   7.560  18.008  0.00  0.00    +0.000 A 
ATOM     17  C   UNL     1       2.740   6.926  19.242  0.00  0.00    +0.000 A 
ATOM     18  C   UNL     1       1.918   7.465  20.239  0.00  0.00    +0.000 A 
ATOM     19  C   UNL     1       1.223   8.663  19.987  0.00  0.00    +0.000 A 
ATOM     20  C   UNL     1      -0.914  11.683  20.353  0.00  0.00    +0.000 C 
ATOM     21  N   UNL     1      -3.310  12.784  21.147  0.00  0.00    +0.000 NA
ATOM     22  H   UNL     1       0.549  11.077  17.975  0.00  0.00    +0.000 HD
ENDROOT
BRANCH  20  23
ATOM     23  C   UNL     1      -0.165  13.017  20.284  0.00  0.00    +0.000 A 
ATOM     24  C   UNL     1       0.952  13.279  21.116  0.00  0.00    +0.000 A 
ATOM     25  C   UNL     1       1.659  14.482  21.035  0.00  0.00    +0.000 A 
ATOM     26  C   UNL     1       1.241  15.404  20.106  0.00  0.00    +0.000 A 
ATOM     27  C   UNL     1       0.167  15.167  19.281  0.00  0.00    +0.000 A 
ATOM     28  C   UNL     1      -0.556  13.991  19.346  0.00  0.00    +0.000 A 
ATOM     29  O   UNL     1      -0.066  16.199  18.427  0.00  0.00    +0.000 OA
ATOM     30  C   UNL     1       0.953  17.132  18.845  0.00  0.00    +0.000 C 
ATOM     31  O   UNL     1       1.815  16.616  19.879  0.00  0.00    +0.000 OA
ENDBRANCH  20  23
TORSDOF 1
ENDMDL
MODEL 3
REMARK VINA RESULT:      -7.8      3.949      6.764
REMARK  Name = 
REMARK  1 active torsions:
REMARK  status: ('A' for Active; 'I' for Inactive)
REMARK    1  A    between atoms: C_20  and  C_21
REMARK                            x       y       z     vdW  Elec       q    Type
REMARK                         _______ _______ _______ _____ _____    ______ ____
ROOT
ATOM      1 CL   UNL     1       4.461  14.231  17.960  0.00  0.00    +0.000 Cl
ATOM      2  C   UNL     1       3.565  14.296  19.422  0.00  0.00    +0.000 A 
ATOM      3  C   UNL     1       4.073  14.911  20.522  0.00  0.00    +0.000 A 
ATOM      4  C   UNL     1       3.226  14.881  21.588  0.00  0.00    +0.000 A 
ATOM      5 CL   UNL     1       3.667  15.589  23.087  0.00  0.00    +0.000 Cl
ATOM      6  N   UNL     1       2.014  14.314  21.586  0.00  0.00    +0.000 NA
ATOM      7  C   UNL     1       1.605  13.724  20.458  0.00  0.00    +0.000 A 
ATOM      8  N   UNL     1       0.361  13.149  20.423  0.00  0.00    +0.000 N 
ATOM      9  C   UNL     1      -0.501  13.182  21.614  0.00  0.00    +0.000 C 
ATOM     10  C   UNL     1      -1.976  13.478  21.256  0.00  0.00    +0.000 C 
ATOM     11  C   UNL     1      -2.416  12.679  20.077  0.00  0.00    +0.000 A 
ATOM     12  C   UNL     1      -1.500  12.172  19.181  0.00  0.00    +0.000 A 
ATOM     13  N   UNL     1      -2.177  11.518  18.191  0.00  0.00    +0.000 N 
ATOM     14  C   UNL     1      -3.530  11.577  18.443  0.00  0.00    +0.000 A 
ATOM     15  C   UNL     1      -4.600  11.046  17.715  0.00  0.00    +0.000 A 
ATOM     16  C   UNL     1      -5.889  11.257  18.212  0.00  0.00    +0.000 A 
ATOM     17  C   UNL     1      -6.096  11.970  19.391  0.00  0.00    +0.000 A 
ATOM     18  C   UNL     1      -5.016  12.499  20.107  0.00  0.00    +0.000 A 
ATOM     19  C   UNL     1      -3.708  12.301  19.628  0.00  0.00    +0.000 A 
ATOM     20  C   UNL     1      -0.006  12.301  19.279  0.00  0.00    +0.000 C 
ATOM     21  N   UNL     1       2.362  13.705  19.354  0.00  0.00    +0.000 NA
ATOM     22  H   UNL     1      -1.757  11.038  17.407  0.00  0.00    +0.000 HD
ENDROOT
BRANCH  20  23
ATOM     23  C   UNL     1       0.650  10.919  19.355  0.00  0.00    +0.000 A 
ATOM     24  C   UNL     1       0.522  10.104  20.509  0.00  0.00    +0.000 A 
ATOM     25  C   UNL     1       1.092   8.830  20.572  0.00  0.00    +0.000 A 
ATOM     26  C   UNL     1       1.774   8.383  19.466  0.00  0.00    +0.000 A 
ATOM     27  C   UNL     1       1.903   9.151  18.334  0.00  0.00    +0.000 A 
ATOM     28  C   UNL     1       1.358  10.418  18.246  0.00  0.00    +0.000 A 
ATOM     29  O   UNL     1       2.599   8.515  17.354  0.00  0.00    +0.000 OA
ATOM     30  C   UNL     1       2.937   7.279  18.021  0.00  0.00    +0.000 C 
ATOM     31  O   UNL     1       2.378   7.170  19.345  0.00  0.00    +0.000 OA
ENDBRANCH  20  23
TORSDOF 1
ENDMDL
MODEL 4
REMARK VINA RESULT:      -7.5      3.771      6.769
REMARK  Name = 
REMARK  1 active torsions:
REMARK  status: ('A' for Active; 'I' for Inactive)
REMARK    1  A    between atoms: C_20  and  C_21
REMARK                            x       y       z     vdW  Elec       q    Type
REMARK                         _______ _______ _______ _____ _____    ______ ____
ROOT
ATOM      1 CL   UNL     1       4.288  14.467  17.841  0.00  0.00    +0.000 Cl
ATOM      2  C   UNL     1       3.604  14.420  19.415  0.00  0.00    +0.000 A 
ATOM      3  C   UNL     1       4.289  14.903  20.485  0.00  0.00    +0.000 A 
ATOM      4  C   UNL     1       3.594  14.798  21.651  0.00  0.00    +0.000 A 
ATOM      5 CL   UNL     1       4.272  15.336  23.133  0.00  0.00    +0.000 Cl
ATOM      6  N   UNL     1       2.366  14.282  21.768  0.00  0.00    +0.000 NA
ATOM      7  C   UNL     1       1.777  13.823  20.658  0.00  0.00    +0.000 A 
ATOM      8  N   UNL     1       0.511  13.302  20.745  0.00  0.00    +0.000 N 
ATOM      9  C   UNL     1      -0.177  13.249  22.044  0.00  0.00    +0.000 C 
ATOM     10  C   UNL     1      -1.670  13.636  21.926  0.00  0.00    +0.000 C 
ATOM     11  C   UNL     1      -2.307  12.975  20.751  0.00  0.00    +0.000 A 
ATOM     12  C   UNL     1      -1.550  12.526  19.692  0.00  0.00    +0.000 A 
ATOM     13  N   UNL     1      -2.389  12.000  18.750  0.00  0.00    +0.000 N 
ATOM     14  C   UNL     1      -3.690  12.086  19.194  0.00  0.00    +0.000 A 
ATOM     15  C   UNL     1      -4.875  11.671  18.578  0.00  0.00    +0.000 A 
ATOM     16  C   UNL     1      -6.071  11.881  19.269  0.00  0.00    +0.000 A 
ATOM     17  C   UNL     1      -6.078  12.480  20.527  0.00  0.00    +0.000 A 
ATOM     18  C   UNL     1      -4.884  12.893  21.130  0.00  0.00    +0.000 A 
ATOM     19  C   UNL     1      -3.666  12.694  20.455  0.00  0.00    +0.000 A 
ATOM     20  C   UNL     1      -0.052  12.587  19.590  0.00  0.00    +0.000 C 
ATOM     21  N   UNL     1       2.374  13.885  19.462  0.00  0.00    +0.000 NA
ATOM     22  H   UNL     1      -2.105  11.585  17.874  0.00  0.00    +0.000 HD
ENDROOT
BRANCH  20  23
ATOM     23  C   UNL     1       0.536  11.181  19.443  0.00  0.00    +0.000 A 
ATOM     24  C   UNL     1       1.197  10.778  18.255  0.00  0.00    +0.000 A 
ATOM     25  C   UNL     1       1.764   9.507  18.128  0.00  0.00    +0.000 A 
ATOM     26  C   UNL     1       1.671   8.658  19.205  0.00  0.00    +0.000 A 
ATOM     27  C   UNL     1       1.044   9.031  20.370  0.00  0.00    +0.000 A 
ATOM     28  C   UNL     1       0.467  10.277  20.521  0.00  0.00    +0.000 A 
ATOM     29  O   UNL     1       1.080   8.051  21.312  0.00  0.00    +0.000 OA
ATOM     30  C   UNL     1       1.755   7.002  20.586  0.00  0.00    +0.000 C 
ATOM     31  O   UNL     1       2.173   7.396  19.264  0.00  0.00    +0.000 OA
ENDBRANCH  20  23
TORSDOF 1
ENDMDL
MODEL 5
REMARK VINA RESULT:      -7.4      3.549      6.726
REMARK  Name = 
REMARK  1 active torsions:
REMARK  status: ('A' for Active; 'I' for Inactive)
REMARK    1  A    between atoms: C_20  and  C_21
REMARK                            x       y       z     vdW  Elec       q    Type
REMARK                         _______ _______ _______ _____ _____    ______ ____
ROOT
ATOM      1 CL   UNL     1       3.475  15.332  18.201  0.00  0.00    +0.000 Cl
ATOM      2  C   UNL     1       2.903  15.194  19.813  0.00  0.00    +0.000 A 
ATOM      3  C   UNL     1       3.624  15.691  20.852  0.00  0.00    +0.000 A 
ATOM      4  C   UNL     1       3.017  15.506  22.057  0.00  0.00    +0.000 A 
ATOM      5 CL   UNL     1       3.755  16.045  23.508  0.00  0.00    +0.000 Cl
ATOM      6  N   UNL     1       1.835  14.904  22.235  0.00  0.00    +0.000 NA
ATOM      7  C   UNL     1       1.206  14.438  21.150  0.00  0.00    +0.000 A 
ATOM      8  N   UNL     1      -0.015  13.831  21.302  0.00  0.00    +0.000 N 
ATOM      9  C   UNL     1      -0.610  13.694  22.640  0.00  0.00    +0.000 C 
ATOM     10  C   UNL     1      -2.130  13.981  22.631  0.00  0.00    +0.000 C 
ATOM     11  C   UNL     1      -2.799  13.313  21.479  0.00  0.00    +0.000 A 
ATOM     12  C   UNL     1      -2.086  12.947  20.359  0.00  0.00    +0.000 A 
ATOM     13  N   UNL     1      -2.949  12.393  19.456  0.00  0.00    +0.000 N 
ATOM     14  C   UNL     1      -4.220  12.377  19.986  0.00  0.00    +0.000 A 
ATOM     15  C   UNL     1      -5.414  11.901  19.434  0.00  0.00    +0.000 A 
ATOM     16  C   UNL     1      -6.572  12.009  20.208  0.00  0.00    +0.000 A 
ATOM     17  C   UNL     1      -6.535  12.570  21.483  0.00  0.00    +0.000 A 
ATOM     18  C   UNL     1      -5.334  13.045  22.021  0.00  0.00    +0.000 A 
ATOM     19  C   UNL     1      -4.153  12.949  21.262  0.00  0.00    +0.000 A 
ATOM     20  C   UNL     1      -0.605  13.112  20.162  0.00  0.00    +0.000 C 
ATOM     21  N   UNL     1       1.716  14.575  19.921  0.00  0.00    +0.000 NA
ATOM     22  H   UNL     1      -2.697  12.023  18.550  0.00  0.00    +0.000 HD
ENDROOT
BRANCH  20  23
ATOM     23  C   UNL     1       0.064  11.754  19.932  0.00  0.00    +0.000 A 
ATOM     24  C   UNL     1      -0.048  10.707  20.881  0.00  0.00    +0.000 A 
ATOM     25  C   UNL     1       0.533   9.455  20.661  0.00  0.00    +0.000 A 
ATOM     26  C   UNL     1       1.210   9.266  19.480  0.00  0.00    +0.000 A 
ATOM     27  C   UNL     1       1.322  10.263  18.541  0.00  0.00    +0.000 A 
ATOM     28  C   UNL     1       0.766  11.513  18.735  0.00  0.00    +0.000 A 
ATOM     29  O   UNL     1       2.014   9.862  17.442  0.00  0.00    +0.000 OA
ATOM     30  C   UNL     1       2.369   8.515  17.822  0.00  0.00    +0.000 C 
ATOM     31  O   UNL     1       1.823   8.115  19.094  0.00  0.00    +0.000 OA
ENDBRANCH  20  23
TORSDOF 1
ENDMDL
MODEL 6
REMARK VINA RESULT:      -7.3      3.606      6.504
REMARK  Name = 
REMARK  1 active torsions:
REMARK  status: ('A' for Active; 'I' for Inactive)
REMARK    1  A    between atoms: C_20  and  C_21
REMARK                            x       y       z     vdW  Elec       q    Type
REMARK                         _______ _______ _______ _____ _____    ______ ____
ROOT
ATOM      1 CL   UNL     1       2.934  15.298  17.838  0.00  0.00    +0.000 Cl
ATOM      2  C   UNL     1       2.121  15.253  19.349  0.00  0.00    +0.000 A 
ATOM      3  C   UNL     1       2.613  15.926  20.423  0.00  0.00    +0.000 A 
ATOM      4  C   UNL     1       1.837  15.791  21.534  0.00  0.00    +0.000 A 
ATOM      5 CL   UNL     1       2.274  16.547  23.011  0.00  0.00    +0.000 Cl
ATOM      6  N   UNL     1       0.706  15.081  21.597  0.00  0.00    +0.000 NA
ATOM      7  C   UNL     1       0.309  14.445  20.489  0.00  0.00    +0.000 A 
ATOM      8  N   UNL     1      -0.857  13.723  20.521  0.00  0.00    +0.000 N 
ATOM      9  C   UNL     1      -1.647  13.650  21.759  0.00  0.00    +0.000 C 
ATOM     10  C   UNL     1      -3.165  13.763  21.487  0.00  0.00    +0.000 C 
ATOM     11  C   UNL     1      -3.571  12.917  20.329  0.00  0.00    +0.000 A 
ATOM     12  C   UNL     1      -2.652  12.526  19.379  0.00  0.00    +0.000 A 
ATOM     13  N   UNL     1      -3.300  11.795  18.424  0.00  0.00    +0.000 N 
ATOM     14  C   UNL     1      -4.634  11.688  18.752  0.00  0.00    +0.000 A 
ATOM     15  C   UNL     1      -5.670  11.030  18.082  0.00  0.00    +0.000 A 
ATOM     16  C   UNL     1      -6.945  11.082  18.653  0.00  0.00    +0.000 A 
ATOM     17  C   UNL     1      -7.169  11.764  19.847  0.00  0.00    +0.000 A 
ATOM     18  C   UNL     1      -6.123  12.421  20.505  0.00  0.00    +0.000 A 
ATOM     19  C   UNL     1      -4.830  12.384  19.951  0.00  0.00    +0.000 A 
ATOM     20  C   UNL     1      -1.182  12.836  19.393  0.00  0.00    +0.000 C 
ATOM     21  N   UNL     1       0.997  14.520  19.344  0.00  0.00    +0.000 NA
ATOM     22  H   UNL     1      -2.869  11.370  17.614  0.00  0.00    +0.000 HD
ENDROOT
BRANCH  20  23
ATOM     23  C   UNL     1      -0.359  11.545  19.422  0.00  0.00    +0.000 A 
ATOM     24  C   UNL     1       0.497  11.192  18.348  0.00  0.00    +0.000 A 
ATOM     25  C   UNL     1       1.274  10.032  18.383  0.00  0.00    +0.000 A 
ATOM     26  C   UNL     1       1.193   9.245  19.506  0.00  0.00    +0.000 A 
ATOM     27  C   UNL     1       0.378   9.572  20.564  0.00  0.00    +0.000 A 
ATOM     28  C   UNL     1      -0.409  10.708  20.553  0.00  0.00    +0.000 A 
ATOM     29  O   UNL     1       0.460   8.671  21.578  0.00  0.00    +0.000 OA
ATOM     30  C   UNL     1       1.380   7.712  21.014  0.00  0.00    +0.000 C 
ATOM     31  O   UNL     1       1.884   8.093  19.718  0.00  0.00    +0.000 OA
ENDBRANCH  20  23
TORSDOF 1
ENDMDL
MODEL 7
REMARK VINA RESULT:      -7.1      1.102      1.441
REMARK  Name = 
REMARK  1 active torsions:
REMARK  status: ('A' for Active; 'I' for Inactive)
REMARK    1  A    between atoms: C_20  and  C_21
REMARK                            x       y       z     vdW  Elec       q    Type
REMARK                         _______ _______ _______ _____ _____    ______ ____
ROOT
ATOM      1 CL   UNL     1      -4.383  14.329  20.110  0.00  0.00    +0.000 Cl
ATOM      2  C   UNL     1      -3.696  13.406  21.383  0.00  0.00    +0.000 A 
ATOM      3  C   UNL     1      -4.227  13.444  22.634  0.00  0.00    +0.000 A 
ATOM      4  C   UNL     1      -3.566  12.644  23.516  0.00  0.00    +0.000 A 
ATOM      5 CL   UNL     1      -4.057  12.546  25.156  0.00  0.00    +0.000 Cl
ATOM      6  N   UNL     1      -2.505  11.887  23.216  0.00  0.00    +0.000 NA
ATOM      7  C   UNL     1      -2.050  11.924  21.959  0.00  0.00    +0.000 A 
ATOM      8  N   UNL     1      -0.973  11.146  21.620  0.00  0.00    +0.000 N 
ATOM      9  C   UNL     1      -0.333  10.291  22.632  0.00  0.00    +0.000 C 
ATOM     10  C   UNL     1       0.043   8.902  22.064  0.00  0.00    +0.000 C 
ATOM     11  C   UNL     1       0.681   9.022  20.722  0.00  0.00    +0.000 A 
ATOM     12  C   UNL     1       0.482  10.137  19.938  0.00  0.00    +0.000 A 
ATOM     13  N   UNL     1       1.149   9.965  18.759  0.00  0.00    +0.000 N 
ATOM     14  C   UNL     1       1.800   8.750  18.772  0.00  0.00    +0.000 A 
ATOM     15  C   UNL     1       2.606   8.157  17.797  0.00  0.00    +0.000 A 
ATOM     16  C   UNL     1       3.150   6.901  18.083  0.00  0.00    +0.000 A 
ATOM     17  C   UNL     1       2.895   6.268  19.298  0.00  0.00    +0.000 A 
ATOM     18  C   UNL     1       2.083   6.873  20.264  0.00  0.00    +0.000 A 
ATOM     19  C   UNL     1       1.523   8.137  20.000  0.00  0.00    +0.000 A 
ATOM     20  C   UNL     1      -0.321  11.350  20.318  0.00  0.00    +0.000 C 
ATOM     21  N   UNL     1      -2.633  12.674  21.017  0.00  0.00    +0.000 NA
ATOM     22  H   UNL     1       1.189  10.632  18.001  0.00  0.00    +0.000 HD
ENDROOT
BRANCH  20  23
ATOM     23  C   UNL     1       0.558  12.604  20.306  0.00  0.00    +0.000 A 
ATOM     24  C   UNL     1       0.788  13.354  21.487  0.00  0.00    +0.000 A 
ATOM     25  C   UNL     1       1.615  14.480  21.490  0.00  0.00    +0.000 A 
ATOM     26  C   UNL     1       2.214  14.833  20.304  0.00  0.00    +0.000 A 
ATOM     27  C   UNL     1       2.014  14.115  19.150  0.00  0.00    +0.000 A 
ATOM     28  C   UNL     1       1.194  13.002  19.115  0.00  0.00    +0.000 A 
ATOM     29  O   UNL     1       2.711  14.622  18.098  0.00  0.00    +0.000 OA
ATOM     30  C   UNL     1       3.331  15.771  18.714  0.00  0.00    +0.000 C 
ATOM     31  O   UNL     1       3.056  15.885  20.124  0.00  0.00    +0.000 OA
ENDBRANCH  20  23
TORSDOF 1
ENDMDL
MODEL 8
REMARK VINA RESULT:      -7.1      3.365      6.839
REMARK  Name = 
REMARK  1 active torsions:
REMARK  status: ('A' for Active; 'I' for Inactive)
REMARK    1  A    between atoms: C_20  and  C_21
REMARK                            x       y       z     vdW  Elec       q    Type
REMARK                         _______ _______ _______ _____ _____    ______ ____
ROOT
ATOM      1 CL   UNL     1       1.463  16.231  18.844  0.00  0.00    +0.000 Cl
ATOM      2  C   UNL     1       1.126  16.092  20.522  0.00  0.00    +0.000 A 
ATOM      3  C   UNL     1       1.926  16.691  21.443  0.00  0.00    +0.000 A 
ATOM      4  C   UNL     1       1.506  16.489  22.722  0.00  0.00    +0.000 A 
ATOM      5 CL   UNL     1       2.374  17.145  24.049  0.00  0.00    +0.000 Cl
ATOM      6  N   UNL     1       0.425  15.782  23.072  0.00  0.00    +0.000 NA
ATOM      7  C   UNL     1      -0.293  15.222  22.092  0.00  0.00    +0.000 A 
ATOM      8  N   UNL     1      -1.416  14.505  22.420  0.00  0.00    +0.000 N 
ATOM      9  C   UNL     1      -1.811  14.357  23.829  0.00  0.00    +0.000 C 
ATOM     10  C   UNL     1      -3.340  14.496  24.021  0.00  0.00    +0.000 C 
ATOM     11  C   UNL     1      -4.086  13.729  22.984  0.00  0.00    +0.000 A 
ATOM     12  C   UNL     1      -3.496  13.395  21.785  0.00  0.00    +0.000 A 
ATOM     13  N   UNL     1      -4.411  12.731  21.019  0.00  0.00    +0.000 N 
ATOM     14  C   UNL     1      -5.593  12.611  21.717  0.00  0.00    +0.000 A 
ATOM     15  C   UNL     1      -6.796  12.004  21.341  0.00  0.00    +0.000 A 
ATOM     16  C   UNL     1      -7.846  12.026  22.263  0.00  0.00    +0.000 A 
ATOM     17  C   UNL     1      -7.696  12.630  23.510  0.00  0.00    +0.000 A 
ATOM     18  C   UNL     1      -6.487  13.236  23.870  0.00  0.00    +0.000 A 
ATOM     19  C   UNL     1      -5.414  13.229  22.960  0.00  0.00    +0.000 A 
ATOM     20  C   UNL     1      -2.078  13.696  21.386  0.00  0.00    +0.000 C 
ATOM     21  N   UNL     1       0.032  15.367  20.802  0.00  0.00    +0.000 NA
ATOM     22  H   UNL     1      -4.247  12.358  20.095  0.00  0.00    +0.000 HD
ENDROOT
BRANCH  20  23
ATOM     23  C   UNL     1      -1.314  12.401  21.094  0.00  0.00    +0.000 A 
ATOM     24  C   UNL     1      -1.183  11.904  19.772  0.00  0.00    +0.000 A 
ATOM     25  C   UNL     1      -0.460  10.741  19.496  0.00  0.00    +0.000 A 
ATOM     26  C   UNL     1       0.136  10.096  20.553  0.00  0.00    +0.000 A 
ATOM     27  C   UNL     1       0.031  10.565  21.841  0.00  0.00    +0.000 A 
ATOM     28  C   UNL     1      -0.685  11.707  22.145  0.00  0.00    +0.000 A 
ATOM     29  O   UNL     1       0.707   9.790  22.730  0.00  0.00    +0.000 OA
ATOM     30  C   UNL     1       1.206   8.752  21.860  0.00  0.00    +0.000 C 
ATOM     31  O   UNL     1       0.885   8.964  20.470  0.00  0.00    +0.000 OA
ENDBRANCH  20  23
TORSDOF 1
ENDMDL
MODEL 9
REMARK VINA RESULT:      -7.1      3.287      7.132
REMARK  Name = 
REMARK  1 active torsions:
REMARK  status: ('A' for Active; 'I' for Inactive)
REMARK    1  A    between atoms: C_20  and  C_21
REMARK                            x       y       z     vdW  Elec       q    Type
REMARK                         _______ _______ _______ _____ _____    ______ ____
ROOT
ATOM      1 CL   UNL     1       2.037  15.253  19.079  0.00  0.00    +0.000 Cl
ATOM      2  C   UNL     1       1.561  15.518  20.706  0.00  0.00    +0.000 A 
ATOM      3  C   UNL     1       2.329  16.265  21.542  0.00  0.00    +0.000 A 
ATOM      4  C   UNL     1       1.796  16.383  22.790  0.00  0.00    +0.000 A 
ATOM      5 CL   UNL     1       2.604  17.274  24.013  0.00  0.00    +0.000 Cl
ATOM      6  N   UNL     1       0.641  15.835  23.184  0.00  0.00    +0.000 NA
ATOM      7  C   UNL     1      -0.039  15.108  22.291  0.00  0.00    +0.000 A 
ATOM      8  N   UNL     1      -1.234  14.548  22.664  0.00  0.00    +0.000 N 
ATOM      9  C   UNL     1      -1.748  14.746  24.027  0.00  0.00    +0.000 C 
ATOM     10  C   UNL     1      -3.272  15.010  24.041  0.00  0.00    +0.000 C 
ATOM     11  C   UNL     1      -3.991  14.070  23.134  0.00  0.00    +0.000 A 
ATOM     12  C   UNL     1      -3.335  13.440  22.099  0.00  0.00    +0.000 A 
ATOM     13  N   UNL     1      -4.235  12.672  21.418  0.00  0.00    +0.000 N 
ATOM     14  C   UNL     1      -5.474  12.779  22.012  0.00  0.00    +0.000 A 
ATOM     15  C   UNL     1      -6.686  12.170  21.670  0.00  0.00    +0.000 A 
ATOM     16  C   UNL     1      -7.800  12.459  22.462  0.00  0.00    +0.000 A 
ATOM     17  C   UNL     1      -7.703  13.322  23.552  0.00  0.00    +0.000 A 
ATOM     18  C   UNL     1      -6.484  13.926  23.880  0.00  0.00    +0.000 A 
ATOM     19  C   UNL     1      -5.346  13.652  23.098  0.00  0.00    +0.000 A 
ATOM     20  C   UNL     1      -1.872  13.563  21.777  0.00  0.00    +0.000 C 
ATOM     21  N   UNL     1       0.397  14.937  21.037  0.00  0.00    +0.000 NA
ATOM     22  H   UNL     1      -4.028  12.089  20.619  0.00  0.00    +0.000 HD
ENDROOT
BRANCH  20  23
ATOM     23  C   UNL     1      -1.187  12.196  21.852  0.00  0.00    +0.000 A 
ATOM     24  C   UNL     1      -1.309  11.371  22.999  0.00  0.00    +0.000 A 
ATOM     25  C   UNL     1      -0.713  10.109  23.061  0.00  0.00    +0.000 A 
ATOM     26  C   UNL     1      -0.010   9.683  21.960  0.00  0.00    +0.000 A 
ATOM     27  C   UNL     1       0.113  10.461  20.833  0.00  0.00    +0.000 A 
ATOM     28  C   UNL     1      -0.457  11.717  20.747  0.00  0.00    +0.000 A 
ATOM     29  O   UNL     1       0.832   9.846  19.857  0.00  0.00    +0.000 OA
ATOM     30  C   UNL     1       1.190   8.614  20.520  0.00  0.00    +0.000 C 
ATOM     31  O   UNL     1       0.621   8.485  21.838  0.00  0.00    +0.000 OA
ENDBRANCH  20  23
TORSDOF 1
ENDMDL
