MODEL 1
REMARK VINA RESULT:      -8.2      0.000      0.000
REMARK  Name = 
REMARK  5 active torsions:
REMARK  status: ('A' for Active; 'I' for Inactive)
REMARK    1  A    between atoms: C_2  and  C_11
REMARK    2  A    between atoms: N_3  and  C_4
REMARK    3  A    between atoms: C_4  and  C_5
REMARK    4  A    between atoms: C_16  and  N_17
REMARK    5  A    between atoms: C_18  and  C_20
REMARK                            x       y       z     vdW  Elec       q    Type
REMARK                         _______ _______ _______ _____ _____    ______ ____
ROOT
ATOM      1  C   UNL     1       5.484   4.685  16.956  0.00  0.00    +0.000 A 
ATOM      2  C   UNL     1       6.188   3.954  15.974  0.00  0.00    +0.000 A 
ATOM      3  C   UNL     1       6.435   4.496  14.715  0.00  0.00    +0.000 A 
ATOM      4  C   UNL     1       6.008   5.783  14.434  0.00  0.00    +0.000 A 
ATOM      5  C   UNL     1       5.312   6.515  15.399  0.00  0.00    +0.000 A 
ATOM      6  C   UNL     1       5.006   5.981  16.664  0.00  0.00    +0.000 A 
ENDROOT
BRANCH   1   8
ATOM      7  O   UNL     1       5.774   4.487  19.287  0.00  0.00    +0.000 OA
ATOM      8  C   UNL     1       5.313   3.992  18.263  0.00  0.00    +0.000 C 
ATOM      9  N   UNL     1       4.652   2.785  18.243  0.00  0.00    +0.000 N 
ATOM     10  H   UNL     1       4.605   2.292  17.359  0.00  0.00    +0.000 HD
BRANCH   9  11
ATOM     11  C   UNL     1       4.472   2.014  19.452  0.00  0.00    +0.000 C 
BRANCH  11  12
ATOM     12  C   UNL     1       3.191   2.362  20.146  0.00  0.00    +0.000 A 
ATOM     13  C   UNL     1       2.031   2.668  19.430  0.00  0.00    +0.000 A 
ATOM     14  C   UNL     1       0.862   2.987  20.112  0.00  0.00    +0.000 A 
ATOM     15  C   UNL     1       0.896   3.001  21.497  0.00  0.00    +0.000 A 
ATOM     16  N   UNL     1       2.000   2.727  22.225  0.00  0.00    +0.000 NA
ATOM     17  C   UNL     1       3.120   2.419  21.534  0.00  0.00    +0.000 A 
ENDBRANCH  11  12
ENDBRANCH   9  11
ENDBRANCH   1   8
BRANCH   6  18
ATOM     18  N   UNL     1       4.278   6.765  17.615  0.00  0.00    +0.000 N 
ATOM     19  C   UNL     1       2.963   6.512  17.997  0.00  0.00    +0.000 C 
ATOM     20  O   UNL     1       2.309   5.528  17.661  0.00  0.00    +0.000 OA
ATOM     21  H   UNL     1       4.796   7.496  18.096  0.00  0.00    +0.000 HD
BRANCH  19  22
ATOM     22  C   UNL     1       2.302   7.445  18.934  0.00  0.00    +0.000 A 
ATOM     23  C   UNL     1       1.869   8.686  18.457  0.00  0.00    +0.000 A 
ATOM     24  F   UNL     1       2.150   9.087  17.209  0.00  0.00    +0.000 F 
ATOM     25  C   UNL     1       1.139   9.558  19.263  0.00  0.00    +0.000 A 
ATOM     26  C   UNL     1       0.828   9.194  20.571  0.00  0.00    +0.000 A 
ATOM     27  C   UNL     1       1.258   7.960  21.062  0.00  0.00    +0.000 A 
ATOM     28  C   UNL     1       1.992   7.093  20.245  0.00  0.00    +0.000 A 
ATOM     29  F   UNL     1       2.356   5.902  20.743  0.00  0.00    +0.000 F 
ENDBRANCH  19  22
ENDBRANCH   6  18
TORSDOF 5
ENDMDL
MODEL 2
REMARK VINA RESULT:      -8.0      0.168      1.601
REMARK  Name = 
REMARK  5 active torsions:
REMARK  status: ('A' for Active; 'I' for Inactive)
REMARK    1  A    between atoms: C_2  and  C_11
REMARK    2  A    between atoms: N_3  and  C_4
REMARK    3  A    between atoms: C_4  and  C_5
REMARK    4  A    between atoms: C_16  and  N_17
REMARK    5  A    between atoms: C_18  and  C_20
REMARK                            x       y       z     vdW  Elec       q    Type
REMARK                         _______ _______ _______ _____ _____    ______ ____
ROOT
ATOM      1  C   UNL     1       5.622   4.690  16.990  0.00  0.00    +0.000 A 
ATOM      2  C   UNL     1       6.397   3.967  16.056  0.00  0.00    +0.000 A 
ATOM      3  C   UNL     1       6.659   4.481  14.789  0.00  0.00    +0.000 A 
ATOM      4  C   UNL     1       6.176   5.735  14.451  0.00  0.00    +0.000 A 
ATOM      5  C   UNL     1       5.409   6.458  15.368  0.00  0.00    +0.000 A 
ATOM      6  C   UNL     1       5.088   5.949  16.639  0.00  0.00    +0.000 A 
ENDROOT
BRANCH   1   8
ATOM      7  O   UNL     1       5.946   4.521  19.318  0.00  0.00    +0.000 OA
ATOM      8  C   UNL     1       5.443   4.030  18.312  0.00  0.00    +0.000 C 
ATOM      9  N   UNL     1       4.725   2.856  18.327  0.00  0.00    +0.000 N 
ATOM     10  H   UNL     1       4.638   2.349  17.454  0.00  0.00    +0.000 HD
BRANCH   9  11
ATOM     11  C   UNL     1       4.531   2.116  19.554  0.00  0.00    +0.000 C 
BRANCH  11  12
ATOM     12  C   UNL     1       3.195   2.403  20.168  0.00  0.00    +0.000 A 
ATOM     13  C   UNL     1       2.057   2.599  19.383  0.00  0.00    +0.000 A 
ATOM     14  C   UNL     1       0.835   2.864  19.993  0.00  0.00    +0.000 A 
ATOM     15  C   UNL     1       0.796   2.936  21.376  0.00  0.00    +0.000 A 
ATOM     16  N   UNL     1       1.877   2.769  22.168  0.00  0.00    +0.000 NA
ATOM     17  C   UNL     1       3.049   2.511  21.547  0.00  0.00    +0.000 A 
ENDBRANCH  11  12
ENDBRANCH   9  11
ENDBRANCH   1   8
BRANCH   6  18
ATOM     18  N   UNL     1       4.287   6.722  17.539  0.00  0.00    +0.000 N 
ATOM     19  C   UNL     1       2.997   6.378  17.933  0.00  0.00    +0.000 C 
ATOM     20  O   UNL     1       2.434   5.323  17.656  0.00  0.00    +0.000 OA
ATOM     21  H   UNL     1       4.736   7.524  17.975  0.00  0.00    +0.000 HD
BRANCH  19  22
ATOM     22  C   UNL     1       2.251   7.305  18.811  0.00  0.00    +0.000 A 
ATOM     23  C   UNL     1       2.030   6.942  20.143  0.00  0.00    +0.000 A 
ATOM     24  F   UNL     1       2.373   5.728  20.599  0.00  0.00    +0.000 F 
ATOM     25  C   UNL     1       1.435   7.822  21.045  0.00  0.00    +0.000 A 
ATOM     26  C   UNL     1       1.051   9.091  20.622  0.00  0.00    +0.000 A 
ATOM     27  C   UNL     1       1.260   9.466  19.294  0.00  0.00    +0.000 A 
ATOM     28  C   UNL     1       1.856   8.574  18.395  0.00  0.00    +0.000 A 
ATOM     29  F   UNL     1       2.073   8.984  17.137  0.00  0.00    +0.000 F 
ENDBRANCH  19  22
ENDBRANCH   6  18
TORSDOF 5
ENDMDL
MODEL 3
REMARK VINA RESULT:      -7.7      2.069      5.470
REMARK  Name = 
REMARK  5 active torsions:
REMARK  status: ('A' for Active; 'I' for Inactive)
REMARK    1  A    between atoms: C_2  and  C_11
REMARK    2  A    between atoms: N_3  and  C_4
REMARK    3  A    between atoms: C_4  and  C_5
REMARK    4  A    between atoms: C_16  and  N_17
REMARK    5  A    between atoms: C_18  and  C_20
REMARK                            x       y       z     vdW  Elec       q    Type
REMARK                         _______ _______ _______ _____ _____    ______ ____
ROOT
ATOM      1  C   UNL     1       3.558   3.899  17.716  0.00  0.00    +0.000 A 
ATOM      2  C   UNL     1       3.834   2.514  17.755  0.00  0.00    +0.000 A 
ATOM      3  C   UNL     1       2.903   1.611  18.261  0.00  0.00    +0.000 A 
ATOM      4  C   UNL     1       1.676   2.076  18.706  0.00  0.00    +0.000 A 
ATOM      5  C   UNL     1       1.394   3.444  18.670  0.00  0.00    +0.000 A 
ATOM      6  C   UNL     1       2.328   4.388  18.207  0.00  0.00    +0.000 A 
ENDROOT
BRANCH   1   8
ATOM      7  O   UNL     1       4.426   5.932  16.897  0.00  0.00    +0.000 OA
ATOM      8  C   UNL     1       4.633   4.744  17.127  0.00  0.00    +0.000 C 
ATOM      9  N   UNL     1       5.825   4.120  16.839  0.00  0.00    +0.000 N 
ATOM     10  H   UNL     1       5.812   3.111  16.736  0.00  0.00    +0.000 HD
BRANCH   9  11
ATOM     11  C   UNL     1       6.916   4.843  16.225  0.00  0.00    +0.000 C 
BRANCH  11  12
ATOM     12  C   UNL     1       6.937   4.657  14.739  0.00  0.00    +0.000 A 
ATOM     13  C   UNL     1       6.144   3.693  14.111  0.00  0.00    +0.000 A 
ATOM     14  C   UNL     1       6.194   3.553  12.728  0.00  0.00    +0.000 A 
ATOM     15  C   UNL     1       7.049   4.379  12.017  0.00  0.00    +0.000 A 
ATOM     16  N   UNL     1       7.842   5.310  12.588  0.00  0.00    +0.000 NA
ATOM     17  C   UNL     1       7.771   5.424  13.933  0.00  0.00    +0.000 A 
ENDBRANCH  11  12
ENDBRANCH   9  11
ENDBRANCH   1   8
BRANCH   6  18
ATOM     18  N   UNL     1       1.998   5.781  18.204  0.00  0.00    +0.000 N 
ATOM     19  C   UNL     1       2.337   6.669  19.220  0.00  0.00    +0.000 C 
ATOM     20  O   UNL     1       3.055   6.401  20.180  0.00  0.00    +0.000 OA
ATOM     21  H   UNL     1       1.564   6.144  17.358  0.00  0.00    +0.000 HD
BRANCH  19  22
ATOM     22  C   UNL     1       1.868   8.069  19.127  0.00  0.00    +0.000 A 
ATOM     23  C   UNL     1       1.198   8.630  20.219  0.00  0.00    +0.000 A 
ATOM     24  F   UNL     1       0.869   7.890  21.287  0.00  0.00    +0.000 F 
ATOM     25  C   UNL     1       0.836   9.976  20.233  0.00  0.00    +0.000 A 
ATOM     26  C   UNL     1       1.145  10.787  19.144  0.00  0.00    +0.000 A 
ATOM     27  C   UNL     1       1.809  10.239  18.045  0.00  0.00    +0.000 A 
ATOM     28  C   UNL     1       2.166   8.887  18.040  0.00  0.00    +0.000 A 
ATOM     29  F   UNL     1       2.835   8.407  16.981  0.00  0.00    +0.000 F 
ENDBRANCH  19  22
ENDBRANCH   6  18
TORSDOF 5
ENDMDL
MODEL 4
REMARK VINA RESULT:      -7.7      2.091      4.802
REMARK  Name = 
REMARK  5 active torsions:
REMARK  status: ('A' for Active; 'I' for Inactive)
REMARK    1  A    between atoms: C_2  and  C_11
REMARK    2  A    between atoms: N_3  and  C_4
REMARK    3  A    between atoms: C_4  and  C_5
REMARK    4  A    between atoms: C_16  and  N_17
REMARK    5  A    between atoms: C_18  and  C_20
REMARK                            x       y       z     vdW  Elec       q    Type
REMARK                         _______ _______ _______ _____ _____    ______ ____
ROOT
ATOM      1  C   UNL     1       3.235   3.624  17.810  0.00  0.00    +0.000 A 
ATOM      2  C   UNL     1       3.396   2.222  17.862  0.00  0.00    +0.000 A 
ATOM      3  C   UNL     1       2.433   1.410  18.456  0.00  0.00    +0.000 A 
ATOM      4  C   UNL     1       1.286   1.986  18.977  0.00  0.00    +0.000 A 
ATOM      5  C   UNL     1       1.116   3.372  18.929  0.00  0.00    +0.000 A 
ATOM      6  C   UNL     1       2.089   4.225  18.377  0.00  0.00    +0.000 A 
ENDROOT
BRANCH   1   8
ATOM      7  O   UNL     1       4.121   5.482  16.661  0.00  0.00    +0.000 OA
ATOM      8  C   UNL     1       4.330   4.365  17.125  0.00  0.00    +0.000 C 
ATOM      9  N   UNL     1       5.543   3.723  17.023  0.00  0.00    +0.000 N 
ATOM     10  H   UNL     1       5.548   2.713  17.115  0.00  0.00    +0.000 HD
BRANCH   9  11
ATOM     11  C   UNL     1       6.657   4.339  16.338  0.00  0.00    +0.000 C 
BRANCH  11  12
ATOM     12  C   UNL     1       7.210   5.497  17.112  0.00  0.00    +0.000 A 
ATOM     13  C   UNL     1       7.675   5.346  18.420  0.00  0.00    +0.000 A 
ATOM     14  C   UNL     1       8.181   6.447  19.104  0.00  0.00    +0.000 A 
ATOM     15  C   UNL     1       8.193   7.671  18.455  0.00  0.00    +0.000 A 
ATOM     16  N   UNL     1       7.738   7.860  17.198  0.00  0.00    +0.000 NA
ATOM     17  C   UNL     1       7.255   6.772  16.559  0.00  0.00    +0.000 A 
ENDBRANCH  11  12
ENDBRANCH   9  11
ENDBRANCH   1   8
BRANCH   6  18
ATOM     18  N   UNL     1       1.877   5.640  18.365  0.00  0.00    +0.000 N 
ATOM     19  C   UNL     1       2.362   6.515  19.332  0.00  0.00    +0.000 C 
ATOM     20  O   UNL     1       3.125   6.204  20.244  0.00  0.00    +0.000 OA
ATOM     21  H   UNL     1       1.414   6.024  17.544  0.00  0.00    +0.000 HD
BRANCH  19  22
ATOM     22  C   UNL     1       2.007   7.947  19.239  0.00  0.00    +0.000 A 
ATOM     23  C   UNL     1       2.323   8.646  18.070  0.00  0.00    +0.000 A 
ATOM     24  F   UNL     1       3.044   8.077  17.094  0.00  0.00    +0.000 F 
ATOM     25  C   UNL     1       1.911   9.964  17.880  0.00  0.00    +0.000 A 
ATOM     26  C   UNL     1       1.167  10.605  18.866  0.00  0.00    +0.000 A 
ATOM     27  C   UNL     1       0.848   9.922  20.041  0.00  0.00    +0.000 A 
ATOM     28  C   UNL     1       1.269   8.600  20.223  0.00  0.00    +0.000 A 
ATOM     29  F   UNL     1       0.912   7.966  21.350  0.00  0.00    +0.000 F 
ENDBRANCH  19  22
ENDBRANCH   6  18
TORSDOF 5
ENDMDL
MODEL 5
REMARK VINA RESULT:      -7.7      3.459      6.199
REMARK  Name = 
REMARK  5 active torsions:
REMARK  status: ('A' for Active; 'I' for Inactive)
REMARK    1  A    between atoms: C_2  and  C_11
REMARK    2  A    between atoms: N_3  and  C_4
REMARK    3  A    between atoms: C_4  and  C_5
REMARK    4  A    between atoms: C_16  and  N_17
REMARK    5  A    between atoms: C_18  and  C_20
REMARK                            x       y       z     vdW  Elec       q    Type
REMARK                         _______ _______ _______ _____ _____    ______ ____
ROOT
ATOM      1  C   UNL     1       6.714   5.091  16.476  0.00  0.00    +0.000 A 
ATOM      2  C   UNL     1       7.459   5.171  15.280  0.00  0.00    +0.000 A 
ATOM      3  C   UNL     1       6.930   4.724  14.072  0.00  0.00    +0.000 A 
ATOM      4  C   UNL     1       5.641   4.219  14.041  0.00  0.00    +0.000 A 
ATOM      5  C   UNL     1       4.894   4.137  15.219  0.00  0.00    +0.000 A 
ATOM      6  C   UNL     1       5.415   4.539  16.463  0.00  0.00    +0.000 A 
ENDROOT
BRANCH   1   8
ATOM      7  O   UNL     1       7.612   4.896  18.647  0.00  0.00    +0.000 OA
ATOM      8  C   UNL     1       7.394   5.629  17.686  0.00  0.00    +0.000 C 
ATOM      9  N   UNL     1       7.724   6.965  17.671  0.00  0.00    +0.000 N 
ATOM     10  H   UNL     1       7.227   7.562  17.019  0.00  0.00    +0.000 HD
BRANCH   9  11
ATOM     11  C   UNL     1       8.349   7.592  18.814  0.00  0.00    +0.000 C 
BRANCH  11  12
ATOM     12  C   UNL     1       8.567   9.057  18.590  0.00  0.00    +0.000 A 
ATOM     13  C   UNL     1       9.451   9.794  19.382  0.00  0.00    +0.000 A 
ATOM     14  C   UNL     1       9.625  11.153  19.141  0.00  0.00    +0.000 A 
ATOM     15  C   UNL     1       8.896  11.735  18.117  0.00  0.00    +0.000 A 
ATOM     16  N   UNL     1       8.021  11.060  17.340  0.00  0.00    +0.000 NA
ATOM     17  C   UNL     1       7.874   9.742  17.597  0.00  0.00    +0.000 A 
ENDBRANCH  11  12
ENDBRANCH   9  11
ENDBRANCH   1   8
BRANCH   6  18
ATOM     18  N   UNL     1       4.616   4.421  17.645  0.00  0.00    +0.000 N 
ATOM     19  C   UNL     1       3.917   3.274  18.009  0.00  0.00    +0.000 C 
ATOM     20  O   UNL     1       3.989   2.192  17.432  0.00  0.00    +0.000 OA
ATOM     21  H   UNL     1       4.642   5.206  18.292  0.00  0.00    +0.000 HD
BRANCH  19  22
ATOM     22  C   UNL     1       3.068   3.312  19.219  0.00  0.00    +0.000 A 
ATOM     23  C   UNL     1       1.786   3.863  19.127  0.00  0.00    +0.000 A 
ATOM     24  F   UNL     1       1.366   4.461  18.003  0.00  0.00    +0.000 F 
ATOM     25  C   UNL     1       0.901   3.822  20.203  0.00  0.00    +0.000 A 
ATOM     26  C   UNL     1       1.291   3.220  21.397  0.00  0.00    +0.000 A 
ATOM     27  C   UNL     1       2.569   2.671  21.505  0.00  0.00    +0.000 A 
ATOM     28  C   UNL     1       3.451   2.719  20.419  0.00  0.00    +0.000 A 
ATOM     29  F   UNL     1       4.657   2.149  20.551  0.00  0.00    +0.000 F 
ENDBRANCH  19  22
ENDBRANCH   6  18
TORSDOF 5
ENDMDL
MODEL 6
REMARK VINA RESULT:      -7.7      2.121      5.339
REMARK  Name = 
REMARK  5 active torsions:
REMARK  status: ('A' for Active; 'I' for Inactive)
REMARK    1  A    between atoms: C_2  and  C_11
REMARK    2  A    between atoms: N_3  and  C_4
REMARK    3  A    between atoms: C_4  and  C_5
REMARK    4  A    between atoms: C_16  and  N_17
REMARK    5  A    between atoms: C_18  and  C_20
REMARK                            x       y       z     vdW  Elec       q    Type
REMARK                         _______ _______ _______ _____ _____    ______ ____
ROOT
ATOM      1  C   UNL     1       3.538   3.832  17.810  0.00  0.00    +0.000 A 
ATOM      2  C   UNL     1       3.734   2.434  17.831  0.00  0.00    +0.000 A 
ATOM      3  C   UNL     1       2.731   1.574  18.271  0.00  0.00    +0.000 A 
ATOM      4  C   UNL     1       1.512   2.099  18.667  0.00  0.00    +0.000 A 
ATOM      5  C   UNL     1       1.308   3.482  18.649  0.00  0.00    +0.000 A 
ATOM      6  C   UNL     1       2.315   4.380  18.253  0.00  0.00    +0.000 A 
ENDROOT
BRANCH   1   8
ATOM      7  O   UNL     1       4.714   5.844  17.453  0.00  0.00    +0.000 OA
ATOM      8  C   UNL     1       4.686   4.627  17.293  0.00  0.00    +0.000 C 
ATOM      9  N   UNL     1       5.666   3.934  16.619  0.00  0.00    +0.000 N 
ATOM     10  H   UNL     1       5.422   3.027  16.239  0.00  0.00    +0.000 HD
BRANCH   9  11
ATOM     11  C   UNL     1       6.800   4.620  16.041  0.00  0.00    +0.000 C 
BRANCH  11  12
ATOM     12  C   UNL     1       6.834   4.474  14.551  0.00  0.00    +0.000 A 
ATOM     13  C   UNL     1       5.997   3.575  13.885  0.00  0.00    +0.000 A 
ATOM     14  C   UNL     1       6.061   3.469  12.499  0.00  0.00    +0.000 A 
ATOM     15  C   UNL     1       6.974   4.262  11.824  0.00  0.00    +0.000 A 
ATOM     16  N   UNL     1       7.811   5.130  12.433  0.00  0.00    +0.000 NA
ATOM     17  C   UNL     1       7.725   5.212  13.778  0.00  0.00    +0.000 A 
ENDBRANCH  11  12
ENDBRANCH   9  11
ENDBRANCH   1   8
BRANCH   6  18
ATOM     18  N   UNL     1       2.063   5.789  18.265  0.00  0.00    +0.000 N 
ATOM     19  C   UNL     1       2.340   6.626  19.342  0.00  0.00    +0.000 C 
ATOM     20  O   UNL     1       2.937   6.288  20.361  0.00  0.00    +0.000 OA
ATOM     21  H   UNL     1       1.741   6.202  17.393  0.00  0.00    +0.000 HD
BRANCH  19  22
ATOM     22  C   UNL     1       1.961   8.052  19.251  0.00  0.00    +0.000 A 
ATOM     23  C   UNL     1       2.260   8.756  18.080  0.00  0.00    +0.000 A 
ATOM     24  F   UNL     1       2.984   8.198  17.100  0.00  0.00    +0.000 F 
ATOM     25  C   UNL     1       1.825  10.067  17.892  0.00  0.00    +0.000 A 
ATOM     26  C   UNL     1       1.077  10.697  18.883  0.00  0.00    +0.000 A 
ATOM     27  C   UNL     1       0.776  10.009  20.059  0.00  0.00    +0.000 A 
ATOM     28  C   UNL     1       1.218   8.693  20.239  0.00  0.00    +0.000 A 
ATOM     29  F   UNL     1       0.878   8.054  21.368  0.00  0.00    +0.000 F 
ENDBRANCH  19  22
ENDBRANCH   6  18
TORSDOF 5
ENDMDL
MODEL 7
REMARK VINA RESULT:      -7.5      2.607      6.677
REMARK  Name = 
REMARK  5 active torsions:
REMARK  status: ('A' for Active; 'I' for Inactive)
REMARK    1  A    between atoms: C_2  and  C_11
REMARK    2  A    between atoms: N_3  and  C_4
REMARK    3  A    between atoms: C_4  and  C_5
REMARK    4  A    between atoms: C_16  and  N_17
REMARK    5  A    between atoms: C_18  and  C_20
REMARK                            x       y       z     vdW  Elec       q    Type
REMARK                         _______ _______ _______ _____ _____    ______ ____
ROOT
ATOM      1  C   UNL     1       2.541   4.758  20.048  0.00  0.00    +0.000 A 
ATOM      2  C   UNL     1       1.838   4.480  21.240  0.00  0.00    +0.000 A 
ATOM      3  C   UNL     1       1.957   3.245  21.873  0.00  0.00    +0.000 A 
ATOM      4  C   UNL     1       2.803   2.287  21.339  0.00  0.00    +0.000 A 
ATOM      5  C   UNL     1       3.504   2.553  20.160  0.00  0.00    +0.000 A 
ATOM      6  C   UNL     1       3.372   3.773  19.472  0.00  0.00    +0.000 A 
ENDROOT
BRANCH   1   8
ATOM      7  O   UNL     1       2.560   6.350  18.309  0.00  0.00    +0.000 OA
ATOM      8  C   UNL     1       2.337   6.125  19.495  0.00  0.00    +0.000 C 
ATOM      9  N   UNL     1       1.926   7.097  20.379  0.00  0.00    +0.000 N 
ATOM     10  H   UNL     1       2.088   6.931  21.366  0.00  0.00    +0.000 HD
BRANCH   9  11
ATOM     11  C   UNL     1       1.742   8.465  19.950  0.00  0.00    +0.000 C 
BRANCH  11  12
ATOM     12  C   UNL     1       0.914   9.244  20.926  0.00  0.00    +0.000 A 
ATOM     13  C   UNL     1      -0.064  10.146  20.499  0.00  0.00    +0.000 A 
ATOM     14  C   UNL     1      -0.811  10.850  21.438  0.00  0.00    +0.000 A 
ATOM     15  C   UNL     1      -0.545  10.635  22.780  0.00  0.00    +0.000 A 
ATOM     16  N   UNL     1       0.402   9.785  23.232  0.00  0.00    +0.000 NA
ATOM     17  C   UNL     1       1.110   9.114  22.296  0.00  0.00    +0.000 A 
ENDBRANCH  11  12
ENDBRANCH   9  11
ENDBRANCH   1   8
BRANCH   6  18
ATOM     18  N   UNL     1       4.100   3.994  18.260  0.00  0.00    +0.000 N 
ATOM     19  C   UNL     1       5.459   4.291  18.204  0.00  0.00    +0.000 C 
ATOM     20  O   UNL     1       6.221   4.285  19.167  0.00  0.00    +0.000 OA
ATOM     21  H   UNL     1       3.597   3.836  17.390  0.00  0.00    +0.000 HD
BRANCH  19  22
ATOM     22  C   UNL     1       6.073   4.571  16.889  0.00  0.00    +0.000 A 
ATOM     23  C   UNL     1       5.851   3.677  15.836  0.00  0.00    +0.000 A 
ATOM     24  F   UNL     1       5.199   2.521  16.033  0.00  0.00    +0.000 F 
ATOM     25  C   UNL     1       6.307   3.946  14.547  0.00  0.00    +0.000 A 
ATOM     26  C   UNL     1       6.997   5.128  14.291  0.00  0.00    +0.000 A 
ATOM     27  C   UNL     1       7.231   6.028  15.332  0.00  0.00    +0.000 A 
ATOM     28  C   UNL     1       6.770   5.747  16.623  0.00  0.00    +0.000 A 
ATOM     29  F   UNL     1       6.984   6.653  17.589  0.00  0.00    +0.000 F 
ENDBRANCH  19  22
ENDBRANCH   6  18
TORSDOF 5
ENDMDL
MODEL 8
REMARK VINA RESULT:      -7.4      3.480      6.295
REMARK  Name = 
REMARK  5 active torsions:
REMARK  status: ('A' for Active; 'I' for Inactive)
REMARK    1  A    between atoms: C_2  and  C_11
REMARK    2  A    between atoms: N_3  and  C_4
REMARK    3  A    between atoms: C_4  and  C_5
REMARK    4  A    between atoms: C_16  and  N_17
REMARK    5  A    between atoms: C_18  and  C_20
REMARK                            x       y       z     vdW  Elec       q    Type
REMARK                         _______ _______ _______ _____ _____    ______ ____
ROOT
ATOM      1  C   UNL     1       6.689   5.139  16.586  0.00  0.00    +0.000 A 
ATOM      2  C   UNL     1       7.486   5.260  15.428  0.00  0.00    +0.000 A 
ATOM      3  C   UNL     1       7.034   4.800  14.193  0.00  0.00    +0.000 A 
ATOM      4  C   UNL     1       5.770   4.241  14.098  0.00  0.00    +0.000 A 
ATOM      5  C   UNL     1       4.972   4.118  15.239  0.00  0.00    +0.000 A 
ATOM      6  C   UNL     1       5.416   4.531  16.508  0.00  0.00    +0.000 A 
ENDROOT
BRANCH   1   8
ATOM      7  O   UNL     1       7.267   5.041  18.870  0.00  0.00    +0.000 OA
ATOM      8  C   UNL     1       7.288   5.695  17.831  0.00  0.00    +0.000 C 
ATOM      9  N   UNL     1       7.821   6.961  17.750  0.00  0.00    +0.000 N 
ATOM     10  H   UNL     1       7.509   7.553  16.989  0.00  0.00    +0.000 HD
BRANCH   9  11
ATOM     11  C   UNL     1       8.388   7.607  18.913  0.00  0.00    +0.000 C 
BRANCH  11  12
ATOM     12  C   UNL     1       8.589   9.074  18.688  0.00  0.00    +0.000 A 
ATOM     13  C   UNL     1       7.993   9.737  17.613  0.00  0.00    +0.000 A 
ATOM     14  C   UNL     1       8.206  11.101  17.439  0.00  0.00    +0.000 A 
ATOM     15  C   UNL     1       9.024  11.756  18.345  0.00  0.00    +0.000 A 
ATOM     16  N   UNL     1       9.630  11.147  19.387  0.00  0.00    +0.000 NA
ATOM     17  C   UNL     1       9.403   9.823  19.531  0.00  0.00    +0.000 A 
ENDBRANCH  11  12
ENDBRANCH   9  11
ENDBRANCH   1   8
BRANCH   6  18
ATOM     18  N   UNL     1       4.569   4.371  17.650  0.00  0.00    +0.000 N 
ATOM     19  C   UNL     1       3.877   3.203  17.956  0.00  0.00    +0.000 C 
ATOM     20  O   UNL     1       3.996   2.137  17.358  0.00  0.00    +0.000 OA
ATOM     21  H   UNL     1       4.551   5.141  18.316  0.00  0.00    +0.000 HD
BRANCH  19  22
ATOM     22  C   UNL     1       2.975   3.196  19.127  0.00  0.00    +0.000 A 
ATOM     23  C   UNL     1       3.449   2.685  20.340  0.00  0.00    +0.000 A 
ATOM     24  F   UNL     1       4.651   2.096  20.424  0.00  0.00    +0.000 F 
ATOM     25  C   UNL     1       2.686   2.758  21.505  0.00  0.00    +0.000 A 
ATOM     26  C   UNL     1       1.427   3.350  21.471  0.00  0.00    +0.000 A 
ATOM     27  C   UNL     1       0.939   3.860  20.267  0.00  0.00    +0.000 A 
ATOM     28  C   UNL     1       1.711   3.780  19.103  0.00  0.00    +0.000 A 
ATOM     29  F   UNL     1       1.222   4.313  17.973  0.00  0.00    +0.000 F 
ENDBRANCH  19  22
ENDBRANCH   6  18
TORSDOF 5
ENDMDL
MODEL 9
REMARK VINA RESULT:      -7.3      3.297      6.066
REMARK  Name = 
REMARK  5 active torsions:
REMARK  status: ('A' for Active; 'I' for Inactive)
REMARK    1  A    between atoms: C_2  and  C_11
REMARK    2  A    between atoms: N_3  and  C_4
REMARK    3  A    between atoms: C_4  and  C_5
REMARK    4  A    between atoms: C_16  and  N_17
REMARK    5  A    between atoms: C_18  and  C_20
REMARK                            x       y       z     vdW  Elec       q    Type
REMARK                         _______ _______ _______ _____ _____    ______ ____
ROOT
ATOM      1  C   UNL     1       6.847   4.800  16.081  0.00  0.00    +0.000 A 
ATOM      2  C   UNL     1       7.624   5.174  14.964  0.00  0.00    +0.000 A 
ATOM      3  C   UNL     1       7.273   4.773  13.677  0.00  0.00    +0.000 A 
ATOM      4  C   UNL     1       6.125   4.020  13.490  0.00  0.00    +0.000 A 
ATOM      5  C   UNL     1       5.348   3.646  14.590  0.00  0.00    +0.000 A 
ATOM      6  C   UNL     1       5.699   3.996  15.906  0.00  0.00    +0.000 A 
ENDROOT
BRANCH   1   8
ATOM      7  O   UNL     1       7.341   4.586  18.376  0.00  0.00    +0.000 OA
ATOM      8  C   UNL     1       7.327   5.319  17.392  0.00  0.00    +0.000 C 
ATOM      9  N   UNL     1       7.712   6.639  17.432  0.00  0.00    +0.000 N 
ATOM     10  H   UNL     1       7.364   7.251  16.703  0.00  0.00    +0.000 HD
BRANCH   9  11
ATOM     11  C   UNL     1       8.153   7.250  18.666  0.00  0.00    +0.000 C 
BRANCH  11  12
ATOM     12  C   UNL     1       8.411   8.716  18.497  0.00  0.00    +0.000 A 
ATOM     13  C   UNL     1       9.286   9.406  19.339  0.00  0.00    +0.000 A 
ATOM     14  C   UNL     1       9.498  10.768  19.148  0.00  0.00    +0.000 A 
ATOM     15  C   UNL     1       8.814  11.399  18.122  0.00  0.00    +0.000 A 
ATOM     16  N   UNL     1       7.949  10.770  17.297  0.00  0.00    +0.000 NA
ATOM     17  C   UNL     1       7.765   9.447  17.506  0.00  0.00    +0.000 A 
ENDBRANCH  11  12
ENDBRANCH   9  11
ENDBRANCH   1   8
BRANCH   6  18
ATOM     18  N   UNL     1       4.879   3.577  17.001  0.00  0.00    +0.000 N 
ATOM     19  C   UNL     1       3.894   4.364  17.590  0.00  0.00    +0.000 C 
ATOM     20  O   UNL     1       3.526   5.460  17.174  0.00  0.00    +0.000 OA
ATOM     21  H   UNL     1       4.977   2.609  17.300  0.00  0.00    +0.000 HD
BRANCH  19  22
ATOM     22  C   UNL     1       3.169   3.837  18.766  0.00  0.00    +0.000 A 
ATOM     23  C   UNL     1       3.182   4.575  19.954  0.00  0.00    +0.000 A 
ATOM     24  F   UNL     1       3.934   5.678  20.078  0.00  0.00    +0.000 F 
ATOM     25  C   UNL     1       2.424   4.186  21.057  0.00  0.00    +0.000 A 
ATOM     26  C   UNL     1       1.633   3.043  20.984  0.00  0.00    +0.000 A 
ATOM     27  C   UNL     1       1.613   2.293  19.807  0.00  0.00    +0.000 A 
ATOM     28  C   UNL     1       2.380   2.691  18.705  0.00  0.00    +0.000 A 
ATOM     29  F   UNL     1       2.307   1.964  17.581  0.00  0.00    +0.000 F 
ENDBRANCH  19  22
ENDBRANCH   6  18
TORSDOF 5
ENDMDL
