MODEL 1
REMARK VINA RESULT:      -8.0      0.000      0.000
REMARK  Name = 
REMARK  3 active torsions:
REMARK  status: ('A' for Active; 'I' for Inactive)
REMARK    1  A    between atoms: C_4  and  C_5
REMARK    2  A    between atoms: C_9  and  O_10
REMARK    3  A    between atoms: C_15  and  O_16
REMARK                            x       y       z     vdW  Elec       q    Type
REMARK                         _______ _______ _______ _____ _____    ______ ____
ROOT
ATOM      1  O   UNL     1       6.245   5.048  19.601  0.00  0.00    +0.000 OA
ATOM      2  C   UNL     1       5.662   4.643  18.603  0.00  0.00    +0.000 A 
ATOM      3  C   UNL     1       6.303   4.685  17.281  0.00  0.00    +0.000 A 
ATOM      4  C   UNL     1       5.631   4.251  16.204  0.00  0.00    +0.000 A 
ATOM      5  O   UNL     1       4.353   3.711  16.255  0.00  0.00    +0.000 OA
ATOM      6  C   UNL     1       3.719   3.642  17.471  0.00  0.00    +0.000 A 
ATOM      7  C   UNL     1       2.436   3.091  17.494  0.00  0.00    +0.000 A 
ATOM      8  C   UNL     1       1.754   3.008  18.705  0.00  0.00    +0.000 A 
ATOM      9  C   UNL     1       2.326   3.475  19.886  0.00  0.00    +0.000 A 
ATOM     10  C   UNL     1       3.608   4.021  19.865  0.00  0.00    +0.000 A 
ATOM     11  C   UNL     1       4.302   4.095  18.654  0.00  0.00    +0.000 A 
ENDROOT
BRANCH   4  12
ATOM     12  C   UNL     1       6.218   4.310  14.845  0.00  0.00    +0.000 A 
ATOM     13  C   UNL     1       5.674   3.548  13.799  0.00  0.00    +0.000 A 
ATOM     14  C   UNL     1       6.205   3.617  12.505  0.00  0.00    +0.000 A 
ATOM     15  C   UNL     1       7.291   4.449  12.237  0.00  0.00    +0.000 A 
ATOM     16  C   UNL     1       7.831   5.209  13.266  0.00  0.00    +0.000 A 
ATOM     17  C   UNL     1       7.304   5.150  14.554  0.00  0.00    +0.000 A 
BRANCH  16  18
ATOM     18  O   UNL     1       8.890   6.042  13.058  0.00  0.00    +0.000 OA
ATOM     19  H   UNL     1       8.869   6.350  12.137  0.00  0.00    +0.000 HD
ENDBRANCH  16  18
ENDBRANCH   4  12
BRANCH   8  20
ATOM     20  O   UNL     1       0.505   2.468  18.782  0.00  0.00    +0.000 OA
ATOM     21  H   UNL     1       0.281   2.061  17.929  0.00  0.00    +0.000 HD
ENDBRANCH   8  20
TORSDOF 3
ENDMDL
MODEL 2
REMARK VINA RESULT:      -7.8      4.989      6.530
REMARK  Name = 
REMARK  3 active torsions:
REMARK  status: ('A' for Active; 'I' for Inactive)
REMARK    1  A    between atoms: C_4  and  C_5
REMARK    2  A    between atoms: C_9  and  O_10
REMARK    3  A    between atoms: C_15  and  O_16
REMARK                            x       y       z     vdW  Elec       q    Type
REMARK                         _______ _______ _______ _____ _____    ______ ____
ROOT
ATOM      1  O   UNL     1       1.745  10.145  17.442  0.00  0.00    +0.000 OA
ATOM      2  C   UNL     1       1.793   9.246  18.272  0.00  0.00    +0.000 A 
ATOM      3  C   UNL     1       2.327   7.921  17.925  0.00  0.00    +0.000 A 
ATOM      4  C   UNL     1       2.348   6.951  18.852  0.00  0.00    +0.000 A 
ATOM      5  O   UNL     1       1.929   7.125  20.164  0.00  0.00    +0.000 OA
ATOM      6  C   UNL     1       1.432   8.351  20.536  0.00  0.00    +0.000 A 
ATOM      7  C   UNL     1       1.021   8.498  21.862  0.00  0.00    +0.000 A 
ATOM      8  C   UNL     1       0.504   9.722  22.281  0.00  0.00    +0.000 A 
ATOM      9  C   UNL     1       0.382  10.792  21.396  0.00  0.00    +0.000 A 
ATOM     10  C   UNL     1       0.795  10.646  20.073  0.00  0.00    +0.000 A 
ATOM     11  C   UNL     1       1.327   9.423  19.652  0.00  0.00    +0.000 A 
ENDROOT
BRANCH   4  12
ATOM     12  C   UNL     1       2.839   5.589  18.541  0.00  0.00    +0.000 A 
ATOM     13  C   UNL     1       2.040   4.690  17.815  0.00  0.00    +0.000 A 
ATOM     14  C   UNL     1       2.505   3.410  17.494  0.00  0.00    +0.000 A 
ATOM     15  C   UNL     1       3.778   3.006  17.892  0.00  0.00    +0.000 A 
ATOM     16  C   UNL     1       4.575   3.891  18.605  0.00  0.00    +0.000 A 
ATOM     17  C   UNL     1       4.122   5.169  18.924  0.00  0.00    +0.000 A 
BRANCH  16  18
ATOM     18  O   UNL     1       5.830   3.550  19.016  0.00  0.00    +0.000 OA
ATOM     19  H   UNL     1       6.404   4.331  18.952  0.00  0.00    +0.000 HD
ENDBRANCH  16  18
ENDBRANCH   4  12
BRANCH   8  20
ATOM     20  O   UNL     1       0.101   9.921  23.567  0.00  0.00    +0.000 OA
ATOM     21  H   UNL     1       0.483  10.751  23.897  0.00  0.00    +0.000 HD
ENDBRANCH   8  20
TORSDOF 3
ENDMDL
MODEL 3
REMARK VINA RESULT:      -7.7      5.162      7.285
REMARK  Name = 
REMARK  3 active torsions:
REMARK  status: ('A' for Active; 'I' for Inactive)
REMARK    1  A    between atoms: C_4  and  C_5
REMARK    2  A    between atoms: C_9  and  O_10
REMARK    3  A    between atoms: C_15  and  O_16
REMARK                            x       y       z     vdW  Elec       q    Type
REMARK                         _______ _______ _______ _____ _____    ______ ____
ROOT
ATOM      1  O   UNL     1       1.924   9.440  17.468  0.00  0.00    +0.000 OA
ATOM      2  C   UNL     1       1.824   8.819  18.519  0.00  0.00    +0.000 A 
ATOM      3  C   UNL     1       2.337   7.447  18.639  0.00  0.00    +0.000 A 
ATOM      4  C   UNL     1       2.195   6.785  19.798  0.00  0.00    +0.000 A 
ATOM      5  O   UNL     1       1.620   7.334  20.937  0.00  0.00    +0.000 OA
ATOM      6  C   UNL     1       1.137   8.618  20.873  0.00  0.00    +0.000 A 
ATOM      7  C   UNL     1       0.567   9.145  22.034  0.00  0.00    +0.000 A 
ATOM      8  C   UNL     1       0.057  10.442  22.011  0.00  0.00    +0.000 A 
ATOM      9  C   UNL     1       0.099  11.211  20.851  0.00  0.00    +0.000 A 
ATOM     10  C   UNL     1       0.670  10.686  19.693  0.00  0.00    +0.000 A 
ATOM     11  C   UNL     1       1.194   9.390  19.714  0.00  0.00    +0.000 A 
ENDROOT
BRANCH   4  12
ATOM     12  C   UNL     1       2.659   5.387  19.958  0.00  0.00    +0.000 A 
ATOM     13  C   UNL     1       1.877   4.451  20.653  0.00  0.00    +0.000 A 
ATOM     14  C   UNL     1       2.294   3.121  20.787  0.00  0.00    +0.000 A 
ATOM     15  C   UNL     1       3.501   2.706  20.227  0.00  0.00    +0.000 A 
ATOM     16  C   UNL     1       4.277   3.626  19.535  0.00  0.00    +0.000 A 
ATOM     17  C   UNL     1       3.866   4.949  19.392  0.00  0.00    +0.000 A 
BRANCH  16  18
ATOM     18  O   UNL     1       5.464   3.272  18.964  0.00  0.00    +0.000 OA
ATOM     19  H   UNL     1       5.616   2.326  19.120  0.00  0.00    +0.000 HD
ENDBRANCH  16  18
ENDBRANCH   4  12
BRANCH   8  20
ATOM     20  O   UNL     1      -0.498  11.006  23.121  0.00  0.00    +0.000 OA
ATOM     21  H   UNL     1      -1.439  11.178  22.955  0.00  0.00    +0.000 HD
ENDBRANCH   8  20
TORSDOF 3
ENDMDL
MODEL 4
REMARK VINA RESULT:      -7.7      3.876      6.884
REMARK  Name = 
REMARK  3 active torsions:
REMARK  status: ('A' for Active; 'I' for Inactive)
REMARK    1  A    between atoms: C_4  and  C_5
REMARK    2  A    between atoms: C_9  and  O_10
REMARK    3  A    between atoms: C_15  and  O_16
REMARK                            x       y       z     vdW  Elec       q    Type
REMARK                         _______ _______ _______ _____ _____    ______ ____
ROOT
ATOM      1  O   UNL     1       2.740   2.957  17.864  0.00  0.00    +0.000 OA
ATOM      2  C   UNL     1       3.124   4.115  17.754  0.00  0.00    +0.000 A 
ATOM      3  C   UNL     1       2.413   5.216  18.418  0.00  0.00    +0.000 A 
ATOM      4  C   UNL     1       2.847   6.476  18.261  0.00  0.00    +0.000 A 
ATOM      5  O   UNL     1       3.976   6.820  17.530  0.00  0.00    +0.000 OA
ATOM      6  C   UNL     1       4.678   5.822  16.901  0.00  0.00    +0.000 A 
ATOM      7  C   UNL     1       5.811   6.196  16.175  0.00  0.00    +0.000 A 
ATOM      8  C   UNL     1       6.549   5.216  15.514  0.00  0.00    +0.000 A 
ATOM      9  C   UNL     1       6.168   3.877  15.559  0.00  0.00    +0.000 A 
ATOM     10  C   UNL     1       5.039   3.503  16.285  0.00  0.00    +0.000 A 
ATOM     11  C   UNL     1       4.303   4.481  16.960  0.00  0.00    +0.000 A 
ENDROOT
BRANCH   4  12
ATOM     12  C   UNL     1       2.142   7.624  18.877  0.00  0.00    +0.000 A 
ATOM     13  C   UNL     1       1.818   7.613  20.243  0.00  0.00    +0.000 A 
ATOM     14  C   UNL     1       1.175   8.703  20.841  0.00  0.00    +0.000 A 
ATOM     15  C   UNL     1       0.846   9.825  20.080  0.00  0.00    +0.000 A 
ATOM     16  C   UNL     1       1.168   9.844  18.730  0.00  0.00    +0.000 A 
ATOM     17  C   UNL     1       1.812   8.765  18.130  0.00  0.00    +0.000 A 
BRANCH  16  18
ATOM     18  O   UNL     1       0.872  10.917  17.941  0.00  0.00    +0.000 OA
ATOM     19  H   UNL     1       1.692  11.241  17.534  0.00  0.00    +0.000 HD
ENDBRANCH  16  18
ENDBRANCH   4  12
BRANCH   8  20
ATOM     20  O   UNL     1       7.669   5.528  14.804  0.00  0.00    +0.000 OA
ATOM     21  H   UNL     1       7.578   6.426  14.444  0.00  0.00    +0.000 HD
ENDBRANCH   8  20
TORSDOF 3
ENDMDL
MODEL 5
REMARK VINA RESULT:      -7.6      1.649      6.508
REMARK  Name = 
REMARK  3 active torsions:
REMARK  status: ('A' for Active; 'I' for Inactive)
REMARK    1  A    between atoms: C_4  and  C_5
REMARK    2  A    between atoms: C_9  and  O_10
REMARK    3  A    between atoms: C_15  and  O_16
REMARK                            x       y       z     vdW  Elec       q    Type
REMARK                         _______ _______ _______ _____ _____    ______ ____
ROOT
ATOM      1  O   UNL     1       6.743   7.294  17.075  0.00  0.00    +0.000 OA
ATOM      2  C   UNL     1       5.993   6.345  16.887  0.00  0.00    +0.000 A 
ATOM      3  C   UNL     1       4.904   6.042  17.826  0.00  0.00    +0.000 A 
ATOM      4  C   UNL     1       4.110   4.984  17.603  0.00  0.00    +0.000 A 
ATOM      5  O   UNL     1       4.220   4.154  16.495  0.00  0.00    +0.000 OA
ATOM      6  C   UNL     1       5.217   4.406  15.584  0.00  0.00    +0.000 A 
ATOM      7  C   UNL     1       5.302   3.558  14.478  0.00  0.00    +0.000 A 
ATOM      8  C   UNL     1       6.304   3.772  13.534  0.00  0.00    +0.000 A 
ATOM      9  C   UNL     1       7.222   4.809  13.682  0.00  0.00    +0.000 A 
ATOM     10  C   UNL     1       7.136   5.657  14.784  0.00  0.00    +0.000 A 
ATOM     11  C   UNL     1       6.125   5.454  15.728  0.00  0.00    +0.000 A 
ENDROOT
BRANCH   4  12
ATOM     12  C   UNL     1       3.024   4.614  18.540  0.00  0.00    +0.000 A 
ATOM     13  C   UNL     1       2.850   5.316  19.744  0.00  0.00    +0.000 A 
ATOM     14  C   UNL     1       1.812   4.992  20.624  0.00  0.00    +0.000 A 
ATOM     15  C   UNL     1       0.929   3.958  20.315  0.00  0.00    +0.000 A 
ATOM     16  C   UNL     1       1.092   3.263  19.125  0.00  0.00    +0.000 A 
ATOM     17  C   UNL     1       2.119   3.584  18.241  0.00  0.00    +0.000 A 
BRANCH  16  18
ATOM     18  O   UNL     1       0.255   2.246  18.771  0.00  0.00    +0.000 OA
ATOM     19  H   UNL     1      -0.212   2.494  17.956  0.00  0.00    +0.000 HD
ENDBRANCH  16  18
ENDBRANCH   4  12
BRANCH   8  20
ATOM     20  O   UNL     1       6.421   2.981  12.431  0.00  0.00    +0.000 OA
ATOM     21  H   UNL     1       7.264   3.173  11.988  0.00  0.00    +0.000 HD
ENDBRANCH   8  20
TORSDOF 3
ENDMDL
MODEL 6
REMARK VINA RESULT:      -7.6      3.794      7.015
REMARK  Name = 
REMARK  3 active torsions:
REMARK  status: ('A' for Active; 'I' for Inactive)
REMARK    1  A    between atoms: C_4  and  C_5
REMARK    2  A    between atoms: C_9  and  O_10
REMARK    3  A    between atoms: C_15  and  O_16
REMARK                            x       y       z     vdW  Elec       q    Type
REMARK                         _______ _______ _______ _____ _____    ______ ____
ROOT
ATOM      1  O   UNL     1       2.705   3.023  17.789  0.00  0.00    +0.000 OA
ATOM      2  C   UNL     1       3.112   4.172  17.673  0.00  0.00    +0.000 A 
ATOM      3  C   UNL     1       2.413   5.292  18.318  0.00  0.00    +0.000 A 
ATOM      4  C   UNL     1       2.872   6.543  18.156  0.00  0.00    +0.000 A 
ATOM      5  O   UNL     1       4.017   6.859  17.437  0.00  0.00    +0.000 OA
ATOM      6  C   UNL     1       4.709   5.842  16.825  0.00  0.00    +0.000 A 
ATOM      7  C   UNL     1       5.858   6.189  16.111  0.00  0.00    +0.000 A 
ATOM      8  C   UNL     1       6.585   5.190  15.469  0.00  0.00    +0.000 A 
ATOM      9  C   UNL     1       6.179   3.858  15.520  0.00  0.00    +0.000 A 
ATOM     10  C   UNL     1       5.034   3.511  16.235  0.00  0.00    +0.000 A 
ATOM     11  C   UNL     1       4.308   4.509  16.892  0.00  0.00    +0.000 A 
ENDROOT
BRANCH   4  12
ATOM     12  C   UNL     1       2.181   7.709  18.753  0.00  0.00    +0.000 A 
ATOM     13  C   UNL     1       1.801   8.799  17.953  0.00  0.00    +0.000 A 
ATOM     14  C   UNL     1       1.124   9.894  18.503  0.00  0.00    +0.000 A 
ATOM     15  C   UNL     1       0.816   9.917  19.862  0.00  0.00    +0.000 A 
ATOM     16  C   UNL     1       1.184   8.840  20.657  0.00  0.00    +0.000 A 
ATOM     17  C   UNL     1       1.853   7.745  20.117  0.00  0.00    +0.000 A 
BRANCH  16  18
ATOM     18  O   UNL     1       0.904   8.809  21.991  0.00  0.00    +0.000 OA
ATOM     19  H   UNL     1       0.911   7.886  22.291  0.00  0.00    +0.000 HD
ENDBRANCH  16  18
ENDBRANCH   4  12
BRANCH   8  20
ATOM     20  O   UNL     1       7.720   5.475  14.770  0.00  0.00    +0.000 OA
ATOM     21  H   UNL     1       8.181   4.647  14.559  0.00  0.00    +0.000 HD
ENDBRANCH   8  20
TORSDOF 3
ENDMDL
MODEL 7
REMARK VINA RESULT:      -7.6      1.253      1.253
REMARK  Name = 
REMARK  3 active torsions:
REMARK  status: ('A' for Active; 'I' for Inactive)
REMARK    1  A    between atoms: C_4  and  C_5
REMARK    2  A    between atoms: C_9  and  O_10
REMARK    3  A    between atoms: C_15  and  O_16
REMARK                            x       y       z     vdW  Elec       q    Type
REMARK                         _______ _______ _______ _____ _____    ______ ____
ROOT
ATOM      1  O   UNL     1       4.014   7.063  18.188  0.00  0.00    +0.000 OA
ATOM      2  C   UNL     1       4.103   6.012  17.565  0.00  0.00    +0.000 A 
ATOM      3  C   UNL     1       4.994   5.894  16.402  0.00  0.00    +0.000 A 
ATOM      4  C   UNL     1       5.054   4.735  15.727  0.00  0.00    +0.000 A 
ATOM      5  O   UNL     1       4.347   3.595  16.084  0.00  0.00    +0.000 OA
ATOM      6  C   UNL     1       3.509   3.656  17.171  0.00  0.00    +0.000 A 
ATOM      7  C   UNL     1       2.813   2.494  17.509  0.00  0.00    +0.000 A 
ATOM      8  C   UNL     1       1.947   2.514  18.600  0.00  0.00    +0.000 A 
ATOM      9  C   UNL     1       1.759   3.674  19.348  0.00  0.00    +0.000 A 
ATOM     10  C   UNL     1       2.457   4.833  19.013  0.00  0.00    +0.000 A 
ATOM     11  C   UNL     1       3.336   4.815  17.927  0.00  0.00    +0.000 A 
ENDROOT
BRANCH   4  12
ATOM     12  C   UNL     1       5.906   4.578  14.526  0.00  0.00    +0.000 A 
ATOM     13  C   UNL     1       5.545   3.681  13.508  0.00  0.00    +0.000 A 
ATOM     14  C   UNL     1       6.329   3.544  12.356  0.00  0.00    +0.000 A 
ATOM     15  C   UNL     1       7.489   4.302  12.205  0.00  0.00    +0.000 A 
ATOM     16  C   UNL     1       7.849   5.194  13.205  0.00  0.00    +0.000 A 
ATOM     17  C   UNL     1       7.071   5.340  14.351  0.00  0.00    +0.000 A 
BRANCH  16  18
ATOM     18  O   UNL     1       8.971   5.964  13.106  0.00  0.00    +0.000 OA
ATOM     19  H   UNL     1       9.257   5.981  12.178  0.00  0.00    +0.000 HD
ENDBRANCH  16  18
ENDBRANCH   4  12
BRANCH   8  20
ATOM     20  O   UNL     1       1.254   1.403  18.978  0.00  0.00    +0.000 OA
ATOM     21  H   UNL     1       0.423   1.674  19.400  0.00  0.00    +0.000 HD
ENDBRANCH   8  20
TORSDOF 3
ENDMDL
MODEL 8
REMARK VINA RESULT:      -7.5      5.201      7.586
REMARK  Name = 
REMARK  3 active torsions:
REMARK  status: ('A' for Active; 'I' for Inactive)
REMARK    1  A    between atoms: C_4  and  C_5
REMARK    2  A    between atoms: C_9  and  O_10
REMARK    3  A    between atoms: C_15  and  O_16
REMARK                            x       y       z     vdW  Elec       q    Type
REMARK                         _______ _______ _______ _____ _____    ______ ____
ROOT
ATOM      1  O   UNL     1       1.947   9.459  17.445  0.00  0.00    +0.000 OA
ATOM      2  C   UNL     1       1.834   8.823  18.485  0.00  0.00    +0.000 A 
ATOM      3  C   UNL     1       2.325   7.441  18.586  0.00  0.00    +0.000 A 
ATOM      4  C   UNL     1       2.169   6.764  19.734  0.00  0.00    +0.000 A 
ATOM      5  O   UNL     1       1.598   7.303  20.879  0.00  0.00    +0.000 OA
ATOM      6  C   UNL     1       1.135   8.595  20.834  0.00  0.00    +0.000 A 
ATOM      7  C   UNL     1       0.569   9.113  22.001  0.00  0.00    +0.000 A 
ATOM      8  C   UNL     1       0.079  10.417  21.997  0.00  0.00    +0.000 A 
ATOM      9  C   UNL     1       0.137  11.204  20.849  0.00  0.00    +0.000 A 
ATOM     10  C   UNL     1       0.704  10.689  19.686  0.00  0.00    +0.000 A 
ATOM     11  C   UNL     1       1.208   9.385  19.688  0.00  0.00    +0.000 A 
ENDROOT
BRANCH   4  12
ATOM     12  C   UNL     1       2.611   5.357  19.873  0.00  0.00    +0.000 A 
ATOM     13  C   UNL     1       3.543   4.809  18.977  0.00  0.00    +0.000 A 
ATOM     14  C   UNL     1       3.986   3.489  19.116  0.00  0.00    +0.000 A 
ATOM     15  C   UNL     1       3.504   2.693  20.154  0.00  0.00    +0.000 A 
ATOM     16  C   UNL     1       2.586   3.230  21.047  0.00  0.00    +0.000 A 
ATOM     17  C   UNL     1       2.145   4.545  20.919  0.00  0.00    +0.000 A 
BRANCH  16  18
ATOM     18  O   UNL     1       2.086   2.498  22.083  0.00  0.00    +0.000 OA
ATOM     19  H   UNL     1       1.999   1.573  21.799  0.00  0.00    +0.000 HD
ENDBRANCH  16  18
ENDBRANCH   4  12
BRANCH   8  20
ATOM     20  O   UNL     1      -0.471  10.973  23.114  0.00  0.00    +0.000 OA
ATOM     21  H   UNL     1      -1.365  11.288  22.906  0.00  0.00    +0.000 HD
ENDBRANCH   8  20
TORSDOF 3
ENDMDL
MODEL 9
REMARK VINA RESULT:      -7.5      1.554      6.444
REMARK  Name = 
REMARK  3 active torsions:
REMARK  status: ('A' for Active; 'I' for Inactive)
REMARK    1  A    between atoms: C_4  and  C_5
REMARK    2  A    between atoms: C_9  and  O_10
REMARK    3  A    between atoms: C_15  and  O_16
REMARK                            x       y       z     vdW  Elec       q    Type
REMARK                         _______ _______ _______ _____ _____    ______ ____
ROOT
ATOM      1  O   UNL     1       7.348   5.927  18.192  0.00  0.00    +0.000 OA
ATOM      2  C   UNL     1       6.420   5.283  17.720  0.00  0.00    +0.000 A 
ATOM      3  C   UNL     1       5.266   4.899  18.545  0.00  0.00    +0.000 A 
ATOM      4  C   UNL     1       4.273   4.176  18.003  0.00  0.00    +0.000 A 
ATOM      5  O   UNL     1       4.238   3.789  16.670  0.00  0.00    +0.000 OA
ATOM      6  C   UNL     1       5.291   4.134  15.859  0.00  0.00    +0.000 A 
ATOM      7  C   UNL     1       5.227   3.734  14.522  0.00  0.00    +0.000 A 
ATOM      8  C   UNL     1       6.278   4.057  13.666  0.00  0.00    +0.000 A 
ATOM      9  C   UNL     1       7.389   4.760  14.124  0.00  0.00    +0.000 A 
ATOM     10  C   UNL     1       7.452   5.162  15.457  0.00  0.00    +0.000 A 
ATOM     11  C   UNL     1       6.394   4.852  16.317  0.00  0.00    +0.000 A 
ENDROOT
BRANCH   4  12
ATOM     12  C   UNL     1       3.108   3.731  18.802  0.00  0.00    +0.000 A 
ATOM     13  C   UNL     1       1.927   3.313  18.170  0.00  0.00    +0.000 A 
ATOM     14  C   UNL     1       0.829   2.866  18.915  0.00  0.00    +0.000 A 
ATOM     15  C   UNL     1       0.896   2.830  20.307  0.00  0.00    +0.000 A 
ATOM     16  C   UNL     1       2.064   3.237  20.938  0.00  0.00    +0.000 A 
ATOM     17  C   UNL     1       3.161   3.678  20.203  0.00  0.00    +0.000 A 
BRANCH  16  18
ATOM     18  O   UNL     1       2.185   3.218  22.297  0.00  0.00    +0.000 OA
ATOM     19  H   UNL     1       1.959   2.330  22.618  0.00  0.00    +0.000 HD
ENDBRANCH  16  18
ENDBRANCH   4  12
BRANCH   8  20
ATOM     20  O   UNL     1       6.257   3.701  12.351  0.00  0.00    +0.000 OA
ATOM     21  H   UNL     1       5.795   4.386  11.841  0.00  0.00    +0.000 HD
ENDBRANCH   8  20
TORSDOF 3
ENDMDL
