MODEL 1
REMARK VINA RESULT:      -7.8      0.000      0.000
REMARK  Name = 
REMARK  5 active torsions:
REMARK  status: ('A' for Active; 'I' for Inactive)
REMARK    1  A    between atoms: C_1  and  C_2
REMARK    2  A    between atoms: C_4  and  C_5
REMARK    3  A    between atoms: C_9  and  N_10
REMARK    4  A    between atoms: N_10  and  C_11
REMARK    5  A    between atoms: C_11  and  C_12
REMARK                            x       y       z     vdW  Elec       q    Type
REMARK                         _______ _______ _______ _____ _____    ______ ____
ROOT
ATOM      1  C   UNL     1      -2.814   9.632  15.766  0.00  0.00    +0.000 C 
ATOM      2  C   UNL     1      -2.381  10.201  17.086  0.00  0.00    +0.000 A 
ATOM      3  C   UNL     1      -3.197  11.104  17.770  0.00  0.00    +0.000 A 
ATOM      4  C   UNL     1      -2.781  11.659  18.984  0.00  0.00    +0.000 A 
ATOM      5  C   UNL     1      -3.689  12.595  19.731  0.00  0.00    +0.000 C 
ATOM      6  C   UNL     1      -1.504  11.337  19.478  0.00  0.00    +0.000 A 
ATOM      7  C   UNL     1      -0.636  10.456  18.806  0.00  0.00    +0.000 A 
ATOM      8  C   UNL     1      -1.121   9.873  17.617  0.00  0.00    +0.000 A 
ATOM      9  C   UNL     1       0.776  10.172  19.351  0.00  0.00    +0.000 C 
ATOM     10  C   UNL     1       1.592  11.490  19.450  0.00  0.00    +0.000 C 
ATOM     11  C   UNL     1       1.199  12.408  20.609  0.00  0.00    +0.000 C 
ATOM     12  C   UNL     1      -0.209  12.946  20.486  0.00  0.00    +0.000 C 
ATOM     13  O   UNL     1      -1.142  11.883  20.683  0.00  0.00    +0.000 OA
ENDROOT
BRANCH   9  14
ATOM     14  N   UNL     1       1.485   9.180  18.502  0.00  0.00    +0.000 NA
ATOM     15  H   UNL     1       0.835   8.902  17.762  0.00  0.00    +0.000 HD
BRANCH  14  16
ATOM     16  C   UNL     1       1.867   7.946  19.194  0.00  0.00    +0.000 C 
BRANCH  16  17
ATOM     17  C   UNL     1       2.838   7.154  18.388  0.00  0.00    +0.000 A 
ATOM     18  N   UNL     1       3.783   7.648  17.614  0.00  0.00    +0.000 NA
ATOM     19  N   UNL     1       4.389   6.611  16.959  0.00  0.00    +0.000 NA
ATOM     20  C   UNL     1       3.821   5.488  17.349  0.00  0.00    +0.000 A 
ATOM     21  N   UNL     1       2.846   5.779  18.274  0.00  0.00    +0.000 N 
ATOM     22  C   UNL     1       2.004   4.845  18.989  0.00  0.00    +0.000 C 
ATOM     23  C   UNL     1       1.452   3.728  18.109  0.00  0.00    +0.000 C 
ATOM     24  C   UNL     1       2.437   2.583  17.872  0.00  0.00    +0.000 C 
ATOM     25  C   UNL     1       3.908   2.983  17.770  0.00  0.00    +0.000 C 
ATOM     26  C   UNL     1       4.162   4.140  16.814  0.00  0.00    +0.000 C 
ENDBRANCH  16  17
ENDBRANCH  14  16
ENDBRANCH   9  14
TORSDOF 3
ENDMDL
MODEL 2
REMARK VINA RESULT:      -7.8      1.121      1.998
REMARK  Name = 
REMARK  5 active torsions:
REMARK  status: ('A' for Active; 'I' for Inactive)
REMARK    1  A    between atoms: C_1  and  C_2
REMARK    2  A    between atoms: C_4  and  C_5
REMARK    3  A    between atoms: C_9  and  N_10
REMARK    4  A    between atoms: N_10  and  C_11
REMARK    5  A    between atoms: C_11  and  C_12
REMARK                            x       y       z     vdW  Elec       q    Type
REMARK                         _______ _______ _______ _____ _____    ______ ____
ROOT
ATOM      1  C   UNL     1      -3.149  10.041  15.298  0.00  0.00    +0.000 C 
ATOM      2  C   UNL     1      -2.647  10.400  16.667  0.00  0.00    +0.000 A 
ATOM      3  C   UNL     1      -3.381  11.259  17.487  0.00  0.00    +0.000 A 
ATOM      4  C   UNL     1      -2.900  11.620  18.749  0.00  0.00    +0.000 A 
ATOM      5  C   UNL     1      -3.721  12.509  19.639  0.00  0.00    +0.000 C 
ATOM      6  C   UNL     1      -1.638  11.150  19.157  0.00  0.00    +0.000 A 
ATOM      7  C   UNL     1      -0.850  10.308  18.349  0.00  0.00    +0.000 A 
ATOM      8  C   UNL     1      -1.403   9.921  17.110  0.00  0.00    +0.000 A 
ATOM      9  C   UNL     1       0.549   9.859  18.808  0.00  0.00    +0.000 C 
ATOM     10  C   UNL     1       1.459  11.093  19.052  0.00  0.00    +0.000 C 
ATOM     11  C   UNL     1       1.159  11.876  20.331  0.00  0.00    +0.000 C 
ATOM     12  C   UNL     1      -0.210  12.520  20.323  0.00  0.00    +0.000 C 
ATOM     13  O   UNL     1      -1.211  11.506  20.410  0.00  0.00    +0.000 OA
ENDROOT
BRANCH   9  14
ATOM     14  N   UNL     1       1.166   8.942  17.816  0.00  0.00    +0.000 NA
ATOM     15  H   UNL     1       0.687   8.042  17.904  0.00  0.00    +0.000 HD
BRANCH  14  16
ATOM     16  C   UNL     1       2.589   8.669  18.038  0.00  0.00    +0.000 C 
BRANCH  16  17
ATOM     17  C   UNL     1       2.826   7.222  18.305  0.00  0.00    +0.000 A 
ATOM     18  N   UNL     1       2.225   6.498  19.226  0.00  0.00    +0.000 NA
ATOM     19  N   UNL     1       2.790   5.253  19.232  0.00  0.00    +0.000 NA
ATOM     20  C   UNL     1       3.723   5.218  18.304  0.00  0.00    +0.000 A 
ATOM     21  N   UNL     1       3.768   6.438  17.670  0.00  0.00    +0.000 N 
ATOM     22  C   UNL     1       4.617   6.826  16.565  0.00  0.00    +0.000 C 
ATOM     23  C   UNL     1       6.061   6.359  16.715  0.00  0.00    +0.000 C 
ATOM     24  C   UNL     1       6.285   4.902  16.313  0.00  0.00    +0.000 C 
ATOM     25  C   UNL     1       5.134   3.944  16.616  0.00  0.00    +0.000 C 
ATOM     26  C   UNL     1       4.611   4.051  18.042  0.00  0.00    +0.000 C 
ENDBRANCH  16  17
ENDBRANCH  14  16
ENDBRANCH   9  14
TORSDOF 3
ENDMDL
MODEL 3
REMARK VINA RESULT:      -7.7      1.055      1.141
REMARK  Name = 
REMARK  5 active torsions:
REMARK  status: ('A' for Active; 'I' for Inactive)
REMARK    1  A    between atoms: C_1  and  C_2
REMARK    2  A    between atoms: C_4  and  C_5
REMARK    3  A    between atoms: C_9  and  N_10
REMARK    4  A    between atoms: N_10  and  C_11
REMARK    5  A    between atoms: C_11  and  C_12
REMARK                            x       y       z     vdW  Elec       q    Type
REMARK                         _______ _______ _______ _____ _____    ______ ____
ROOT
ATOM      1  C   UNL     1      -2.645   9.787  15.626  0.00  0.00    +0.000 C 
ATOM      2  C   UNL     1      -2.465  10.337  17.011  0.00  0.00    +0.000 A 
ATOM      3  C   UNL     1      -3.401  11.222  17.549  0.00  0.00    +0.000 A 
ATOM      4  C   UNL     1      -3.217  11.760  18.826  0.00  0.00    +0.000 A 
ATOM      5  C   UNL     1      -4.256  12.675  19.410  0.00  0.00    +0.000 C 
ATOM      6  C   UNL     1      -2.047  11.440  19.538  0.00  0.00    +0.000 A 
ATOM      7  C   UNL     1      -1.062  10.577  19.022  0.00  0.00    +0.000 A 
ATOM      8  C   UNL     1      -1.318  10.010  17.755  0.00  0.00    +0.000 A 
ATOM      9  C   UNL     1       0.231  10.295  19.809  0.00  0.00    +0.000 C 
ATOM     10  C   UNL     1       1.001  11.617  20.074  0.00  0.00    +0.000 C 
ATOM     11  C   UNL     1       0.394  12.513  21.156  0.00  0.00    +0.000 C 
ATOM     12  C   UNL     1      -0.974  13.041  20.788  0.00  0.00    +0.000 C 
ATOM     13  O   UNL     1      -1.915  11.968  20.797  0.00  0.00    +0.000 OA
ENDROOT
BRANCH   9  14
ATOM     14  N   UNL     1       1.092   9.323  19.088  0.00  0.00    +0.000 NA
ATOM     15  H   UNL     1       0.479   8.778  18.477  0.00  0.00    +0.000 HD
BRANCH  14  16
ATOM     16  C   UNL     1       1.775   8.354  19.950  0.00  0.00    +0.000 C 
BRANCH  16  17
ATOM     17  C   UNL     1       2.416   7.276  19.146  0.00  0.00    +0.000 A 
ATOM     18  N   UNL     1       3.071   7.440  18.015  0.00  0.00    +0.000 NA
ATOM     19  N   UNL     1       3.410   6.207  17.531  0.00  0.00    +0.000 NA
ATOM     20  C   UNL     1       2.973   5.296  18.376  0.00  0.00    +0.000 A 
ATOM     21  N   UNL     1       2.355   5.927  19.432  0.00  0.00    +0.000 N 
ATOM     22  C   UNL     1       1.769   5.313  20.603  0.00  0.00    +0.000 C 
ATOM     23  C   UNL     1       0.938   4.074  20.287  0.00  0.00    +0.000 C 
ATOM     24  C   UNL     1       1.767   2.804  20.097  0.00  0.00    +0.000 C 
ATOM     25  C   UNL     1       3.135   2.995  19.445  0.00  0.00    +0.000 C 
ATOM     26  C   UNL     1       3.092   3.826  18.169  0.00  0.00    +0.000 C 
ENDBRANCH  16  17
ENDBRANCH  14  16
ENDBRANCH   9  14
TORSDOF 3
ENDMDL
MODEL 4
REMARK VINA RESULT:      -7.7      2.774      8.351
REMARK  Name = 
REMARK  5 active torsions:
REMARK  status: ('A' for Active; 'I' for Inactive)
REMARK    1  A    between atoms: C_1  and  C_2
REMARK    2  A    between atoms: C_4  and  C_5
REMARK    3  A    between atoms: C_9  and  N_10
REMARK    4  A    between atoms: N_10  and  C_11
REMARK    5  A    between atoms: C_11  and  C_12
REMARK                            x       y       z     vdW  Elec       q    Type
REMARK                         _______ _______ _______ _____ _____    ______ ____
ROOT
ATOM      1  C   UNL     1       5.165   5.893  15.902  0.00  0.00    +0.000 C 
ATOM      2  C   UNL     1       4.589   5.035  16.991  0.00  0.00    +0.000 A 
ATOM      3  C   UNL     1       4.586   3.644  16.869  0.00  0.00    +0.000 A 
ATOM      4  C   UNL     1       4.021   2.845  17.867  0.00  0.00    +0.000 A 
ATOM      5  C   UNL     1       4.066   1.348  17.744  0.00  0.00    +0.000 C 
ATOM      6  C   UNL     1       3.406   3.465  18.969  0.00  0.00    +0.000 A 
ATOM      7  C   UNL     1       3.358   4.864  19.117  0.00  0.00    +0.000 A 
ATOM      8  C   UNL     1       3.993   5.629  18.116  0.00  0.00    +0.000 A 
ATOM      9  C   UNL     1       2.626   5.506  20.310  0.00  0.00    +0.000 C 
ATOM     10  C   UNL     1       1.132   5.082  20.320  0.00  0.00    +0.000 C 
ATOM     11  C   UNL     1       0.870   3.646  20.777  0.00  0.00    +0.000 C 
ATOM     12  C   UNL     1       1.460   2.612  19.845  0.00  0.00    +0.000 C 
ATOM     13  O   UNL     1       2.884   2.647  19.939  0.00  0.00    +0.000 OA
ENDROOT
BRANCH   9  14
ATOM     14  N   UNL     1       2.750   6.986  20.277  0.00  0.00    +0.000 NA
ATOM     15  H   UNL     1       2.902   7.294  21.242  0.00  0.00    +0.000 HD
BRANCH  14  16
ATOM     16  C   UNL     1       1.553   7.689  19.809  0.00  0.00    +0.000 C 
BRANCH  16  17
ATOM     17  C   UNL     1       1.163   8.775  20.751  0.00  0.00    +0.000 A 
ATOM     18  N   UNL     1       1.378   8.786  22.051  0.00  0.00    +0.000 NA
ATOM     19  N   UNL     1       0.778   9.895  22.579  0.00  0.00    +0.000 NA
ATOM     20  C   UNL     1       0.211  10.565  21.596  0.00  0.00    +0.000 A 
ATOM     21  N   UNL     1       0.448   9.906  20.412  0.00  0.00    +0.000 N 
ATOM     22  C   UNL     1       0.043  10.311  19.084  0.00  0.00    +0.000 C 
ATOM     23  C   UNL     1      -1.390  10.828  19.016  0.00  0.00    +0.000 C 
ATOM     24  C   UNL     1      -1.544  12.284  19.453  0.00  0.00    +0.000 C 
ATOM     25  C   UNL     1      -0.616  12.742  20.578  0.00  0.00    +0.000 C 
ATOM     26  C   UNL     1      -0.599  11.803  21.776  0.00  0.00    +0.000 C 
ENDBRANCH  16  17
ENDBRANCH  14  16
ENDBRANCH   9  14
TORSDOF 3
ENDMDL
MODEL 5
REMARK VINA RESULT:      -7.7      1.222      1.969
REMARK  Name = 
REMARK  5 active torsions:
REMARK  status: ('A' for Active; 'I' for Inactive)
REMARK    1  A    between atoms: C_1  and  C_2
REMARK    2  A    between atoms: C_4  and  C_5
REMARK    3  A    between atoms: C_9  and  N_10
REMARK    4  A    between atoms: N_10  and  C_11
REMARK    5  A    between atoms: C_11  and  C_12
REMARK                            x       y       z     vdW  Elec       q    Type
REMARK                         _______ _______ _______ _____ _____    ______ ____
ROOT
ATOM      1  C   UNL     1      -3.178   9.678  15.522  0.00  0.00    +0.000 C 
ATOM      2  C   UNL     1      -2.560  10.176  16.796  0.00  0.00    +0.000 A 
ATOM      3  C   UNL     1      -3.284  10.999  17.660  0.00  0.00    +0.000 A 
ATOM      4  C   UNL     1      -2.699  11.489  18.832  0.00  0.00    +0.000 A 
ATOM      5  C   UNL     1      -3.505  12.337  19.775  0.00  0.00    +0.000 C 
ATOM      6  C   UNL     1      -1.351  11.187  19.098  0.00  0.00    +0.000 A 
ATOM      7  C   UNL     1      -0.574  10.387  18.239  0.00  0.00    +0.000 A 
ATOM      8  C   UNL     1      -1.224   9.864  17.100  0.00  0.00    +0.000 A 
ATOM      9  C   UNL     1       0.913  10.124  18.537  0.00  0.00    +0.000 C 
ATOM     10  C   UNL     1       1.696  11.463  18.602  0.00  0.00    +0.000 C 
ATOM     11  C   UNL     1       1.464  12.287  19.870  0.00  0.00    +0.000 C 
ATOM     12  C   UNL     1       0.039  12.776  20.005  0.00  0.00    +0.000 C 
ATOM     13  O   UNL     1      -0.820  11.666  20.268  0.00  0.00    +0.000 OA
ENDROOT
BRANCH   9  14
ATOM     14  N   UNL     1       1.508   9.219  17.520  0.00  0.00    +0.000 NA
ATOM     15  H   UNL     1       0.775   8.563  17.240  0.00  0.00    +0.000 HD
BRANCH  14  16
ATOM     16  C   UNL     1       2.623   8.400  18.008  0.00  0.00    +0.000 C 
BRANCH  16  17
ATOM     17  C   UNL     1       2.188   7.504  19.116  0.00  0.00    +0.000 A 
ATOM     18  N   UNL     1       1.813   7.888  20.319  0.00  0.00    +0.000 NA
ATOM     19  N   UNL     1       1.598   6.773  21.080  0.00  0.00    +0.000 NA
ATOM     20  C   UNL     1       1.829   5.712  20.334  0.00  0.00    +0.000 A 
ATOM     21  N   UNL     1       2.184   6.125  19.070  0.00  0.00    +0.000 N 
ATOM     22  C   UNL     1       2.484   5.294  17.925  0.00  0.00    +0.000 C 
ATOM     23  C   UNL     1       3.370   4.097  18.258  0.00  0.00    +0.000 C 
ATOM     24  C   UNL     1       2.611   2.913  18.856  0.00  0.00    +0.000 C 
ATOM     25  C   UNL     1       1.430   3.268  19.759  0.00  0.00    +0.000 C 
ATOM     26  C   UNL     1       1.765   4.306  20.822  0.00  0.00    +0.000 C 
ENDBRANCH  16  17
ENDBRANCH  14  16
ENDBRANCH   9  14
TORSDOF 3
ENDMDL
MODEL 6
REMARK VINA RESULT:      -7.7      1.476      2.450
REMARK  Name = 
REMARK  5 active torsions:
REMARK  status: ('A' for Active; 'I' for Inactive)
REMARK    1  A    between atoms: C_1  and  C_2
REMARK    2  A    between atoms: C_4  and  C_5
REMARK    3  A    between atoms: C_9  and  N_10
REMARK    4  A    between atoms: N_10  and  C_11
REMARK    5  A    between atoms: C_11  and  C_12
REMARK                            x       y       z     vdW  Elec       q    Type
REMARK                         _______ _______ _______ _____ _____    ______ ____
ROOT
ATOM      1  C   UNL     1      -3.209  10.021  14.303  0.00  0.00    +0.000 C 
ATOM      2  C   UNL     1      -3.159  10.456  15.739  0.00  0.00    +0.000 A 
ATOM      3  C   UNL     1      -4.246  11.112  16.319  0.00  0.00    +0.000 A 
ATOM      4  C   UNL     1      -4.188  11.547  17.646  0.00  0.00    +0.000 A 
ATOM      5  C   UNL     1      -5.383  12.211  18.271  0.00  0.00    +0.000 C 
ATOM      6  C   UNL     1      -2.997  11.363  18.372  0.00  0.00    +0.000 A 
ATOM      7  C   UNL     1      -1.866  10.735  17.818  0.00  0.00    +0.000 A 
ATOM      8  C   UNL     1      -1.991  10.259  16.495  0.00  0.00    +0.000 A 
ATOM      9  C   UNL     1      -0.563  10.602  18.626  0.00  0.00    +0.000 C 
ATOM     10  C   UNL     1      -0.039  12.003  19.042  0.00  0.00    +0.000 C 
ATOM     11  C   UNL     1      -0.816  12.673  20.177  0.00  0.00    +0.000 C 
ATOM     12  C   UNL     1      -2.247  12.994  19.805  0.00  0.00    +0.000 C 
ATOM     13  O   UNL     1      -2.988  11.781  19.678  0.00  0.00    +0.000 OA
ENDROOT
BRANCH   9  14
ATOM     14  N   UNL     1       0.471   9.866  17.853  0.00  0.00    +0.000 NA
ATOM     15  H   UNL     1       0.119   8.914  17.716  0.00  0.00    +0.000 HD
BRANCH  14  16
ATOM     16  C   UNL     1       1.762   9.729  18.534  0.00  0.00    +0.000 C 
BRANCH  16  17
ATOM     17  C   UNL     1       1.888   8.395  19.186  0.00  0.00    +0.000 A 
ATOM     18  N   UNL     1       1.386   8.056  20.355  0.00  0.00    +0.000 NA
ATOM     19  N   UNL     1       1.810   6.791  20.656  0.00  0.00    +0.000 NA
ATOM     20  C   UNL     1       2.557   6.358  19.661  0.00  0.00    +0.000 A 
ATOM     21  N   UNL     1       2.617   7.333  18.691  0.00  0.00    +0.000 N 
ATOM     22  C   UNL     1       3.294   7.264  17.415  0.00  0.00    +0.000 C 
ATOM     23  C   UNL     1       4.685   6.645  17.498  0.00  0.00    +0.000 C 
ATOM     24  C   UNL     1       4.682   5.117  17.522  0.00  0.00    +0.000 C 
ATOM     25  C   UNL     1       3.508   4.467  18.254  0.00  0.00    +0.000 C 
ATOM     26  C   UNL     1       3.258   5.044  19.640  0.00  0.00    +0.000 C 
ENDBRANCH  16  17
ENDBRANCH  14  16
ENDBRANCH   9  14
TORSDOF 3
ENDMDL
MODEL 7
REMARK VINA RESULT:      -7.6      2.858      8.374
REMARK  Name = 
REMARK  5 active torsions:
REMARK  status: ('A' for Active; 'I' for Inactive)
REMARK    1  A    between atoms: C_1  and  C_2
REMARK    2  A    between atoms: C_4  and  C_5
REMARK    3  A    between atoms: C_9  and  N_10
REMARK    4  A    between atoms: N_10  and  C_11
REMARK    5  A    between atoms: C_11  and  C_12
REMARK                            x       y       z     vdW  Elec       q    Type
REMARK                         _______ _______ _______ _____ _____    ______ ____
ROOT
ATOM      1  C   UNL     1       1.243   2.727  22.109  0.00  0.00    +0.000 C 
ATOM      2  C   UNL     1       1.687   3.240  20.769  0.00  0.00    +0.000 A 
ATOM      3  C   UNL     1       2.083   2.352  19.767  0.00  0.00    +0.000 A 
ATOM      4  C   UNL     1       2.527   2.828  18.531  0.00  0.00    +0.000 A 
ATOM      5  C   UNL     1       2.906   1.860  17.446  0.00  0.00    +0.000 C 
ATOM      6  C   UNL     1       2.622   4.217  18.330  0.00  0.00    +0.000 A 
ATOM      7  C   UNL     1       2.264   5.149  19.323  0.00  0.00    +0.000 A 
ATOM      8  C   UNL     1       1.765   4.623  20.534  0.00  0.00    +0.000 A 
ATOM      9  C   UNL     1       2.435   6.660  19.085  0.00  0.00    +0.000 C 
ATOM     10  C   UNL     1       3.922   6.995  18.785  0.00  0.00    +0.000 C 
ATOM     11  C   UNL     1       4.404   6.598  17.388  0.00  0.00    +0.000 C 
ATOM     12  C   UNL     1       4.390   5.103  17.160  0.00  0.00    +0.000 C 
ATOM     13  O   UNL     1       3.040   4.646  17.096  0.00  0.00    +0.000 OA
ENDROOT
BRANCH   9  14
ATOM     14  N   UNL     1       1.949   7.441  20.251  0.00  0.00    +0.000 NA
ATOM     15  H   UNL     1       1.157   6.926  20.646  0.00  0.00    +0.000 HD
BRANCH  14  16
ATOM     16  C   UNL     1       1.443   8.778  19.924  0.00  0.00    +0.000 C 
BRANCH  16  17
ATOM     17  C   UNL     1       0.878   9.450  21.127  0.00  0.00    +0.000 A 
ATOM     18  N   UNL     1       1.008   9.042  22.373  0.00  0.00    +0.000 NA
ATOM     19  N   UNL     1       0.259   9.858  23.175  0.00  0.00    +0.000 NA
ATOM     20  C   UNL     1      -0.314  10.770  22.416  0.00  0.00    +0.000 A 
ATOM     21  N   UNL     1       0.068  10.568  21.110  0.00  0.00    +0.000 N 
ATOM     22  C   UNL     1      -0.292  11.359  19.954  0.00  0.00    +0.000 C 
ATOM     23  C   UNL     1      -1.766  11.751  19.922  0.00  0.00    +0.000 C 
ATOM     24  C   UNL     1      -2.104  12.959  20.795  0.00  0.00    +0.000 C 
ATOM     25  C   UNL     1      -1.305  13.088  22.090  0.00  0.00    +0.000 C 
ATOM     26  C   UNL     1      -1.262  11.806  22.911  0.00  0.00    +0.000 C 
ENDBRANCH  16  17
ENDBRANCH  14  16
ENDBRANCH   9  14
TORSDOF 3
ENDMDL
MODEL 8
REMARK VINA RESULT:      -7.6      2.989      8.292
REMARK  Name = 
REMARK  5 active torsions:
REMARK  status: ('A' for Active; 'I' for Inactive)
REMARK    1  A    between atoms: C_1  and  C_2
REMARK    2  A    between atoms: C_4  and  C_5
REMARK    3  A    between atoms: C_9  and  N_10
REMARK    4  A    between atoms: N_10  and  C_11
REMARK    5  A    between atoms: C_11  and  C_12
REMARK                            x       y       z     vdW  Elec       q    Type
REMARK                         _______ _______ _______ _____ _____    ______ ____
ROOT
ATOM      1  C   UNL     1       5.065   5.975  15.892  0.00  0.00    +0.000 C 
ATOM      2  C   UNL     1       4.523   5.106  16.990  0.00  0.00    +0.000 A 
ATOM      3  C   UNL     1       4.586   3.715  16.888  0.00  0.00    +0.000 A 
ATOM      4  C   UNL     1       4.053   2.904  17.894  0.00  0.00    +0.000 A 
ATOM      5  C   UNL     1       4.167   1.409  17.792  0.00  0.00    +0.000 C 
ATOM      6  C   UNL     1       3.402   3.510  18.984  0.00  0.00    +0.000 A 
ATOM      7  C   UNL     1       3.288   4.907  19.112  0.00  0.00    +0.000 A 
ATOM      8  C   UNL     1       3.893   5.687  18.104  0.00  0.00    +0.000 A 
ATOM      9  C   UNL     1       2.520   5.531  20.291  0.00  0.00    +0.000 C 
ATOM     10  C   UNL     1       1.047   5.038  20.298  0.00  0.00    +0.000 C 
ATOM     11  C   UNL     1       0.849   3.598  20.774  0.00  0.00    +0.000 C 
ATOM     12  C   UNL     1       1.493   2.579  19.860  0.00  0.00    +0.000 C 
ATOM     13  O   UNL     1       2.913   2.682  19.962  0.00  0.00    +0.000 OA
ENDROOT
BRANCH   9  14
ATOM     14  N   UNL     1       2.575   7.014  20.238  0.00  0.00    +0.000 NA
ATOM     15  H   UNL     1       3.436   7.297  20.714  0.00  0.00    +0.000 HD
BRANCH  14  16
ATOM     16  C   UNL     1       1.480   7.692  20.938  0.00  0.00    +0.000 C 
BRANCH  16  17
ATOM     17  C   UNL     1       1.035   8.905  20.195  0.00  0.00    +0.000 A 
ATOM     18  N   UNL     1       1.464   9.285  19.009  0.00  0.00    +0.000 NA
ATOM     19  N   UNL     1       0.905  10.499  18.717  0.00  0.00    +0.000 NA
ATOM     20  C   UNL     1       0.125  10.846  19.720  0.00  0.00    +0.000 A 
ATOM     21  N   UNL     1       0.156   9.855  20.673  0.00  0.00    +0.000 N 
ATOM     22  C   UNL     1      -0.582   9.806  21.916  0.00  0.00    +0.000 C 
ATOM     23  C   UNL     1      -0.595  11.133  22.667  0.00  0.00    +0.000 C 
ATOM     24  C   UNL     1      -1.632  12.128  22.148  0.00  0.00    +0.000 C 
ATOM     25  C   UNL     1      -1.886  12.098  20.642  0.00  0.00    +0.000 C 
ATOM     26  C   UNL     1      -0.614  12.137  19.807  0.00  0.00    +0.000 C 
ENDBRANCH  16  17
ENDBRANCH  14  16
ENDBRANCH   9  14
TORSDOF 3
ENDMDL
MODEL 9
REMARK VINA RESULT:      -7.6      3.166      8.001
REMARK  Name = 
REMARK  5 active torsions:
REMARK  status: ('A' for Active; 'I' for Inactive)
REMARK    1  A    between atoms: C_1  and  C_2
REMARK    2  A    between atoms: C_4  and  C_5
REMARK    3  A    between atoms: C_9  and  N_10
REMARK    4  A    between atoms: N_10  and  C_11
REMARK    5  A    between atoms: C_11  and  C_12
REMARK                            x       y       z     vdW  Elec       q    Type
REMARK                         _______ _______ _______ _____ _____    ______ ____
ROOT
ATOM      1  C   UNL     1       1.548   3.582  21.608  0.00  0.00    +0.000 C 
ATOM      2  C   UNL     1       2.193   3.716  20.259  0.00  0.00    +0.000 A 
ATOM      3  C   UNL     1       2.708   2.595  19.605  0.00  0.00    +0.000 A 
ATOM      4  C   UNL     1       3.337   2.723  18.364  0.00  0.00    +0.000 A 
ATOM      5  C   UNL     1       3.847   1.502  17.652  0.00  0.00    +0.000 C 
ATOM      6  C   UNL     1       3.494   4.006  17.809  0.00  0.00    +0.000 A 
ATOM      7  C   UNL     1       3.018   5.167  18.447  0.00  0.00    +0.000 A 
ATOM      8  C   UNL     1       2.336   4.984  19.668  0.00  0.00    +0.000 A 
ATOM      9  C   UNL     1       3.258   6.559  17.833  0.00  0.00    +0.000 C 
ATOM     10  C   UNL     1       4.779   6.823  17.673  0.00  0.00    +0.000 C 
ATOM     11  C   UNL     1       5.449   6.069  16.523  0.00  0.00    +0.000 C 
ATOM     12  C   UNL     1       5.433   4.568  16.712  0.00  0.00    +0.000 C 
ATOM     13  O   UNL     1       4.095   4.088  16.579  0.00  0.00    +0.000 OA
ENDROOT
BRANCH   9  14
ATOM     14  N   UNL     1       2.626   7.620  18.658  0.00  0.00    +0.000 NA
ATOM     15  H   UNL     1       2.156   7.152  19.438  0.00  0.00    +0.000 HD
BRANCH  14  16
ATOM     16  C   UNL     1       1.593   8.398  17.968  0.00  0.00    +0.000 C 
BRANCH  16  17
ATOM     17  C   UNL     1       1.412   9.735  18.599  0.00  0.00    +0.000 A 
ATOM     18  N   UNL     1       1.883  10.876  18.141  0.00  0.00    +0.000 NA
ATOM     19  N   UNL     1       1.604  11.856  19.054  0.00  0.00    +0.000 NA
ATOM     20  C   UNL     1       0.949  11.310  20.058  0.00  0.00    +0.000 A 
ATOM     21  N   UNL     1       0.782   9.968  19.805  0.00  0.00    +0.000 N 
ATOM     22  C   UNL     1       0.086   8.998  20.622  0.00  0.00    +0.000 C 
ATOM     23  C   UNL     1       0.392   9.127  22.110  0.00  0.00    +0.000 C 
ATOM     24  C   UNL     1      -0.409  10.222  22.815  0.00  0.00    +0.000 C 
ATOM     25  C   UNL     1      -0.704  11.469  21.982  0.00  0.00    +0.000 C 
ATOM     26  C   UNL     1       0.522  12.041  21.284  0.00  0.00    +0.000 C 
ENDBRANCH  16  17
ENDBRANCH  14  16
ENDBRANCH   9  14
TORSDOF 3
ENDMDL
