MODEL 1
REMARK VINA RESULT:      -7.4      0.000      0.000
REMARK  Name = 
REMARK  4 active torsions:
REMARK  status: ('A' for Active; 'I' for Inactive)
REMARK    1  A    between atoms: C_1  and  O_2
REMARK    2  A    between atoms: O_2  and  C_3
REMARK    3  A    between atoms: C_5  and  C_6
REMARK    4  A    between atoms: C_11  and  C_12
REMARK                            x       y       z     vdW  Elec       q    Type
REMARK                         _______ _______ _______ _____ _____    ______ ____
ROOT
ATOM      1  C   UNL     1      -0.057  10.241  22.105  0.00  0.00    +0.000 A 
ATOM      2  C   UNL     1       0.082  11.080  20.998  0.00  0.00    +0.000 A 
ATOM      3  C   UNL     1       0.712  10.638  19.820  0.00  0.00    +0.000 A 
ATOM      4  C   UNL     1       0.827  11.607  18.675  0.00  0.00    +0.000 C 
ATOM      5  C   UNL     1       1.207   9.322  19.767  0.00  0.00    +0.000 A 
ATOM      6  C   UNL     1       1.890   8.774  18.568  0.00  0.00    +0.000 A 
ATOM      7  O   UNL     1       2.060   9.409  17.534  0.00  0.00    +0.000 OA
ATOM      8  C   UNL     1       2.378   7.396  18.650  0.00  0.00    +0.000 A 
ATOM      9  C   UNL     1       2.181   6.703  19.775  0.00  0.00    +0.000 A 
ATOM     10  O   UNL     1       1.534   7.184  20.896  0.00  0.00    +0.000 OA
ATOM     11  C   UNL     1       1.069   8.481  20.874  0.00  0.00    +0.000 A 
ATOM     12  C   UNL     1       0.438   8.937  22.036  0.00  0.00    +0.000 A 
ENDROOT
BRANCH   9  13
ATOM     13  C   UNL     1       2.651   5.320  19.891  0.00  0.00    +0.000 A 
ATOM     14  C   UNL     1       3.707   4.858  19.096  0.00  0.00    +0.000 A 
ATOM     15  C   UNL     1       4.201   3.563  19.270  0.00  0.00    +0.000 A 
ATOM     16  C   UNL     1       3.631   2.721  20.223  0.00  0.00    +0.000 A 
ATOM     17  C   UNL     1       2.549   3.159  20.985  0.00  0.00    +0.000 A 
ATOM     18  C   UNL     1       2.057   4.455  20.818  0.00  0.00    +0.000 A 
ENDBRANCH   9  13
BRANCH   1  20
ATOM     19  C   UNL     1      -1.724  11.529  23.201  0.00  0.00    +0.000 C 
ATOM     20  O   UNL     1      -0.651  10.593  23.286  0.00  0.00    +0.000 OA
ENDBRANCH   1  20
TORSDOF 2
ENDMDL
MODEL 2
REMARK VINA RESULT:      -7.4      3.460      5.806
REMARK  Name = 
REMARK  4 active torsions:
REMARK  status: ('A' for Active; 'I' for Inactive)
REMARK    1  A    between atoms: C_1  and  O_2
REMARK    2  A    between atoms: O_2  and  C_3
REMARK    3  A    between atoms: C_5  and  C_6
REMARK    4  A    between atoms: C_11  and  C_12
REMARK                            x       y       z     vdW  Elec       q    Type
REMARK                         _______ _______ _______ _____ _____    ______ ____
ROOT
ATOM      1  C   UNL     1       1.980   7.024  19.953  0.00  0.00    +0.000 A 
ATOM      2  C   UNL     1       1.461   5.883  20.567  0.00  0.00    +0.000 A 
ATOM      3  C   UNL     1       1.813   4.592  20.131  0.00  0.00    +0.000 A 
ATOM      4  C   UNL     1       1.204   3.415  20.842  0.00  0.00    +0.000 C 
ATOM      5  C   UNL     1       2.710   4.460  19.054  0.00  0.00    +0.000 A 
ATOM      6  C   UNL     1       3.133   3.139  18.525  0.00  0.00    +0.000 A 
ATOM      7  O   UNL     1       2.755   2.070  18.988  0.00  0.00    +0.000 OA
ATOM      8  C   UNL     1       4.054   3.140  17.387  0.00  0.00    +0.000 A 
ATOM      9  C   UNL     1       4.473   4.308  16.892  0.00  0.00    +0.000 A 
ATOM     10  O   UNL     1       4.108   5.549  17.377  0.00  0.00    +0.000 OA
ATOM     11  C   UNL     1       3.231   5.601  18.439  0.00  0.00    +0.000 A 
ATOM     12  C   UNL     1       2.871   6.876  18.887  0.00  0.00    +0.000 A 
ENDROOT
BRANCH   9  13
ATOM     13  C   UNL     1       5.399   4.348  15.757  0.00  0.00    +0.000 A 
ATOM     14  C   UNL     1       5.072   3.718  14.550  0.00  0.00    +0.000 A 
ATOM     15  C   UNL     1       5.924   3.829  13.448  0.00  0.00    +0.000 A 
ATOM     16  C   UNL     1       7.111   4.552  13.554  0.00  0.00    +0.000 A 
ATOM     17  C   UNL     1       7.464   5.143  14.767  0.00  0.00    +0.000 A 
ATOM     18  C   UNL     1       6.611   5.039  15.867  0.00  0.00    +0.000 A 
ENDBRANCH   9  13
BRANCH   1  20
ATOM     19  C   UNL     1       0.978   8.479  21.539  0.00  0.00    +0.000 C 
ATOM     20  O   UNL     1       1.685   8.310  20.312  0.00  0.00    +0.000 OA
ENDBRANCH   1  20
TORSDOF 2
ENDMDL
MODEL 3
REMARK VINA RESULT:      -7.4      0.214      1.091
REMARK  Name = 
REMARK  4 active torsions:
REMARK  status: ('A' for Active; 'I' for Inactive)
REMARK    1  A    between atoms: C_1  and  O_2
REMARK    2  A    between atoms: O_2  and  C_3
REMARK    3  A    between atoms: C_5  and  C_6
REMARK    4  A    between atoms: C_11  and  C_12
REMARK                            x       y       z     vdW  Elec       q    Type
REMARK                         _______ _______ _______ _____ _____    ______ ____
ROOT
ATOM      1  C   UNL     1      -0.094  10.237  22.091  0.00  0.00    +0.000 A 
ATOM      2  C   UNL     1      -0.030  11.068  20.971  0.00  0.00    +0.000 A 
ATOM      3  C   UNL     1       0.597  10.649  19.783  0.00  0.00    +0.000 A 
ATOM      4  C   UNL     1       0.628  11.608  18.625  0.00  0.00    +0.000 C 
ATOM      5  C   UNL     1       1.166   9.363  19.733  0.00  0.00    +0.000 A 
ATOM      6  C   UNL     1       1.851   8.840  18.523  0.00  0.00    +0.000 A 
ATOM      7  O   UNL     1       1.960   9.471  17.479  0.00  0.00    +0.000 OA
ATOM      8  C   UNL     1       2.420   7.494  18.609  0.00  0.00    +0.000 A 
ATOM      9  C   UNL     1       2.291   6.805  19.746  0.00  0.00    +0.000 A 
ATOM     10  O   UNL     1       1.644   7.262  20.877  0.00  0.00    +0.000 OA
ATOM     11  C   UNL     1       1.103   8.530  20.852  0.00  0.00    +0.000 A 
ATOM     12  C   UNL     1       0.474   8.962  22.024  0.00  0.00    +0.000 A 
ENDROOT
BRANCH   9  13
ATOM     13  C   UNL     1       2.843   5.453  19.866  0.00  0.00    +0.000 A 
ATOM     14  C   UNL     1       2.168   4.472  20.604  0.00  0.00    +0.000 A 
ATOM     15  C   UNL     1       2.660   3.165  20.647  0.00  0.00    +0.000 A 
ATOM     16  C   UNL     1       3.834   2.839  19.970  0.00  0.00    +0.000 A 
ATOM     17  C   UNL     1       4.535   3.822  19.273  0.00  0.00    +0.000 A 
ATOM     18  C   UNL     1       4.042   5.127  19.223  0.00  0.00    +0.000 A 
ENDBRANCH   9  13
BRANCH   1  20
ATOM     19  C   UNL     1      -1.664  11.598  23.237  0.00  0.00    +0.000 C 
ATOM     20  O   UNL     1      -0.679  10.569  23.282  0.00  0.00    +0.000 OA
ENDBRANCH   1  20
TORSDOF 2
ENDMDL
MODEL 4
REMARK VINA RESULT:      -7.4      4.232      6.722
REMARK  Name = 
REMARK  4 active torsions:
REMARK  status: ('A' for Active; 'I' for Inactive)
REMARK    1  A    between atoms: C_1  and  O_2
REMARK    2  A    between atoms: O_2  and  C_3
REMARK    3  A    between atoms: C_5  and  C_6
REMARK    4  A    between atoms: C_11  and  C_12
REMARK                            x       y       z     vdW  Elec       q    Type
REMARK                         _______ _______ _______ _____ _____    ______ ____
ROOT
ATOM      1  C   UNL     1       2.691   3.443  19.588  0.00  0.00    +0.000 A 
ATOM      2  C   UNL     1       2.385   4.744  19.987  0.00  0.00    +0.000 A 
ATOM      3  C   UNL     1       2.810   5.858  19.241  0.00  0.00    +0.000 A 
ATOM      4  C   UNL     1       2.443   7.228  19.743  0.00  0.00    +0.000 C 
ATOM      5  C   UNL     1       3.557   5.645  18.067  0.00  0.00    +0.000 A 
ATOM      6  C   UNL     1       4.051   6.760  17.220  0.00  0.00    +0.000 A 
ATOM      7  O   UNL     1       3.835   7.942  17.462  0.00  0.00    +0.000 OA
ATOM      8  C   UNL     1       4.836   6.403  16.037  0.00  0.00    +0.000 A 
ATOM      9  C   UNL     1       5.059   5.113  15.772  0.00  0.00    +0.000 A 
ATOM     10  O   UNL     1       4.597   4.058  16.533  0.00  0.00    +0.000 OA
ATOM     11  C   UNL     1       3.865   4.343  17.666  0.00  0.00    +0.000 A 
ATOM     12  C   UNL     1       3.433   3.247  18.420  0.00  0.00    +0.000 A 
ENDROOT
BRANCH   9  13
ATOM     13  C   UNL     1       5.836   4.718  14.594  0.00  0.00    +0.000 A 
ATOM     14  C   UNL     1       5.320   3.792  13.679  0.00  0.00    +0.000 A 
ATOM     15  C   UNL     1       6.032   3.482  12.517  0.00  0.00    +0.000 A 
ATOM     16  C   UNL     1       7.268   4.080  12.277  0.00  0.00    +0.000 A 
ATOM     17  C   UNL     1       7.809   4.967  13.207  0.00  0.00    +0.000 A 
ATOM     18  C   UNL     1       7.096   5.283  14.365  0.00  0.00    +0.000 A 
ENDBRANCH   9  13
BRANCH   1  20
ATOM     19  C   UNL     1       1.653   2.500  21.503  0.00  0.00    +0.000 C 
ATOM     20  O   UNL     1       2.322   2.309  20.258  0.00  0.00    +0.000 OA
ENDBRANCH   1  20
TORSDOF 2
ENDMDL
MODEL 5
REMARK VINA RESULT:      -7.3      2.364      7.182
REMARK  Name = 
REMARK  4 active torsions:
REMARK  status: ('A' for Active; 'I' for Inactive)
REMARK    1  A    between atoms: C_1  and  O_2
REMARK    2  A    between atoms: O_2  and  C_3
REMARK    3  A    between atoms: C_5  and  C_6
REMARK    4  A    between atoms: C_11  and  C_12
REMARK                            x       y       z     vdW  Elec       q    Type
REMARK                         _______ _______ _______ _____ _____    ______ ____
ROOT
ATOM      1  C   UNL     1       5.031   5.517  16.426  0.00  0.00    +0.000 A 
ATOM      2  C   UNL     1       4.850   4.207  16.874  0.00  0.00    +0.000 A 
ATOM      3  C   UNL     1       4.004   3.915  17.959  0.00  0.00    +0.000 A 
ATOM      4  C   UNL     1       3.869   2.478  18.383  0.00  0.00    +0.000 C 
ATOM      5  C   UNL     1       3.330   4.972  18.598  0.00  0.00    +0.000 A 
ATOM      6  C   UNL     1       2.421   4.758  19.753  0.00  0.00    +0.000 A 
ATOM      7  O   UNL     1       2.175   3.655  20.226  0.00  0.00    +0.000 OA
ATOM      8  C   UNL     1       1.798   5.945  20.342  0.00  0.00    +0.000 A 
ATOM      9  C   UNL     1       2.061   7.144  19.816  0.00  0.00    +0.000 A 
ATOM     10  O   UNL     1       2.887   7.368  18.732  0.00  0.00    +0.000 OA
ATOM     11  C   UNL     1       3.510   6.284  18.152  0.00  0.00    +0.000 A 
ATOM     12  C   UNL     1       4.354   6.555  17.070  0.00  0.00    +0.000 A 
ENDROOT
BRANCH   9  13
ATOM     13  C   UNL     1       1.451   8.354  20.375  0.00  0.00    +0.000 A 
ATOM     14  C   UNL     1       1.058   9.405  19.537  0.00  0.00    +0.000 A 
ATOM     15  C   UNL     1       0.405  10.519  20.070  0.00  0.00    +0.000 A 
ATOM     16  C   UNL     1       0.160  10.595  21.440  0.00  0.00    +0.000 A 
ATOM     17  C   UNL     1       0.591   9.573  22.285  0.00  0.00    +0.000 A 
ATOM     18  C   UNL     1       1.238   8.455  21.755  0.00  0.00    +0.000 A 
ENDBRANCH   9  13
BRANCH   1  20
ATOM     19  C   UNL     1       6.783   4.913  14.942  0.00  0.00    +0.000 C 
ATOM     20  O   UNL     1       5.838   5.885  15.385  0.00  0.00    +0.000 OA
ENDBRANCH   1  20
TORSDOF 2
ENDMDL
MODEL 6
REMARK VINA RESULT:      -7.3      2.504      7.312
REMARK  Name = 
REMARK  4 active torsions:
REMARK  status: ('A' for Active; 'I' for Inactive)
REMARK    1  A    between atoms: C_1  and  O_2
REMARK    2  A    between atoms: O_2  and  C_3
REMARK    3  A    between atoms: C_5  and  C_6
REMARK    4  A    between atoms: C_11  and  C_12
REMARK                            x       y       z     vdW  Elec       q    Type
REMARK                         _______ _______ _______ _____ _____    ______ ____
ROOT
ATOM      1  C   UNL     1       5.157   5.454  16.219  0.00  0.00    +0.000 A 
ATOM      2  C   UNL     1       4.912   4.138  16.613  0.00  0.00    +0.000 A 
ATOM      3  C   UNL     1       4.020   3.841  17.659  0.00  0.00    +0.000 A 
ATOM      4  C   UNL     1       3.816   2.396  18.026  0.00  0.00    +0.000 C 
ATOM      5  C   UNL     1       3.364   4.900  18.314  0.00  0.00    +0.000 A 
ATOM      6  C   UNL     1       2.410   4.680  19.431  0.00  0.00    +0.000 A 
ATOM      7  O   UNL     1       2.107   3.571  19.856  0.00  0.00    +0.000 OA
ATOM      8  C   UNL     1       1.813   5.869  20.042  0.00  0.00    +0.000 A 
ATOM      9  C   UNL     1       2.138   7.075  19.569  0.00  0.00    +0.000 A 
ATOM     10  O   UNL     1       3.008   7.305  18.521  0.00  0.00    +0.000 OA
ATOM     11  C   UNL     1       3.608   6.218  17.922  0.00  0.00    +0.000 A 
ATOM     12  C   UNL     1       4.498   6.495  16.878  0.00  0.00    +0.000 A 
ENDROOT
BRANCH   9  13
ATOM     13  C   UNL     1       1.556   8.287  20.152  0.00  0.00    +0.000 A 
ATOM     14  C   UNL     1       1.346   8.382  21.533  0.00  0.00    +0.000 A 
ATOM     15  C   UNL     1       0.866   9.570  22.089  0.00  0.00    +0.000 A 
ATOM     16  C   UNL     1       0.577  10.658  21.267  0.00  0.00    +0.000 A 
ATOM     17  C   UNL     1       0.739  10.553  19.887  0.00  0.00    +0.000 A 
ATOM     18  C   UNL     1       1.225   9.370  19.329  0.00  0.00    +0.000 A 
ENDBRANCH   9  13
BRANCH   1  20
ATOM     19  C   UNL     1       6.607   4.771  14.468  0.00  0.00    +0.000 C 
ATOM     20  O   UNL     1       6.011   5.828  15.218  0.00  0.00    +0.000 OA
ENDBRANCH   1  20
TORSDOF 2
ENDMDL
MODEL 7
REMARK VINA RESULT:      -7.3      1.450      6.302
REMARK  Name = 
REMARK  4 active torsions:
REMARK  status: ('A' for Active; 'I' for Inactive)
REMARK    1  A    between atoms: C_1  and  O_2
REMARK    2  A    between atoms: O_2  and  C_3
REMARK    3  A    between atoms: C_5  and  C_6
REMARK    4  A    between atoms: C_11  and  C_12
REMARK                            x       y       z     vdW  Elec       q    Type
REMARK                         _______ _______ _______ _____ _____    ______ ____
ROOT
ATOM      1  C   UNL     1       2.782   3.918  20.195  0.00  0.00    +0.000 A 
ATOM      2  C   UNL     1       3.446   4.165  18.992  0.00  0.00    +0.000 A 
ATOM      3  C   UNL     1       3.409   5.433  18.383  0.00  0.00    +0.000 A 
ATOM      4  C   UNL     1       4.146   5.615  17.084  0.00  0.00    +0.000 C 
ATOM      5  C   UNL     1       2.688   6.467  19.010  0.00  0.00    +0.000 A 
ATOM      6  C   UNL     1       2.592   7.834  18.437  0.00  0.00    +0.000 A 
ATOM      7  O   UNL     1       3.140   8.173  17.395  0.00  0.00    +0.000 OA
ATOM      8  C   UNL     1       1.792   8.812  19.177  0.00  0.00    +0.000 A 
ATOM      9  C   UNL     1       1.204   8.441  20.318  0.00  0.00    +0.000 A 
ATOM     10  O   UNL     1       1.293   7.182  20.879  0.00  0.00    +0.000 OA
ATOM     11  C   UNL     1       2.023   6.221  20.213  0.00  0.00    +0.000 A 
ATOM     12  C   UNL     1       2.072   4.954  20.805  0.00  0.00    +0.000 A 
ENDROOT
BRANCH   9  13
ATOM     13  C   UNL     1       0.401   9.394  21.088  0.00  0.00    +0.000 A 
ATOM     14  C   UNL     1       0.041   9.115  22.412  0.00  0.00    +0.000 A 
ATOM     15  C   UNL     1      -0.656  10.064  23.164  0.00  0.00    +0.000 A 
ATOM     16  C   UNL     1      -1.012  11.284  22.590  0.00  0.00    +0.000 A 
ATOM     17  C   UNL     1      -0.697  11.548  21.258  0.00  0.00    +0.000 A 
ATOM     18  C   UNL     1       0.005  10.605  20.506  0.00  0.00    +0.000 A 
ENDBRANCH   9  13
BRANCH   1  20
ATOM     19  C   UNL     1       1.682   2.505  21.753  0.00  0.00    +0.000 C 
ATOM     20  O   UNL     1       2.763   2.716  20.847  0.00  0.00    +0.000 OA
ENDBRANCH   1  20
TORSDOF 2
ENDMDL
MODEL 8
REMARK VINA RESULT:      -7.3      3.736      6.114
REMARK  Name = 
REMARK  4 active torsions:
REMARK  status: ('A' for Active; 'I' for Inactive)
REMARK    1  A    between atoms: C_1  and  O_2
REMARK    2  A    between atoms: O_2  and  C_3
REMARK    3  A    between atoms: C_5  and  C_6
REMARK    4  A    between atoms: C_11  and  C_12
REMARK                            x       y       z     vdW  Elec       q    Type
REMARK                         _______ _______ _______ _____ _____    ______ ____
ROOT
ATOM      1  C   UNL     1       2.261   7.551  19.117  0.00  0.00    +0.000 A 
ATOM      2  C   UNL     1       2.069   6.548  20.069  0.00  0.00    +0.000 A 
ATOM      3  C   UNL     1       2.637   5.271  19.912  0.00  0.00    +0.000 A 
ATOM      4  C   UNL     1       2.376   4.245  20.981  0.00  0.00    +0.000 C 
ATOM      5  C   UNL     1       3.414   5.009  18.768  0.00  0.00    +0.000 A 
ATOM      6  C   UNL     1       4.048   3.689  18.518  0.00  0.00    +0.000 A 
ATOM      7  O   UNL     1       3.960   2.738  19.286  0.00  0.00    +0.000 OA
ATOM      8  C   UNL     1       4.813   3.541  17.279  0.00  0.00    +0.000 A 
ATOM      9  C   UNL     1       4.915   4.583  16.450  0.00  0.00    +0.000 A 
ATOM     10  O   UNL     1       4.351   5.825  16.668  0.00  0.00    +0.000 OA
ATOM     11  C   UNL     1       3.608   6.011  17.814  0.00  0.00    +0.000 A 
ATOM     12  C   UNL     1       3.037   7.276  17.988  0.00  0.00    +0.000 A 
ENDROOT
BRANCH   9  13
ATOM     13  C   UNL     1       5.678   4.473  15.204  0.00  0.00    +0.000 A 
ATOM     14  C   UNL     1       5.198   3.697  14.142  0.00  0.00    +0.000 A 
ATOM     15  C   UNL     1       5.891   3.662  12.929  0.00  0.00    +0.000 A 
ATOM     16  C   UNL     1       7.072   4.386  12.780  0.00  0.00    +0.000 A 
ATOM     17  C   UNL     1       7.580   5.123  13.849  0.00  0.00    +0.000 A 
ATOM     18  C   UNL     1       6.886   5.165  15.060  0.00  0.00    +0.000 A 
ENDBRANCH   9  13
BRANCH   1  20
ATOM     19  C   UNL     1       1.826   9.603  18.007  0.00  0.00    +0.000 C 
ATOM     20  O   UNL     1       1.741   8.813  19.192  0.00  0.00    +0.000 OA
ENDBRANCH   1  20
TORSDOF 2
ENDMDL
MODEL 9
REMARK VINA RESULT:      -7.3      3.407      5.845
REMARK  Name = 
REMARK  4 active torsions:
REMARK  status: ('A' for Active; 'I' for Inactive)
REMARK    1  A    between atoms: C_1  and  O_2
REMARK    2  A    between atoms: O_2  and  C_3
REMARK    3  A    between atoms: C_5  and  C_6
REMARK    4  A    between atoms: C_11  and  C_12
REMARK                            x       y       z     vdW  Elec       q    Type
REMARK                         _______ _______ _______ _____ _____    ______ ____
ROOT
ATOM      1  C   UNL     1       1.863   6.833  20.171  0.00  0.00    +0.000 A 
ATOM      2  C   UNL     1       1.454   5.649  20.787  0.00  0.00    +0.000 A 
ATOM      3  C   UNL     1       1.889   4.394  20.323  0.00  0.00    +0.000 A 
ATOM      4  C   UNL     1       1.396   3.167  21.039  0.00  0.00    +0.000 C 
ATOM      5  C   UNL     1       2.757   4.343  19.216  0.00  0.00    +0.000 A 
ATOM      6  C   UNL     1       3.263   3.063  18.657  0.00  0.00    +0.000 A 
ATOM      7  O   UNL     1       2.983   1.963  19.119  0.00  0.00    +0.000 OA
ATOM      8  C   UNL     1       4.142   3.147  17.490  0.00  0.00    +0.000 A 
ATOM      9  C   UNL     1       4.453   4.348  16.996  0.00  0.00    +0.000 A 
ATOM     10  O   UNL     1       4.010   5.552  17.508  0.00  0.00    +0.000 OA
ATOM     11  C   UNL     1       3.168   5.526  18.599  0.00  0.00    +0.000 A 
ATOM     12  C   UNL     1       2.726   6.765  19.074  0.00  0.00    +0.000 A 
ENDROOT
BRANCH   9  13
ATOM     13  C   UNL     1       5.335   4.471  15.832  0.00  0.00    +0.000 A 
ATOM     14  C   UNL     1       6.583   5.095  15.947  0.00  0.00    +0.000 A 
ATOM     15  C   UNL     1       7.450   5.136  14.852  0.00  0.00    +0.000 A 
ATOM     16  C   UNL     1       7.066   4.572  13.637  0.00  0.00    +0.000 A 
ATOM     17  C   UNL     1       5.806   3.991  13.503  0.00  0.00    +0.000 A 
ATOM     18  C   UNL     1       4.940   3.943  14.597  0.00  0.00    +0.000 A 
ENDBRANCH   9  13
BRANCH   1  20
ATOM     19  C   UNL     1       1.407   9.071  19.523  0.00  0.00    +0.000 C 
ATOM     20  O   UNL     1       1.483   8.089  20.555  0.00  0.00    +0.000 OA
ENDBRANCH   1  20
TORSDOF 2
ENDMDL
