MODEL 1
REMARK VINA RESULT:      -8.3      0.000      0.000
REMARK  Name = 
REMARK  11 active torsions:
REMARK  status: ('A' for Active; 'I' for Inactive)
REMARK    1  A    between atoms: C_1  and  C_2
REMARK    2  A    between atoms: C_4  and  C_5
REMARK    3  A    between atoms: C_8  and  C_9
REMARK    4  A    between atoms: C_9  and  C_10
REMARK    5  A    between atoms: C_10  and  C_11
REMARK    6  A    between atoms: C_11  and  C_12
REMARK    7  A    between atoms: C_11  and  C_13
REMARK    8  A    between atoms: C_11  and  S_17
REMARK    9  A    between atoms: N_15  and  O_16
REMARK   10  A    between atoms: S_17  and  C_18
REMARK   11  A    between atoms: C_25  and  C_26
REMARK                            x       y       z     vdW  Elec       q    Type
REMARK                         _______ _______ _______ _____ _____    ______ ____
ROOT
ATOM      1  C   UNL     1       1.118   9.169  20.153  0.00  0.00    +0.000 A 
ATOM      2  C   UNL     1       1.514   7.950  20.718  0.00  0.00    +0.000 A 
ATOM      3  C   UNL     1       2.187   6.999  19.968  0.00  0.00    +0.000 A 
ATOM      4  C   UNL     1       2.432   7.196  18.608  0.00  0.00    +0.000 A 
ATOM      5  C   UNL     1       2.042   8.409  18.028  0.00  0.00    +0.000 A 
ATOM      6  C   UNL     1       1.395   9.381  18.793  0.00  0.00    +0.000 A 
ENDROOT
BRANCH   1  10
ATOM      7  C   UNL     1       0.128  13.998  20.918  0.00  0.00    +0.000 C 
ATOM      8  C   UNL     1      -0.031  12.572  21.366  0.00  0.00    +0.000 A 
ATOM      9  C   UNL     1       0.593  11.560  20.629  0.00  0.00    +0.000 A 
ATOM     10  C   UNL     1       0.482  10.202  20.982  0.00  0.00    +0.000 A 
ATOM     11  C   UNL     1      -0.271   9.874  22.116  0.00  0.00    +0.000 A 
ATOM     12  C   UNL     1      -0.915  10.865  22.851  0.00  0.00    +0.000 A 
ATOM     13  C   UNL     1      -0.797  12.210  22.482  0.00  0.00    +0.000 A 
BRANCH  13  14
ATOM     14  C   UNL     1      -1.486  13.193  23.262  0.00  0.00    +0.000 C 
ATOM     15  N   UNL     1      -2.048  13.997  23.890  0.00  0.00    +0.000 NA
ENDBRANCH  13  14
ENDBRANCH   1  10
BRANCH   4  16
ATOM     16  C   UNL     1       3.134   6.145  17.784  0.00  0.00    +0.000 C 
BRANCH  16  17
ATOM     17  C   UNL     1       4.659   6.353  17.741  0.00  0.00    +0.000 C 
BRANCH  17  18
ATOM     18  C   UNL     1       5.510   5.084  17.533  0.00  0.00    +0.000 C 
ATOM     19  C   UNL     1       4.806   3.862  18.135  0.00  0.00    +0.000 C 
BRANCH  18  20
ATOM     20  C   UNL     1       5.819   4.882  16.050  0.00  0.00    +0.000 C 
ATOM     21  O   UNL     1       5.817   5.812  15.242  0.00  0.00    +0.000 OA
ATOM     22  N   UNL     1       6.160   3.609  15.645  0.00  0.00    +0.000 N 
ATOM     23  H   UNL     1       5.881   2.770  16.166  0.00  0.00    +0.000 HD
BRANCH  22  24
ATOM     24  O   UNL     1       6.328   3.436  14.251  0.00  0.00    +0.000 OA
ATOM     25  H   UNL     1       6.898   2.639  14.193  0.00  0.00    +0.000 HD
ENDBRANCH  22  24
ENDBRANCH  18  20
BRANCH  18  26
ATOM     26  S   UNL     1       7.103   5.341  18.386  0.00  0.00    +0.000 S 
ATOM     27  C   UNL     1       7.664   6.971  17.942  0.00  0.00    +0.000 C 
ATOM     28  O   UNL     1       6.838   5.353  19.816  0.00  0.00    +0.000 OA
ATOM     29  O   UNL     1       8.063   4.396  17.846  0.00  0.00    +0.000 OA
ENDBRANCH  18  26
ENDBRANCH  17  18
ENDBRANCH  16  17
ENDBRANCH   4  16
TORSDOF 8
ENDMDL
MODEL 2
REMARK VINA RESULT:      -8.3      1.579      2.356
REMARK  Name = 
REMARK  11 active torsions:
REMARK  status: ('A' for Active; 'I' for Inactive)
REMARK    1  A    between atoms: C_1  and  C_2
REMARK    2  A    between atoms: C_4  and  C_5
REMARK    3  A    between atoms: C_8  and  C_9
REMARK    4  A    between atoms: C_9  and  C_10
REMARK    5  A    between atoms: C_10  and  C_11
REMARK    6  A    between atoms: C_11  and  C_12
REMARK    7  A    between atoms: C_11  and  C_13
REMARK    8  A    between atoms: C_11  and  S_17
REMARK    9  A    between atoms: N_15  and  O_16
REMARK   10  A    between atoms: S_17  and  C_18
REMARK   11  A    between atoms: C_25  and  C_26
REMARK                            x       y       z     vdW  Elec       q    Type
REMARK                         _______ _______ _______ _____ _____    ______ ____
ROOT
ATOM      1  C   UNL     1       1.414   8.415  19.971  0.00  0.00    +0.000 A 
ATOM      2  C   UNL     1       1.726   7.172  20.535  0.00  0.00    +0.000 A 
ATOM      3  C   UNL     1       2.424   6.215  19.816  0.00  0.00    +0.000 A 
ATOM      4  C   UNL     1       2.778   6.432  18.483  0.00  0.00    +0.000 A 
ATOM      5  C   UNL     1       2.473   7.669  17.904  0.00  0.00    +0.000 A 
ATOM      6  C   UNL     1       1.801   8.646  18.641  0.00  0.00    +0.000 A 
ENDROOT
BRANCH   1  10
ATOM      7  C   UNL     1      -0.092  13.152  20.400  0.00  0.00    +0.000 C 
ATOM      8  C   UNL     1      -0.015  11.774  20.996  0.00  0.00    +0.000 A 
ATOM      9  C   UNL     1       0.645  10.767  20.284  0.00  0.00    +0.000 A 
ATOM     10  C   UNL     1       0.750   9.452  20.773  0.00  0.00    +0.000 A 
ATOM     11  C   UNL     1       0.179   9.163  22.019  0.00  0.00    +0.000 A 
ATOM     12  C   UNL     1      -0.497  10.146  22.734  0.00  0.00    +0.000 A 
ATOM     13  C   UNL     1      -0.595  11.449  22.229  0.00  0.00    +0.000 A 
BRANCH  13  14
ATOM     14  C   UNL     1      -1.311  12.424  22.995  0.00  0.00    +0.000 C 
ATOM     15  N   UNL     1      -1.889  13.223  23.614  0.00  0.00    +0.000 NA
ENDBRANCH  13  14
ENDBRANCH   1  10
BRANCH   4  16
ATOM     16  C   UNL     1       3.507   5.375  17.690  0.00  0.00    +0.000 C 
BRANCH  16  17
ATOM     17  C   UNL     1       5.019   5.357  17.986  0.00  0.00    +0.000 C 
BRANCH  17  18
ATOM     18  C   UNL     1       5.934   5.889  16.864  0.00  0.00    +0.000 C 
ATOM     19  C   UNL     1       5.107   6.621  15.799  0.00  0.00    +0.000 C 
BRANCH  18  20
ATOM     20  C   UNL     1       7.027   6.786  17.443  0.00  0.00    +0.000 C 
ATOM     21  O   UNL     1       7.393   7.824  16.887  0.00  0.00    +0.000 OA
ATOM     22  N   UNL     1       7.565   6.420  18.658  0.00  0.00    +0.000 N 
ATOM     23  H   UNL     1       7.545   5.454  19.002  0.00  0.00    +0.000 HD
BRANCH  22  24
ATOM     24  O   UNL     1       8.651   7.208  19.107  0.00  0.00    +0.000 OA
ATOM     25  H   UNL     1       8.245   8.094  19.232  0.00  0.00    +0.000 HD
ENDBRANCH  22  24
ENDBRANCH  18  20
BRANCH  18  26
ATOM     26  S   UNL     1       6.762   4.454  16.099  0.00  0.00    +0.000 S 
ATOM     27  C   UNL     1       7.168   4.926  14.432  0.00  0.00    +0.000 C 
ATOM     28  O   UNL     1       8.017   4.245  16.803  0.00  0.00    +0.000 OA
ATOM     29  O   UNL     1       5.801   3.370  16.014  0.00  0.00    +0.000 OA
ENDBRANCH  18  26
ENDBRANCH  17  18
ENDBRANCH  16  17
ENDBRANCH   4  16
TORSDOF 8
ENDMDL
MODEL 3
REMARK VINA RESULT:      -8.1      1.847      2.818
REMARK  Name = 
REMARK  11 active torsions:
REMARK  status: ('A' for Active; 'I' for Inactive)
REMARK    1  A    between atoms: C_1  and  C_2
REMARK    2  A    between atoms: C_4  and  C_5
REMARK    3  A    between atoms: C_8  and  C_9
REMARK    4  A    between atoms: C_9  and  C_10
REMARK    5  A    between atoms: C_10  and  C_11
REMARK    6  A    between atoms: C_11  and  C_12
REMARK    7  A    between atoms: C_11  and  C_13
REMARK    8  A    between atoms: C_11  and  S_17
REMARK    9  A    between atoms: N_15  and  O_16
REMARK   10  A    between atoms: S_17  and  C_18
REMARK   11  A    between atoms: C_25  and  C_26
REMARK                            x       y       z     vdW  Elec       q    Type
REMARK                         _______ _______ _______ _____ _____    ______ ____
ROOT
ATOM      1  C   UNL     1       1.062   9.374  20.417  0.00  0.00    +0.000 A 
ATOM      2  C   UNL     1       1.335   9.588  19.061  0.00  0.00    +0.000 A 
ATOM      3  C   UNL     1       1.909   8.596  18.281  0.00  0.00    +0.000 A 
ATOM      4  C   UNL     1       2.295   7.375  18.839  0.00  0.00    +0.000 A 
ATOM      5  C   UNL     1       2.029   7.146  20.194  0.00  0.00    +0.000 A 
ATOM      6  C   UNL     1       1.419   8.134  20.970  0.00  0.00    +0.000 A 
ENDROOT
BRANCH   1  10
ATOM      7  C   UNL     1       0.022  14.199  21.144  0.00  0.00    +0.000 C 
ATOM      8  C   UNL     1      -0.163  12.771  21.574  0.00  0.00    +0.000 A 
ATOM      9  C   UNL     1       0.506  11.763  20.872  0.00  0.00    +0.000 A 
ATOM     10  C   UNL     1       0.375  10.403  21.209  0.00  0.00    +0.000 A 
ATOM     11  C   UNL     1      -0.447  10.068  22.293  0.00  0.00    +0.000 A 
ATOM     12  C   UNL     1      -1.135  11.055  22.993  0.00  0.00    +0.000 A 
ATOM     13  C   UNL     1      -0.996  12.402  22.639  0.00  0.00    +0.000 A 
BRANCH  13  14
ATOM     14  C   UNL     1      -1.733  13.381  23.380  0.00  0.00    +0.000 C 
ATOM     15  N   UNL     1      -2.327  14.177  23.988  0.00  0.00    +0.000 NA
ENDBRANCH  13  14
ENDBRANCH   1  10
BRANCH   4  16
ATOM     16  C   UNL     1       2.951   6.308  17.997  0.00  0.00    +0.000 C 
BRANCH  16  17
ATOM     17  C   UNL     1       2.932   4.927  18.679  0.00  0.00    +0.000 C 
BRANCH  17  18
ATOM     18  C   UNL     1       4.106   3.988  18.337  0.00  0.00    +0.000 C 
ATOM     19  C   UNL     1       4.134   3.689  16.833  0.00  0.00    +0.000 C 
BRANCH  18  20
ATOM     20  C   UNL     1       5.429   4.585  18.816  0.00  0.00    +0.000 C 
ATOM     21  O   UNL     1       5.488   5.413  19.728  0.00  0.00    +0.000 OA
ATOM     22  N   UNL     1       6.582   4.119  18.222  0.00  0.00    +0.000 N 
ATOM     23  H   UNL     1       6.591   3.697  17.288  0.00  0.00    +0.000 HD
BRANCH  22  24
ATOM     24  O   UNL     1       7.776   4.774  18.610  0.00  0.00    +0.000 OA
ATOM     25  H   UNL     1       8.283   4.063  19.059  0.00  0.00    +0.000 HD
ENDBRANCH  22  24
ENDBRANCH  18  20
BRANCH  18  26
ATOM     26  S   UNL     1       3.853   2.431  19.254  0.00  0.00    +0.000 S 
ATOM     27  C   UNL     1       2.437   2.680  20.303  0.00  0.00    +0.000 C 
ATOM     28  O   UNL     1       3.494   1.405  18.287  0.00  0.00    +0.000 OA
ATOM     29  O   UNL     1       4.997   2.225  20.122  0.00  0.00    +0.000 OA
ENDBRANCH  18  26
ENDBRANCH  17  18
ENDBRANCH  16  17
ENDBRANCH   4  16
TORSDOF 8
ENDMDL
MODEL 4
REMARK VINA RESULT:      -8.1      1.939      2.815
REMARK  Name = 
REMARK  11 active torsions:
REMARK  status: ('A' for Active; 'I' for Inactive)
REMARK    1  A    between atoms: C_1  and  C_2
REMARK    2  A    between atoms: C_4  and  C_5
REMARK    3  A    between atoms: C_8  and  C_9
REMARK    4  A    between atoms: C_9  and  C_10
REMARK    5  A    between atoms: C_10  and  C_11
REMARK    6  A    between atoms: C_11  and  C_12
REMARK    7  A    between atoms: C_11  and  C_13
REMARK    8  A    between atoms: C_11  and  S_17
REMARK    9  A    between atoms: N_15  and  O_16
REMARK   10  A    between atoms: S_17  and  C_18
REMARK   11  A    between atoms: C_25  and  C_26
REMARK                            x       y       z     vdW  Elec       q    Type
REMARK                         _______ _______ _______ _____ _____    ______ ____
ROOT
ATOM      1  C   UNL     1       0.691   9.436  20.357  0.00  0.00    +0.000 A 
ATOM      2  C   UNL     1       0.989   9.717  19.019  0.00  0.00    +0.000 A 
ATOM      3  C   UNL     1       1.772   8.858  18.264  0.00  0.00    +0.000 A 
ATOM      4  C   UNL     1       2.346   7.719  18.833  0.00  0.00    +0.000 A 
ATOM      5  C   UNL     1       2.058   7.424  20.171  0.00  0.00    +0.000 A 
ATOM      6  C   UNL     1       1.240   8.272  20.920  0.00  0.00    +0.000 A 
ENDROOT
BRANCH   1  10
ATOM      7  C   UNL     1      -2.491  13.278  20.393  0.00  0.00    +0.000 C 
ATOM      8  C   UNL     1      -1.792  12.187  21.156  0.00  0.00    +0.000 A 
ATOM      9  C   UNL     1      -0.894  11.358  20.476  0.00  0.00    +0.000 A 
ATOM     10  C   UNL     1      -0.210  10.310  21.120  0.00  0.00    +0.000 A 
ATOM     11  C   UNL     1      -0.440  10.114  22.488  0.00  0.00    +0.000 A 
ATOM     12  C   UNL     1      -1.344  10.916  23.177  0.00  0.00    +0.000 A 
ATOM     13  C   UNL     1      -2.019  11.951  22.518  0.00  0.00    +0.000 A 
BRANCH  13  14
ATOM     14  C   UNL     1      -2.948  12.743  23.266  0.00  0.00    +0.000 C 
ATOM     15  N   UNL     1      -3.710  13.381  23.873  0.00  0.00    +0.000 NA
ENDBRANCH  13  14
ENDBRANCH   1  10
BRANCH   4  16
ATOM     16  C   UNL     1       3.226   6.803  18.020  0.00  0.00    +0.000 C 
BRANCH  16  17
ATOM     17  C   UNL     1       4.091   5.883  18.902  0.00  0.00    +0.000 C 
BRANCH  17  18
ATOM     18  C   UNL     1       4.789   4.714  18.178  0.00  0.00    +0.000 C 
ATOM     19  C   UNL     1       4.426   4.711  16.688  0.00  0.00    +0.000 C 
BRANCH  18  20
ATOM     20  C   UNL     1       6.302   4.778  18.389  0.00  0.00    +0.000 C 
ATOM     21  O   UNL     1       7.104   4.374  17.545  0.00  0.00    +0.000 OA
ATOM     22  N   UNL     1       6.751   5.364  19.552  0.00  0.00    +0.000 N 
ATOM     23  H   UNL     1       6.175   5.424  20.399  0.00  0.00    +0.000 HD
BRANCH  22  24
ATOM     24  O   UNL     1       8.149   5.305  19.765  0.00  0.00    +0.000 OA
ATOM     25  H   UNL     1       8.378   6.231  19.995  0.00  0.00    +0.000 HD
ENDBRANCH  22  24
ENDBRANCH  18  20
BRANCH  18  26
ATOM     26  S   UNL     1       4.204   3.163  18.942  0.00  0.00    +0.000 S 
ATOM     27  C   UNL     1       2.731   3.567  19.856  0.00  0.00    +0.000 C 
ATOM     28  O   UNL     1       3.809   2.266  17.868  0.00  0.00    +0.000 OA
ATOM     29  O   UNL     1       5.199   2.729  19.905  0.00  0.00    +0.000 OA
ENDBRANCH  18  26
ENDBRANCH  17  18
ENDBRANCH  16  17
ENDBRANCH   4  16
TORSDOF 8
ENDMDL
MODEL 5
REMARK VINA RESULT:      -8.1      2.960      3.878
REMARK  Name = 
REMARK  11 active torsions:
REMARK  status: ('A' for Active; 'I' for Inactive)
REMARK    1  A    between atoms: C_1  and  C_2
REMARK    2  A    between atoms: C_4  and  C_5
REMARK    3  A    between atoms: C_8  and  C_9
REMARK    4  A    between atoms: C_9  and  C_10
REMARK    5  A    between atoms: C_10  and  C_11
REMARK    6  A    between atoms: C_11  and  C_12
REMARK    7  A    between atoms: C_11  and  C_13
REMARK    8  A    between atoms: C_11  and  S_17
REMARK    9  A    between atoms: N_15  and  O_16
REMARK   10  A    between atoms: S_17  and  C_18
REMARK   11  A    between atoms: C_25  and  C_26
REMARK                            x       y       z     vdW  Elec       q    Type
REMARK                         _______ _______ _______ _____ _____    ______ ____
ROOT
ATOM      1  C   UNL     1       0.898   9.284  19.487  0.00  0.00    +0.000 A 
ATOM      2  C   UNL     1       1.466   9.265  18.208  0.00  0.00    +0.000 A 
ATOM      3  C   UNL     1       2.352   8.268  17.833  0.00  0.00    +0.000 A 
ATOM      4  C   UNL     1       2.759   7.287  18.741  0.00  0.00    +0.000 A 
ATOM      5  C   UNL     1       2.199   7.292  20.024  0.00  0.00    +0.000 A 
ATOM      6  C   UNL     1       1.280   8.278  20.389  0.00  0.00    +0.000 A 
ENDROOT
BRANCH   1  10
ATOM      7  C   UNL     1      -1.362  11.982  23.023  0.00  0.00    +0.000 C 
ATOM      8  C   UNL     1      -1.217  11.648  21.565  0.00  0.00    +0.000 A 
ATOM      9  C   UNL     1      -0.303  10.658  21.188  0.00  0.00    +0.000 A 
ATOM     10  C   UNL     1      -0.105  10.298  19.842  0.00  0.00    +0.000 A 
ATOM     11  C   UNL     1      -0.865  10.953  18.864  0.00  0.00    +0.000 A 
ATOM     12  C   UNL     1      -1.766  11.953  19.218  0.00  0.00    +0.000 A 
ATOM     13  C   UNL     1      -1.946  12.301  20.562  0.00  0.00    +0.000 A 
BRANCH  13  14
ATOM     14  C   UNL     1      -2.875  13.343  20.877  0.00  0.00    +0.000 C 
ATOM     15  N   UNL     1      -3.630  14.190  21.141  0.00  0.00    +0.000 NA
ENDBRANCH  13  14
ENDBRANCH   1  10
BRANCH   4  16
ATOM     16  C   UNL     1       3.750   6.222  18.342  0.00  0.00    +0.000 C 
BRANCH  16  17
ATOM     17  C   UNL     1       3.629   4.954  19.208  0.00  0.00    +0.000 C 
BRANCH  17  18
ATOM     18  C   UNL     1       3.341   3.642  18.450  0.00  0.00    +0.000 C 
ATOM     19  C   UNL     1       3.842   3.737  17.004  0.00  0.00    +0.000 C 
BRANCH  18  20
ATOM     20  C   UNL     1       3.958   2.451  19.183  0.00  0.00    +0.000 C 
ATOM     21  O   UNL     1       4.259   2.495  20.377  0.00  0.00    +0.000 OA
ATOM     22  N   UNL     1       4.121   1.286  18.465  0.00  0.00    +0.000 N 
ATOM     23  H   UNL     1       4.193   1.272  17.443  0.00  0.00    +0.000 HD
BRANCH  22  24
ATOM     24  O   UNL     1       4.798   0.243  19.141  0.00  0.00    +0.000 OA
ATOM     25  H   UNL     1       4.997   0.639  20.017  0.00  0.00    +0.000 HD
ENDBRANCH  22  24
ENDBRANCH  18  20
BRANCH  18  26
ATOM     26  S   UNL     1       1.533   3.394  18.444  0.00  0.00    +0.000 S 
ATOM     27  C   UNL     1       0.925   4.021  19.995  0.00  0.00    +0.000 C 
ATOM     28  O   UNL     1       0.978   4.235  17.395  0.00  0.00    +0.000 OA
ATOM     29  O   UNL     1       1.272   1.967  18.428  0.00  0.00    +0.000 OA
ENDBRANCH  18  26
ENDBRANCH  17  18
ENDBRANCH  16  17
ENDBRANCH   4  16
TORSDOF 8
ENDMDL
MODEL 6
REMARK VINA RESULT:      -8.1      2.120      3.171
REMARK  Name = 
REMARK  11 active torsions:
REMARK  status: ('A' for Active; 'I' for Inactive)
REMARK    1  A    between atoms: C_1  and  C_2
REMARK    2  A    between atoms: C_4  and  C_5
REMARK    3  A    between atoms: C_8  and  C_9
REMARK    4  A    between atoms: C_9  and  C_10
REMARK    5  A    between atoms: C_10  and  C_11
REMARK    6  A    between atoms: C_11  and  C_12
REMARK    7  A    between atoms: C_11  and  C_13
REMARK    8  A    between atoms: C_11  and  S_17
REMARK    9  A    between atoms: N_15  and  O_16
REMARK   10  A    between atoms: S_17  and  C_18
REMARK   11  A    between atoms: C_25  and  C_26
REMARK                            x       y       z     vdW  Elec       q    Type
REMARK                         _______ _______ _______ _____ _____    ______ ____
ROOT
ATOM      1  C   UNL     1       0.593   9.750  19.420  0.00  0.00    +0.000 A 
ATOM      2  C   UNL     1       1.007   9.683  18.084  0.00  0.00    +0.000 A 
ATOM      3  C   UNL     1       1.888   8.702  17.656  0.00  0.00    +0.000 A 
ATOM      4  C   UNL     1       2.445   7.792  18.557  0.00  0.00    +0.000 A 
ATOM      5  C   UNL     1       2.042   7.846  19.896  0.00  0.00    +0.000 A 
ATOM      6  C   UNL     1       1.127   8.813  20.319  0.00  0.00    +0.000 A 
ENDROOT
BRANCH   1  10
ATOM      7  C   UNL     1      -1.311  12.599  23.045  0.00  0.00    +0.000 C 
ATOM      8  C   UNL     1      -1.348  12.163  21.607  0.00  0.00    +0.000 A 
ATOM      9  C   UNL     1      -0.440  11.191  21.174  0.00  0.00    +0.000 A 
ATOM     10  C   UNL     1      -0.407  10.740  19.842  0.00  0.00    +0.000 A 
ATOM     11  C   UNL     1      -1.328  11.284  18.937  0.00  0.00    +0.000 A 
ATOM     12  C   UNL     1      -2.227  12.265  19.345  0.00  0.00    +0.000 A 
ATOM     13  C   UNL     1      -2.241  12.705  20.674  0.00  0.00    +0.000 A 
BRANCH  13  14
ATOM     14  C   UNL     1      -3.176  13.724  21.044  0.00  0.00    +0.000 C 
ATOM     15  N   UNL     1      -3.937  14.550  21.352  0.00  0.00    +0.000 NA
ENDBRANCH  13  14
ENDBRANCH   1  10
BRANCH   4  16
ATOM     16  C   UNL     1       3.431   6.747  18.096  0.00  0.00    +0.000 C 
BRANCH  16  17
ATOM     17  C   UNL     1       3.341   5.450  18.922  0.00  0.00    +0.000 C 
BRANCH  17  18
ATOM     18  C   UNL     1       4.279   4.305  18.486  0.00  0.00    +0.000 C 
ATOM     19  C   UNL     1       4.073   3.978  17.002  0.00  0.00    +0.000 C 
BRANCH  18  20
ATOM     20  C   UNL     1       5.734   4.658  18.789  0.00  0.00    +0.000 C 
ATOM     21  O   UNL     1       6.051   5.438  19.689  0.00  0.00    +0.000 OA
ATOM     22  N   UNL     1       6.704   4.022  18.043  0.00  0.00    +0.000 N 
ATOM     23  H   UNL     1       6.519   3.632  17.114  0.00  0.00    +0.000 HD
BRANCH  22  24
ATOM     24  O   UNL     1       8.032   4.457  18.272  0.00  0.00    +0.000 OA
ATOM     25  H   UNL     1       8.489   3.635  18.553  0.00  0.00    +0.000 HD
ENDBRANCH  22  24
ENDBRANCH  18  20
BRANCH  18  26
ATOM     26  S   UNL     1       3.860   2.838  19.487  0.00  0.00    +0.000 S 
ATOM     27  C   UNL     1       3.387   1.557  18.345  0.00  0.00    +0.000 C 
ATOM     28  O   UNL     1       5.077   2.394  20.147  0.00  0.00    +0.000 OA
ATOM     29  O   UNL     1       2.689   3.153  20.284  0.00  0.00    +0.000 OA
ENDBRANCH  18  26
ENDBRANCH  17  18
ENDBRANCH  16  17
ENDBRANCH   4  16
TORSDOF 8
ENDMDL
MODEL 7
REMARK VINA RESULT:      -8.1      1.302      2.425
REMARK  Name = 
REMARK  11 active torsions:
REMARK  status: ('A' for Active; 'I' for Inactive)
REMARK    1  A    between atoms: C_1  and  C_2
REMARK    2  A    between atoms: C_4  and  C_5
REMARK    3  A    between atoms: C_8  and  C_9
REMARK    4  A    between atoms: C_9  and  C_10
REMARK    5  A    between atoms: C_10  and  C_11
REMARK    6  A    between atoms: C_11  and  C_12
REMARK    7  A    between atoms: C_11  and  C_13
REMARK    8  A    between atoms: C_11  and  S_17
REMARK    9  A    between atoms: N_15  and  O_16
REMARK   10  A    between atoms: S_17  and  C_18
REMARK   11  A    between atoms: C_25  and  C_26
REMARK                            x       y       z     vdW  Elec       q    Type
REMARK                         _______ _______ _______ _____ _____    ______ ____
ROOT
ATOM      1  C   UNL     1       1.430   8.523  20.070  0.00  0.00    +0.000 A 
ATOM      2  C   UNL     1       1.827   8.787  18.754  0.00  0.00    +0.000 A 
ATOM      3  C   UNL     1       2.415   7.804  17.973  0.00  0.00    +0.000 A 
ATOM      4  C   UNL     1       2.692   6.539  18.497  0.00  0.00    +0.000 A 
ATOM      5  C   UNL     1       2.302   6.260  19.811  0.00  0.00    +0.000 A 
ATOM      6  C   UNL     1       1.678   7.241  20.585  0.00  0.00    +0.000 A 
ENDROOT
BRANCH   1  10
ATOM      7  C   UNL     1      -0.248  13.208  20.426  0.00  0.00    +0.000 C 
ATOM      8  C   UNL     1      -0.118  11.845  21.044  0.00  0.00    +0.000 A 
ATOM      9  C   UNL     1       0.576  10.851  20.347  0.00  0.00    +0.000 A 
ATOM     10  C   UNL     1       0.731   9.548  20.857  0.00  0.00    +0.000 A 
ATOM     11  C   UNL     1       0.174   9.260  22.110  0.00  0.00    +0.000 A 
ATOM     12  C   UNL     1      -0.536  10.230  22.811  0.00  0.00    +0.000 A 
ATOM     13  C   UNL     1      -0.683  11.519  22.284  0.00  0.00    +0.000 A 
BRANCH  13  14
ATOM     14  C   UNL     1      -1.433  12.480  23.036  0.00  0.00    +0.000 C 
ATOM     15  N   UNL     1      -2.035  13.265  23.650  0.00  0.00    +0.000 NA
ENDBRANCH  13  14
ENDBRANCH   1  10
BRANCH   4  16
ATOM     16  C   UNL     1       3.364   5.480  17.657  0.00  0.00    +0.000 C 
BRANCH  16  17
ATOM     17  C   UNL     1       4.593   6.020  16.903  0.00  0.00    +0.000 C 
BRANCH  17  18
ATOM     18  C   UNL     1       5.968   5.579  17.446  0.00  0.00    +0.000 C 
ATOM     19  C   UNL     1       6.875   6.796  17.661  0.00  0.00    +0.000 C 
BRANCH  18  20
ATOM     20  C   UNL     1       5.802   4.766  18.730  0.00  0.00    +0.000 C 
ATOM     21  O   UNL     1       6.055   5.231  19.843  0.00  0.00    +0.000 OA
ATOM     22  N   UNL     1       5.300   3.489  18.606  0.00  0.00    +0.000 N 
ATOM     23  H   UNL     1       5.371   2.949  17.737  0.00  0.00    +0.000 HD
BRANCH  22  24
ATOM     24  O   UNL     1       5.267   2.727  19.799  0.00  0.00    +0.000 OA
ATOM     25  H   UNL     1       5.891   3.208  20.385  0.00  0.00    +0.000 HD
ENDBRANCH  22  24
ENDBRANCH  18  20
BRANCH  18  26
ATOM     26  S   UNL     1       6.725   4.478  16.204  0.00  0.00    +0.000 S 
ATOM     27  C   UNL     1       6.996   5.462  14.745  0.00  0.00    +0.000 C 
ATOM     28  O   UNL     1       8.032   4.084  16.704  0.00  0.00    +0.000 OA
ATOM     29  O   UNL     1       5.756   3.455  15.855  0.00  0.00    +0.000 OA
ENDBRANCH  18  26
ENDBRANCH  17  18
ENDBRANCH  16  17
ENDBRANCH   4  16
TORSDOF 8
ENDMDL
MODEL 8
REMARK VINA RESULT:      -8.1      1.677      2.857
REMARK  Name = 
REMARK  11 active torsions:
REMARK  status: ('A' for Active; 'I' for Inactive)
REMARK    1  A    between atoms: C_1  and  C_2
REMARK    2  A    between atoms: C_4  and  C_5
REMARK    3  A    between atoms: C_8  and  C_9
REMARK    4  A    between atoms: C_9  and  C_10
REMARK    5  A    between atoms: C_10  and  C_11
REMARK    6  A    between atoms: C_11  and  C_12
REMARK    7  A    between atoms: C_11  and  C_13
REMARK    8  A    between atoms: C_11  and  S_17
REMARK    9  A    between atoms: N_15  and  O_16
REMARK   10  A    between atoms: S_17  and  C_18
REMARK   11  A    between atoms: C_25  and  C_26
REMARK                            x       y       z     vdW  Elec       q    Type
REMARK                         _______ _______ _______ _____ _____    ______ ____
ROOT
ATOM      1  C   UNL     1       1.466   8.115  20.371  0.00  0.00    +0.000 A 
ATOM      2  C   UNL     1       2.081   8.401  19.147  0.00  0.00    +0.000 A 
ATOM      3  C   UNL     1       2.823   7.440  18.477  0.00  0.00    +0.000 A 
ATOM      4  C   UNL     1       3.038   6.178  19.035  0.00  0.00    +0.000 A 
ATOM      5  C   UNL     1       2.430   5.877  20.259  0.00  0.00    +0.000 A 
ATOM      6  C   UNL     1       1.653   6.834  20.916  0.00  0.00    +0.000 A 
ENDROOT
BRANCH   1  10
ATOM      7  C   UNL     1      -1.560  12.060  19.957  0.00  0.00    +0.000 C 
ATOM      8  C   UNL     1      -0.893  11.045  20.844  0.00  0.00    +0.000 A 
ATOM      9  C   UNL     1      -0.039  10.101  20.264  0.00  0.00    +0.000 A 
ATOM     10  C   UNL     1       0.612   9.115  21.027  0.00  0.00    +0.000 A 
ATOM     11  C   UNL     1       0.396   9.101  22.412  0.00  0.00    +0.000 A 
ATOM     12  C   UNL     1      -0.464  10.020  23.004  0.00  0.00    +0.000 A 
ATOM     13  C   UNL     1      -1.107  10.991  22.227  0.00  0.00    +0.000 A 
BRANCH  13  14
ATOM     14  C   UNL     1      -1.992  11.908  22.879  0.00  0.00    +0.000 C 
ATOM     15  N   UNL     1      -2.710  12.651  23.417  0.00  0.00    +0.000 NA
ENDBRANCH  13  14
ENDBRANCH   1  10
BRANCH   4  16
ATOM     16  C   UNL     1       3.874   5.145  18.321  0.00  0.00    +0.000 C 
BRANCH  16  17
ATOM     17  C   UNL     1       4.704   5.750  17.175  0.00  0.00    +0.000 C 
BRANCH  17  18
ATOM     18  C   UNL     1       6.219   5.882  17.433  0.00  0.00    +0.000 C 
ATOM     19  C   UNL     1       6.661   7.344  17.295  0.00  0.00    +0.000 C 
BRANCH  18  20
ATOM     20  C   UNL     1       6.582   5.311  18.803  0.00  0.00    +0.000 C 
ATOM     21  O   UNL     1       5.973   4.366  19.307  0.00  0.00    +0.000 OA
ATOM     22  N   UNL     1       7.669   5.863  19.447  0.00  0.00    +0.000 N 
ATOM     23  H   UNL     1       8.004   6.812  19.252  0.00  0.00    +0.000 HD
BRANCH  22  24
ATOM     24  O   UNL     1       7.905   5.389  20.760  0.00  0.00    +0.000 OA
ATOM     25  H   UNL     1       7.205   5.832  21.286  0.00  0.00    +0.000 HD
ENDBRANCH  22  24
ENDBRANCH  18  20
BRANCH  18  26
ATOM     26  S   UNL     1       7.083   4.873  16.182  0.00  0.00    +0.000 S 
ATOM     27  C   UNL     1       5.905   3.679  15.585  0.00  0.00    +0.000 C 
ATOM     28  O   UNL     1       7.412   5.745  15.065  0.00  0.00    +0.000 OA
ATOM     29  O   UNL     1       8.140   4.135  16.847  0.00  0.00    +0.000 OA
ENDBRANCH  18  26
ENDBRANCH  17  18
ENDBRANCH  16  17
ENDBRANCH   4  16
TORSDOF 8
ENDMDL
MODEL 9
REMARK VINA RESULT:      -8.0      1.703      3.112
REMARK  Name = 
REMARK  11 active torsions:
REMARK  status: ('A' for Active; 'I' for Inactive)
REMARK    1  A    between atoms: C_1  and  C_2
REMARK    2  A    between atoms: C_4  and  C_5
REMARK    3  A    between atoms: C_8  and  C_9
REMARK    4  A    between atoms: C_9  and  C_10
REMARK    5  A    between atoms: C_10  and  C_11
REMARK    6  A    between atoms: C_11  and  C_12
REMARK    7  A    between atoms: C_11  and  C_13
REMARK    8  A    between atoms: C_11  and  S_17
REMARK    9  A    between atoms: N_15  and  O_16
REMARK   10  A    between atoms: S_17  and  C_18
REMARK   11  A    between atoms: C_25  and  C_26
REMARK                            x       y       z     vdW  Elec       q    Type
REMARK                         _______ _______ _______ _____ _____    ______ ____
ROOT
ATOM      1  C   UNL     1       1.426   8.834  19.452  0.00  0.00    +0.000 A 
ATOM      2  C   UNL     1       2.014   8.656  18.195  0.00  0.00    +0.000 A 
ATOM      3  C   UNL     1       2.756   7.522  17.905  0.00  0.00    +0.000 A 
ATOM      4  C   UNL     1       2.998   6.551  18.880  0.00  0.00    +0.000 A 
ATOM      5  C   UNL     1       2.417   6.714  20.143  0.00  0.00    +0.000 A 
ATOM      6  C   UNL     1       1.641   7.841  20.422  0.00  0.00    +0.000 A 
ENDROOT
BRANCH   1  10
ATOM      7  C   UNL     1      -1.397  11.400  22.667  0.00  0.00    +0.000 C 
ATOM      8  C   UNL     1      -0.808  11.286  21.289  0.00  0.00    +0.000 A 
ATOM      9  C   UNL     1      -0.022  10.170  20.982  0.00  0.00    +0.000 A 
ATOM     10  C   UNL     1       0.571   9.999  19.717  0.00  0.00    +0.000 A 
ATOM     11  C   UNL     1       0.347  10.982  18.744  0.00  0.00    +0.000 A 
ATOM     12  C   UNL     1      -0.417  12.107  19.036  0.00  0.00    +0.000 A 
ATOM     13  C   UNL     1      -0.995  12.263  20.302  0.00  0.00    +0.000 A 
BRANCH  13  14
ATOM     14  C   UNL     1      -1.763  13.443  20.560  0.00  0.00    +0.000 C 
ATOM     15  N   UNL     1      -2.380  14.408  20.771  0.00  0.00    +0.000 NA
ENDBRANCH  13  14
ENDBRANCH   1  10
BRANCH   4  16
ATOM     16  C   UNL     1       3.834   5.333  18.574  0.00  0.00    +0.000 C 
BRANCH  16  17
ATOM     17  C   UNL     1       4.697   5.515  17.311  0.00  0.00    +0.000 C 
BRANCH  17  18
ATOM     18  C   UNL     1       6.195   5.793  17.550  0.00  0.00    +0.000 C 
ATOM     19  C   UNL     1       6.491   7.292  17.412  0.00  0.00    +0.000 C 
BRANCH  18  20
ATOM     20  C   UNL     1       6.631   5.256  18.913  0.00  0.00    +0.000 C 
ATOM     21  O   UNL     1       6.028   4.347  19.488  0.00  0.00    +0.000 OA
ATOM     22  N   UNL     1       7.774   5.793  19.465  0.00  0.00    +0.000 N 
ATOM     23  H   UNL     1       8.124   6.724  19.215  0.00  0.00    +0.000 HD
BRANCH  22  24
ATOM     24  O   UNL     1       8.083   5.354  20.775  0.00  0.00    +0.000 OA
ATOM     25  H   UNL     1       7.353   4.729  20.977  0.00  0.00    +0.000 HD
ENDBRANCH  22  24
ENDBRANCH  18  20
BRANCH  18  26
ATOM     26  S   UNL     1       7.136   4.877  16.282  0.00  0.00    +0.000 S 
ATOM     27  C   UNL     1       5.995   3.744  15.518  0.00  0.00    +0.000 C 
ATOM     28  O   UNL     1       7.541   5.830  15.262  0.00  0.00    +0.000 OA
ATOM     29  O   UNL     1       8.143   4.079  16.956  0.00  0.00    +0.000 OA
ENDBRANCH  18  26
ENDBRANCH  17  18
ENDBRANCH  16  17
ENDBRANCH   4  16
TORSDOF 8
ENDMDL
