MODEL 1
REMARK VINA RESULT:      -8.2      0.000      0.000
REMARK  Name = 
REMARK  6 active torsions:
REMARK  status: ('A' for Active; 'I' for Inactive)
REMARK    1  A    between atoms: C_2  and  C_3
REMARK    2  A    between atoms: C_6  and  N_7
REMARK    3  A    between atoms: C_12  and  O_13
REMARK    4  A    between atoms: O_13  and  C_14
REMARK    5  A    between atoms: C_17  and  C_18
REMARK    6  A    between atoms: C_21  and  C_22
REMARK                            x       y       z     vdW  Elec       q    Type
REMARK                         _______ _______ _______ _____ _____    ______ ____
ROOT
ATOM      1  O   UNL     1       0.734  11.578  18.854  0.00  0.00    +0.000 OA
ENDROOT
BRANCH   1   7
ATOM      2  N   UNL     1       4.051  14.681  17.721  0.00  0.00    +0.000 N 
ATOM      3  C   UNL     1       3.248  14.090  18.706  0.00  0.00    +0.000 A 
ATOM      4  N   UNL     1       3.247  14.587  19.949  0.00  0.00    +0.000 NA
ATOM      5  C   UNL     1       2.440  14.005  20.856  0.00  0.00    +0.000 A 
ATOM      6  C   UNL     1       1.609  12.964  20.553  0.00  0.00    +0.000 A 
ATOM      7  C   UNL     1       1.658  12.544  19.250  0.00  0.00    +0.000 A 
ATOM      8  N   UNL     1       2.499  13.055  18.325  0.00  0.00    +0.000 NA
ATOM      9  H   UNL     1       4.028  14.069  16.915  0.00  0.00    +0.000 HD
BRANCH   2  13
ATOM     10  C   UNL     1       7.877  16.248  18.534  0.00  0.00    +0.000 A 
ATOM     11  C   UNL     1       6.744  17.006  18.823  0.00  0.00    +0.000 A 
ATOM     12  C   UNL     1       5.481  16.490  18.547  0.00  0.00    +0.000 A 
ATOM     13  C   UNL     1       5.326  15.227  17.962  0.00  0.00    +0.000 A 
ATOM     14  C   UNL     1       6.468  14.467  17.691  0.00  0.00    +0.000 A 
ATOM     15  C   UNL     1       7.741  14.981  17.961  0.00  0.00    +0.000 A 
BRANCH  10  17
ATOM     16  N   UNL     1      10.242  17.159  19.083  0.00  0.00    +0.000 NA
ATOM     17  C   UNL     1       9.176  16.766  18.837  0.00  0.00    +0.000 C 
ENDBRANCH  10  17
ENDBRANCH   2  13
ENDBRANCH   1   7
BRANCH   1  18
ATOM     18  C   UNL     1       1.155  10.264  18.923  0.00  0.00    +0.000 A 
ATOM     19  C   UNL     1       1.815   9.651  17.857  0.00  0.00    +0.000 A 
ATOM     20  C   UNL     1       2.316   8.356  17.973  0.00  0.00    +0.000 A 
ATOM     21  C   UNL     1       2.192   7.621  19.158  0.00  0.00    +0.000 A 
ATOM     22  C   UNL     1       1.424   8.213  20.186  0.00  0.00    +0.000 A 
ATOM     23  C   UNL     1       0.894   9.508  20.064  0.00  0.00    +0.000 A 
ATOM     24 CL   UNL     1      -0.082  10.121  21.350  0.00  0.00    +0.000 Cl
BRANCH  21  25
ATOM     25  C   UNL     1       2.810   6.275  19.312  0.00  0.00    +0.000 A 
ATOM     26  C   UNL     1       2.259   5.373  20.250  0.00  0.00    +0.000 A 
ATOM     27  C   UNL     1       2.798   4.103  20.468  0.00  0.00    +0.000 A 
ATOM     28  C   UNL     1       3.896   3.677  19.729  0.00  0.00    +0.000 A 
ATOM     29  C   UNL     1       4.459   4.527  18.782  0.00  0.00    +0.000 A 
ATOM     30  C   UNL     1       3.942   5.816  18.588  0.00  0.00    +0.000 A 
ATOM     31 CL   UNL     1       4.847   6.788  17.470  0.00  0.00    +0.000 Cl
BRANCH  28  32
ATOM     32  C   UNL     1       4.458   2.383  19.951  0.00  0.00    +0.000 C 
ATOM     33  N   UNL     1       4.915   1.332  20.130  0.00  0.00    +0.000 NA
ENDBRANCH  28  32
ENDBRANCH  21  25
ENDBRANCH   1  18
TORSDOF 6
ENDMDL
MODEL 2
REMARK VINA RESULT:      -7.7      1.064      1.588
REMARK  Name = 
REMARK  6 active torsions:
REMARK  status: ('A' for Active; 'I' for Inactive)
REMARK    1  A    between atoms: C_2  and  C_3
REMARK    2  A    between atoms: C_6  and  N_7
REMARK    3  A    between atoms: C_12  and  O_13
REMARK    4  A    between atoms: O_13  and  C_14
REMARK    5  A    between atoms: C_17  and  C_18
REMARK    6  A    between atoms: C_21  and  C_22
REMARK                            x       y       z     vdW  Elec       q    Type
REMARK                         _______ _______ _______ _____ _____    ______ ____
ROOT
ATOM      1  O   UNL     1       0.815  11.241  18.759  0.00  0.00    +0.000 OA
ENDROOT
BRANCH   1   7
ATOM      2  N   UNL     1       4.123  14.383  17.709  0.00  0.00    +0.000 N 
ATOM      3  C   UNL     1       3.299  13.786  18.673  0.00  0.00    +0.000 A 
ATOM      4  N   UNL     1       3.256  14.287  19.914  0.00  0.00    +0.000 NA
ATOM      5  C   UNL     1       2.431  13.698  20.799  0.00  0.00    +0.000 A 
ATOM      6  C   UNL     1       1.623  12.645  20.477  0.00  0.00    +0.000 A 
ATOM      7  C   UNL     1       1.715  12.220  19.178  0.00  0.00    +0.000 A 
ATOM      8  N   UNL     1       2.575  12.739  18.276  0.00  0.00    +0.000 NA
ATOM      9  H   UNL     1       4.131  13.768  16.906  0.00  0.00    +0.000 HD
BRANCH   2  13
ATOM     10  C   UNL     1       7.883  16.139  18.439  0.00  0.00    +0.000 A 
ATOM     11  C   UNL     1       7.812  14.846  17.924  0.00  0.00    +0.000 A 
ATOM     12  C   UNL     1       6.569  14.263  17.691  0.00  0.00    +0.000 A 
ATOM     13  C   UNL     1       5.382  14.947  17.984  0.00  0.00    +0.000 A 
ATOM     14  C   UNL     1       5.463  16.251  18.484  0.00  0.00    +0.000 A 
ATOM     15  C   UNL     1       6.709  16.841  18.726  0.00  0.00    +0.000 A 
BRANCH  10  17
ATOM     16  N   UNL     1      10.195  17.253  18.809  0.00  0.00    +0.000 NA
ATOM     17  C   UNL     1       9.158  16.748  18.659  0.00  0.00    +0.000 C 
ENDBRANCH  10  17
ENDBRANCH   2  13
ENDBRANCH   1   7
BRANCH   1  18
ATOM     18  C   UNL     1       1.225   9.930  18.909  0.00  0.00    +0.000 A 
ATOM     19  C   UNL     1       1.895   9.253  17.888  0.00  0.00    +0.000 A 
ATOM     20  C   UNL     1       2.385   7.963  18.084  0.00  0.00    +0.000 A 
ATOM     21  C   UNL     1       2.239   7.298  19.307  0.00  0.00    +0.000 A 
ATOM     22  C   UNL     1       1.462   7.952  20.289  0.00  0.00    +0.000 A 
ATOM     23  C   UNL     1       0.943   9.242  20.086  0.00  0.00    +0.000 A 
ATOM     24 CL   UNL     1      -0.045   9.933  21.322  0.00  0.00    +0.000 Cl
BRANCH  21  25
ATOM     25  C   UNL     1       2.845   5.958  19.546  0.00  0.00    +0.000 A 
ATOM     26  C   UNL     1       4.203   5.753  19.215  0.00  0.00    +0.000 A 
ATOM     27  C   UNL     1       4.833   4.519  19.386  0.00  0.00    +0.000 A 
ATOM     28  C   UNL     1       4.131   3.448  19.928  0.00  0.00    +0.000 A 
ATOM     29  C   UNL     1       2.796   3.611  20.285  0.00  0.00    +0.000 A 
ATOM     30  C   UNL     1       2.151   4.840  20.079  0.00  0.00    +0.000 A 
ATOM     31 CL   UNL     1       0.455   4.827  20.451  0.00  0.00    +0.000 Cl
BRANCH  28  32
ATOM     32  C   UNL     1       4.766   2.181  20.100  0.00  0.00    +0.000 C 
ATOM     33  N   UNL     1       5.281   1.150  20.239  0.00  0.00    +0.000 NA
ENDBRANCH  28  32
ENDBRANCH  21  25
ENDBRANCH   1  18
TORSDOF 6
ENDMDL
MODEL 3
REMARK VINA RESULT:      -7.6      5.050      7.574
REMARK  Name = 
REMARK  6 active torsions:
REMARK  status: ('A' for Active; 'I' for Inactive)
REMARK    1  A    between atoms: C_2  and  C_3
REMARK    2  A    between atoms: C_6  and  N_7
REMARK    3  A    between atoms: C_12  and  O_13
REMARK    4  A    between atoms: O_13  and  C_14
REMARK    5  A    between atoms: C_17  and  C_18
REMARK    6  A    between atoms: C_21  and  C_22
REMARK                            x       y       z     vdW  Elec       q    Type
REMARK                         _______ _______ _______ _____ _____    ______ ____
ROOT
ATOM      1  O   UNL     1       1.087  10.882  18.713  0.00  0.00    +0.000 OA
ENDROOT
BRANCH   1   7
ATOM      2  N   UNL     1      -2.085  13.434  21.024  0.00  0.00    +0.000 N 
ATOM      3  C   UNL     1      -1.804  12.459  20.058  0.00  0.00    +0.000 A 
ATOM      4  N   UNL     1      -2.788  11.992  19.279  0.00  0.00    +0.000 NA
ATOM      5  C   UNL     1      -2.468  11.075  18.347  0.00  0.00    +0.000 A 
ATOM      6  C   UNL     1      -1.191  10.635  18.144  0.00  0.00    +0.000 A 
ATOM      7  C   UNL     1      -0.248  11.192  18.968  0.00  0.00    +0.000 A 
ATOM      8  N   UNL     1      -0.535  12.063  19.958  0.00  0.00    +0.000 NA
ATOM      9  H   UNL     1      -1.257  13.529  21.597  0.00  0.00    +0.000 HD
BRANCH   2  13
ATOM     10  C   UNL     1      -5.688  13.503  23.207  0.00  0.00    +0.000 A 
ATOM     11  C   UNL     1      -5.561  14.283  22.060  0.00  0.00    +0.000 A 
ATOM     12  C   UNL     1      -4.367  14.266  21.344  0.00  0.00    +0.000 A 
ATOM     13  C   UNL     1      -3.279  13.492  21.767  0.00  0.00    +0.000 A 
ATOM     14  C   UNL     1      -3.422  12.699  22.911  0.00  0.00    +0.000 A 
ATOM     15  C   UNL     1      -4.617  12.715  23.638  0.00  0.00    +0.000 A 
BRANCH  10  17
ATOM     16  N   UNL     1      -7.916  13.526  24.533  0.00  0.00    +0.000 NA
ATOM     17  C   UNL     1      -6.921  13.501  23.933  0.00  0.00    +0.000 C 
ENDBRANCH  10  17
ENDBRANCH   2  13
ENDBRANCH   1   7
BRANCH   1  18
ATOM     18  C   UNL     1       1.460   9.568  18.922  0.00  0.00    +0.000 A 
ATOM     19  C   UNL     1       1.759   8.715  17.858  0.00  0.00    +0.000 A 
ATOM     20  C   UNL     1       2.223   7.421  18.085  0.00  0.00    +0.000 A 
ATOM     21  C   UNL     1       2.419   6.925  19.380  0.00  0.00    +0.000 A 
ATOM     22  C   UNL     1       2.005   7.760  20.441  0.00  0.00    +0.000 A 
ATOM     23  C   UNL     1       1.513   9.056  20.216  0.00  0.00    +0.000 A 
ATOM     24 CL   UNL     1       0.975   9.978  21.575  0.00  0.00    +0.000 Cl
BRANCH  21  25
ATOM     25  C   UNL     1       3.004   5.576  19.620  0.00  0.00    +0.000 A 
ATOM     26  C   UNL     1       4.374   5.366  19.347  0.00  0.00    +0.000 A 
ATOM     27  C   UNL     1       4.987   4.124  19.523  0.00  0.00    +0.000 A 
ATOM     28  C   UNL     1       4.253   3.049  20.013  0.00  0.00    +0.000 A 
ATOM     29  C   UNL     1       2.905   3.217  20.313  0.00  0.00    +0.000 A 
ATOM     30  C   UNL     1       2.278   4.454  20.101  0.00  0.00    +0.000 A 
ATOM     31 CL   UNL     1       0.568   4.448  20.397  0.00  0.00    +0.000 Cl
BRANCH  28  32
ATOM     32  C   UNL     1       4.870   1.773  20.189  0.00  0.00    +0.000 C 
ATOM     33  N   UNL     1       5.372   0.737  20.332  0.00  0.00    +0.000 NA
ENDBRANCH  28  32
ENDBRANCH  21  25
ENDBRANCH   1  18
TORSDOF 6
ENDMDL
MODEL 4
REMARK VINA RESULT:      -7.5      2.189      2.701
REMARK  Name = 
REMARK  6 active torsions:
REMARK  status: ('A' for Active; 'I' for Inactive)
REMARK    1  A    between atoms: C_2  and  C_3
REMARK    2  A    between atoms: C_6  and  N_7
REMARK    3  A    between atoms: C_12  and  O_13
REMARK    4  A    between atoms: O_13  and  C_14
REMARK    5  A    between atoms: C_17  and  C_18
REMARK    6  A    between atoms: C_21  and  C_22
REMARK                            x       y       z     vdW  Elec       q    Type
REMARK                         _______ _______ _______ _____ _____    ______ ____
ROOT
ATOM      1  O   UNL     1      -0.332  10.909  20.541  0.00  0.00    +0.000 OA
ENDROOT
BRANCH   1   7
ATOM      2  N   UNL     1       3.048  13.773  19.029  0.00  0.00    +0.000 N 
ATOM      3  C   UNL     1       1.829  13.606  19.700  0.00  0.00    +0.000 A 
ATOM      4  N   UNL     1       1.126  14.681  20.080  0.00  0.00    +0.000 NA
ATOM      5  C   UNL     1      -0.051  14.474  20.697  0.00  0.00    +0.000 A 
ATOM      6  C   UNL     1      -0.567  13.228  20.917  0.00  0.00    +0.000 A 
ATOM      7  C   UNL     1       0.208  12.192  20.467  0.00  0.00    +0.000 A 
ATOM      8  N   UNL     1       1.424  12.352  19.903  0.00  0.00    +0.000 NA
ATOM      9  H   UNL     1       3.483  12.861  18.976  0.00  0.00    +0.000 HD
BRANCH   2  13
ATOM     10  C   UNL     1       5.870  16.813  19.771  0.00  0.00    +0.000 A 
ATOM     11  C   UNL     1       5.580  15.882  20.766  0.00  0.00    +0.000 A 
ATOM     12  C   UNL     1       4.641  14.883  20.523  0.00  0.00    +0.000 A 
ATOM     13  C   UNL     1       3.964  14.806  19.299  0.00  0.00    +0.000 A 
ATOM     14  C   UNL     1       4.275  15.735  18.300  0.00  0.00    +0.000 A 
ATOM     15  C   UNL     1       5.214  16.744  18.539  0.00  0.00    +0.000 A 
BRANCH  10  17
ATOM     16  N   UNL     1       7.666  18.630  20.212  0.00  0.00    +0.000 NA
ATOM     17  C   UNL     1       6.851  17.827  20.010  0.00  0.00    +0.000 C 
ENDBRANCH  10  17
ENDBRANCH   2  13
ENDBRANCH   1   7
BRANCH   1  18
ATOM     18  C   UNL     1       0.385   9.906  19.918  0.00  0.00    +0.000 A 
ATOM     19  C   UNL     1       0.464   9.820  18.526  0.00  0.00    +0.000 A 
ATOM     20  C   UNL     1       1.265   8.861  17.911  0.00  0.00    +0.000 A 
ATOM     21  C   UNL     1       2.031   7.954  18.654  0.00  0.00    +0.000 A 
ATOM     22  C   UNL     1       1.852   7.982  20.055  0.00  0.00    +0.000 A 
ATOM     23  C   UNL     1       1.025   8.931  20.679  0.00  0.00    +0.000 A 
ATOM     24 CL   UNL     1       0.824   8.845  22.392  0.00  0.00    +0.000 Cl
BRANCH  21  25
ATOM     25  C   UNL     1       2.959   6.992  17.997  0.00  0.00    +0.000 A 
ATOM     26  C   UNL     1       4.060   7.494  17.267  0.00  0.00    +0.000 A 
ATOM     27  C   UNL     1       4.958   6.656  16.603  0.00  0.00    +0.000 A 
ATOM     28  C   UNL     1       4.803   5.275  16.673  0.00  0.00    +0.000 A 
ATOM     29  C   UNL     1       3.743   4.738  17.397  0.00  0.00    +0.000 A 
ATOM     30  C   UNL     1       2.818   5.580  18.033  0.00  0.00    +0.000 A 
ATOM     31 CL   UNL     1       1.486   4.747  18.772  0.00  0.00    +0.000 Cl
BRANCH  28  32
ATOM     32  C   UNL     1       5.713   4.411  15.992  0.00  0.00    +0.000 C 
ATOM     33  N   UNL     1       6.451   3.708  15.437  0.00  0.00    +0.000 NA
ENDBRANCH  28  32
ENDBRANCH  21  25
ENDBRANCH   1  18
TORSDOF 6
ENDMDL
MODEL 5
REMARK VINA RESULT:      -7.3      5.003     11.189
REMARK  Name = 
REMARK  6 active torsions:
REMARK  status: ('A' for Active; 'I' for Inactive)
REMARK    1  A    between atoms: C_2  and  C_3
REMARK    2  A    between atoms: C_6  and  N_7
REMARK    3  A    between atoms: C_12  and  O_13
REMARK    4  A    between atoms: O_13  and  C_14
REMARK    5  A    between atoms: C_17  and  C_18
REMARK    6  A    between atoms: C_21  and  C_22
REMARK                            x       y       z     vdW  Elec       q    Type
REMARK                         _______ _______ _______ _____ _____    ______ ____
ROOT
ATOM      1  O   UNL     1       8.788   9.738  17.517  0.00  0.00    +0.000 OA
ENDROOT
BRANCH   1   7
ATOM      2  N   UNL     1       5.511   6.543  16.529  0.00  0.00    +0.000 N 
ATOM      3  C   UNL     1       6.566   6.965  17.350  0.00  0.00    +0.000 A 
ATOM      4  N   UNL     1       7.040   6.146  18.297  0.00  0.00    +0.000 NA
ATOM      5  C   UNL     1       8.070   6.582  19.045  0.00  0.00    +0.000 A 
ATOM      6  C   UNL     1       8.666   7.797  18.854  0.00  0.00    +0.000 A 
ATOM      7  C   UNL     1       8.132   8.552  17.844  0.00  0.00    +0.000 A 
ATOM      8  N   UNL     1       7.058   8.181  17.114  0.00  0.00    +0.000 NA
ATOM      9  H   UNL     1       5.206   7.351  16.002  0.00  0.00    +0.000 HD
BRANCH   2  13
ATOM     10  C   UNL     1       2.364   4.121  17.936  0.00  0.00    +0.000 A 
ATOM     11  C   UNL     1       3.383   3.555  17.173  0.00  0.00    +0.000 A 
ATOM     12  C   UNL     1       4.418   4.358  16.702  0.00  0.00    +0.000 A 
ATOM     13  C   UNL     1       4.445   5.733  16.963  0.00  0.00    +0.000 A 
ATOM     14  C   UNL     1       3.427   6.289  17.745  0.00  0.00    +0.000 A 
ATOM     15  C   UNL     1       2.380   5.490  18.217  0.00  0.00    +0.000 A 
BRANCH  10  17
ATOM     16  N   UNL     1       0.450   2.642  18.872  0.00  0.00    +0.000 NA
ATOM     17  C   UNL     1       1.310   3.295  18.440  0.00  0.00    +0.000 C 
ENDBRANCH  10  17
ENDBRANCH   2  13
ENDBRANCH   1   7
BRANCH   1  18
ATOM     18  C   UNL     1       8.872  10.685  18.519  0.00  0.00    +0.000 A 
ATOM     19  C   UNL     1       9.371  10.368  19.784  0.00  0.00    +0.000 A 
ATOM     20  C   UNL     1       9.537  11.352  20.756  0.00  0.00    +0.000 A 
ATOM     21  C   UNL     1       9.226  12.695  20.507  0.00  0.00    +0.000 A 
ATOM     22  C   UNL     1       8.619  12.978  19.264  0.00  0.00    +0.000 A 
ATOM     23  C   UNL     1       8.424  11.984  18.289  0.00  0.00    +0.000 A 
ATOM     24 CL   UNL     1       7.618  12.416  16.825  0.00  0.00    +0.000 Cl
BRANCH  21  25
ATOM     25  C   UNL     1       9.493  13.759  21.514  0.00  0.00    +0.000 A 
ATOM     26  C   UNL     1       8.728  13.784  22.701  0.00  0.00    +0.000 A 
ATOM     27  C   UNL     1       8.903  14.765  23.680  0.00  0.00    +0.000 A 
ATOM     28  C   UNL     1       9.878  15.744  23.518  0.00  0.00    +0.000 A 
ATOM     29  C   UNL     1      10.667  15.745  22.372  0.00  0.00    +0.000 A 
ATOM     30  C   UNL     1      10.467  14.783  21.371  0.00  0.00    +0.000 A 
ATOM     31 CL   UNL     1      11.441  15.015  19.953  0.00  0.00    +0.000 Cl
BRANCH  28  32
ATOM     32  C   UNL     1      10.059  16.755  24.510  0.00  0.00    +0.000 C 
ATOM     33  N   UNL     1      10.204  17.576  25.316  0.00  0.00    +0.000 NA
ENDBRANCH  28  32
ENDBRANCH  21  25
ENDBRANCH   1  18
TORSDOF 6
ENDMDL
MODEL 6
REMARK VINA RESULT:      -7.3      3.972      9.615
REMARK  Name = 
REMARK  6 active torsions:
REMARK  status: ('A' for Active; 'I' for Inactive)
REMARK    1  A    between atoms: C_2  and  C_3
REMARK    2  A    between atoms: C_6  and  N_7
REMARK    3  A    between atoms: C_12  and  O_13
REMARK    4  A    between atoms: O_13  and  C_14
REMARK    5  A    between atoms: C_17  and  C_18
REMARK    6  A    between atoms: C_21  and  C_22
REMARK                            x       y       z     vdW  Elec       q    Type
REMARK                         _______ _______ _______ _____ _____    ______ ____
ROOT
ATOM      1  O   UNL     1       0.950   7.256  21.264  0.00  0.00    +0.000 OA
ENDROOT
BRANCH   1   7
ATOM      2  N   UNL     1       4.537   6.107  18.484  0.00  0.00    +0.000 N 
ATOM      3  C   UNL     1       3.338   5.739  19.107  0.00  0.00    +0.000 A 
ATOM      4  N   UNL     1       2.921   4.468  19.048  0.00  0.00    +0.000 NA
ATOM      5  C   UNL     1       1.777   4.153  19.683  0.00  0.00    +0.000 A 
ATOM      6  C   UNL     1       1.053   5.060  20.405  0.00  0.00    +0.000 A 
ATOM      7  C   UNL     1       1.573   6.327  20.432  0.00  0.00    +0.000 A 
ATOM      8  N   UNL     1       2.680   6.700  19.756  0.00  0.00    +0.000 NA
ATOM      9  H   UNL     1       4.586   7.118  18.510  0.00  0.00    +0.000 HD
BRANCH   2  13
ATOM     10  C   UNL     1       5.808   4.481  14.810  0.00  0.00    +0.000 A 
ATOM     11  C   UNL     1       5.760   3.672  15.944  0.00  0.00    +0.000 A 
ATOM     12  C   UNL     1       5.348   4.213  17.159  0.00  0.00    +0.000 A 
ATOM     13  C   UNL     1       4.998   5.565  17.270  0.00  0.00    +0.000 A 
ATOM     14  C   UNL     1       5.033   6.364  16.122  0.00  0.00    +0.000 A 
ATOM     15  C   UNL     1       5.450   5.829  14.899  0.00  0.00    +0.000 A 
BRANCH  10  17
ATOM     16  N   UNL     1       6.543   3.497  12.527  0.00  0.00    +0.000 NA
ATOM     17  C   UNL     1       6.209   3.923  13.555  0.00  0.00    +0.000 C 
ENDBRANCH  10  17
ENDBRANCH   2  13
ENDBRANCH   1   7
BRANCH   1  18
ATOM     18  C   UNL     1       1.028   8.578  20.869  0.00  0.00    +0.000 A 
ATOM     19  C   UNL     1       1.329   8.931  19.552  0.00  0.00    +0.000 A 
ATOM     20  C   UNL     1       1.313  10.264  19.146  0.00  0.00    +0.000 A 
ATOM     21  C   UNL     1       0.986  11.300  20.029  0.00  0.00    +0.000 A 
ATOM     22  C   UNL     1       0.796  10.936  21.380  0.00  0.00    +0.000 A 
ATOM     23  C   UNL     1       0.836   9.595  21.801  0.00  0.00    +0.000 A 
ATOM     24 CL   UNL     1       0.652   9.256  23.484  0.00  0.00    +0.000 Cl
BRANCH  21  25
ATOM     25  C   UNL     1       0.878  12.713  19.571  0.00  0.00    +0.000 A 
ATOM     26  C   UNL     1       2.061  13.435  19.296  0.00  0.00    +0.000 A 
ATOM     27  C   UNL     1       2.040  14.770  18.887  0.00  0.00    +0.000 A 
ATOM     28  C   UNL     1       0.826  15.425  18.707  0.00  0.00    +0.000 A 
ATOM     29  C   UNL     1      -0.363  14.745  18.949  0.00  0.00    +0.000 A 
ATOM     30  C   UNL     1      -0.344  13.415  19.396  0.00  0.00    +0.000 A 
ATOM     31 CL   UNL     1      -1.908  12.768  19.778  0.00  0.00    +0.000 Cl
BRANCH  28  32
ATOM     32  C   UNL     1       0.797  16.791  18.296  0.00  0.00    +0.000 C 
ATOM     33  N   UNL     1       0.774  17.903  17.963  0.00  0.00    +0.000 NA
ENDBRANCH  28  32
ENDBRANCH  21  25
ENDBRANCH   1  18
TORSDOF 6
ENDMDL
MODEL 7
REMARK VINA RESULT:      -7.3      4.382      9.573
REMARK  Name = 
REMARK  6 active torsions:
REMARK  status: ('A' for Active; 'I' for Inactive)
REMARK    1  A    between atoms: C_2  and  C_3
REMARK    2  A    between atoms: C_6  and  N_7
REMARK    3  A    between atoms: C_12  and  O_13
REMARK    4  A    between atoms: O_13  and  C_14
REMARK    5  A    between atoms: C_17  and  C_18
REMARK    6  A    between atoms: C_21  and  C_22
REMARK                            x       y       z     vdW  Elec       q    Type
REMARK                         _______ _______ _______ _____ _____    ______ ____
ROOT
ATOM      1  O   UNL     1       1.189   7.152  21.323  0.00  0.00    +0.000 OA
ENDROOT
BRANCH   1   7
ATOM      2  N   UNL     1       4.702   5.858  18.513  0.00  0.00    +0.000 N 
ATOM      3  C   UNL     1       3.445   5.580  19.066  0.00  0.00    +0.000 A 
ATOM      4  N   UNL     1       2.876   4.386  18.859  0.00  0.00    +0.000 NA
ATOM      5  C   UNL     1       1.680   4.153  19.430  0.00  0.00    +0.000 A 
ATOM      6  C   UNL     1       1.049   5.064  20.231  0.00  0.00    +0.000 A 
ATOM      7  C   UNL     1       1.721   6.244  20.408  0.00  0.00    +0.000 A 
ATOM      8  N   UNL     1       2.889   6.544  19.801  0.00  0.00    +0.000 NA
ATOM      9  H   UNL     1       4.874   6.845  18.650  0.00  0.00    +0.000 HD
BRANCH   2  13
ATOM     10  C   UNL     1       5.887   4.456  14.720  0.00  0.00    +0.000 A 
ATOM     11  C   UNL     1       5.968   3.611  15.825  0.00  0.00    +0.000 A 
ATOM     12  C   UNL     1       5.584   4.078  17.079  0.00  0.00    +0.000 A 
ATOM     13  C   UNL     1       5.134   5.393  17.257  0.00  0.00    +0.000 A 
ATOM     14  C   UNL     1       5.040   6.228  16.139  0.00  0.00    +0.000 A 
ATOM     15  C   UNL     1       5.428   5.767  14.876  0.00  0.00    +0.000 A 
BRANCH  10  17
ATOM     16  N   UNL     1       6.560   3.553  12.384  0.00  0.00    +0.000 NA
ATOM     17  C   UNL     1       6.259   3.973  13.426  0.00  0.00    +0.000 C 
ENDBRANCH  10  17
ENDBRANCH   2  13
ENDBRANCH   1   7
BRANCH   1  18
ATOM     18  C   UNL     1       1.125   8.469  20.911  0.00  0.00    +0.000 A 
ATOM     19  C   UNL     1       1.205   8.817  19.561  0.00  0.00    +0.000 A 
ATOM     20  C   UNL     1       1.047  10.139  19.151  0.00  0.00    +0.000 A 
ATOM     21  C   UNL     1       0.792  11.168  20.065  0.00  0.00    +0.000 A 
ATOM     22  C   UNL     1       0.827  10.817  21.432  0.00  0.00    +0.000 A 
ATOM     23  C   UNL     1       1.012   9.489  21.852  0.00  0.00    +0.000 A 
ATOM     24 CL   UNL     1       1.100   9.168  23.547  0.00  0.00    +0.000 Cl
BRANCH  21  25
ATOM     25  C   UNL     1       0.529  12.565  19.617  0.00  0.00    +0.000 A 
ATOM     26  C   UNL     1      -0.686  13.184  19.985  0.00  0.00    +0.000 A 
ATOM     27  C   UNL     1      -1.013  14.480  19.582  0.00  0.00    +0.000 A 
ATOM     28  C   UNL     1      -0.116  15.219  18.818  0.00  0.00    +0.000 A 
ATOM     29  C   UNL     1       1.100  14.654  18.449  0.00  0.00    +0.000 A 
ATOM     30  C   UNL     1       1.415  13.339  18.821  0.00  0.00    +0.000 A 
ATOM     31 CL   UNL     1       2.908  12.748  18.161  0.00  0.00    +0.000 Cl
BRANCH  28  32
ATOM     32  C   UNL     1      -0.446  16.543  18.396  0.00  0.00    +0.000 C 
ATOM     33  N   UNL     1      -0.715  17.618  18.054  0.00  0.00    +0.000 NA
ENDBRANCH  28  32
ENDBRANCH  21  25
ENDBRANCH   1  18
TORSDOF 6
ENDMDL
MODEL 8
REMARK VINA RESULT:      -7.2      4.943     11.198
REMARK  Name = 
REMARK  6 active torsions:
REMARK  status: ('A' for Active; 'I' for Inactive)
REMARK    1  A    between atoms: C_2  and  C_3
REMARK    2  A    between atoms: C_6  and  N_7
REMARK    3  A    between atoms: C_12  and  O_13
REMARK    4  A    between atoms: O_13  and  C_14
REMARK    5  A    between atoms: C_17  and  C_18
REMARK    6  A    between atoms: C_21  and  C_22
REMARK                            x       y       z     vdW  Elec       q    Type
REMARK                         _______ _______ _______ _____ _____    ______ ____
ROOT
ATOM      1  O   UNL     1       8.762   9.803  17.529  0.00  0.00    +0.000 OA
ENDROOT
BRANCH   1   7
ATOM      2  N   UNL     1       5.514   6.559  16.614  0.00  0.00    +0.000 N 
ATOM      3  C   UNL     1       6.582   6.995  17.409  0.00  0.00    +0.000 A 
ATOM      4  N   UNL     1       7.094   6.180  18.340  0.00  0.00    +0.000 NA
ATOM      5  C   UNL     1       8.137   6.630  19.062  0.00  0.00    +0.000 A 
ATOM      6  C   UNL     1       8.707   7.855  18.861  0.00  0.00    +0.000 A 
ATOM      7  C   UNL     1       8.135   8.605  17.868  0.00  0.00    +0.000 A 
ATOM      8  N   UNL     1       7.048   8.220  17.166  0.00  0.00    +0.000 NA
ATOM      9  H   UNL     1       5.182   7.364  16.099  0.00  0.00    +0.000 HD
BRANCH   2  13
ATOM     10  C   UNL     1       2.351   4.079  17.881  0.00  0.00    +0.000 A 
ATOM     11  C   UNL     1       2.356   5.427  18.234  0.00  0.00    +0.000 A 
ATOM     12  C   UNL     1       3.406   6.244  17.822  0.00  0.00    +0.000 A 
ATOM     13  C   UNL     1       4.473   5.731  17.073  0.00  0.00    +0.000 A 
ATOM     14  C   UNL     1       4.450   4.380  16.709  0.00  0.00    +0.000 A 
ATOM     15  C   UNL     1       3.401   3.552  17.123  0.00  0.00    +0.000 A 
BRANCH  10  17
ATOM     16  N   UNL     1       0.385   2.544  18.588  0.00  0.00    +0.000 NA
ATOM     17  C   UNL     1       1.263   3.242  18.284  0.00  0.00    +0.000 C 
ENDBRANCH  10  17
ENDBRANCH   2  13
ENDBRANCH   1   7
BRANCH   1  18
ATOM     18  C   UNL     1       8.855  10.749  18.532  0.00  0.00    +0.000 A 
ATOM     19  C   UNL     1       9.363  10.431  19.793  0.00  0.00    +0.000 A 
ATOM     20  C   UNL     1       9.537  11.414  20.765  0.00  0.00    +0.000 A 
ATOM     21  C   UNL     1       9.223  12.757  20.519  0.00  0.00    +0.000 A 
ATOM     22  C   UNL     1       8.606  13.041  19.281  0.00  0.00    +0.000 A 
ATOM     23  C   UNL     1       8.404  12.048  18.307  0.00  0.00    +0.000 A 
ATOM     24 CL   UNL     1       7.587  12.481  16.850  0.00  0.00    +0.000 Cl
BRANCH  21  25
ATOM     25  C   UNL     1       9.497  13.820  21.526  0.00  0.00    +0.000 A 
ATOM     26  C   UNL     1      10.480  14.794  21.240  0.00  0.00    +0.000 A 
ATOM     27  C   UNL     1      10.811  15.806  22.143  0.00  0.00    +0.000 A 
ATOM     28  C   UNL     1      10.142  15.900  23.360  0.00  0.00    +0.000 A 
ATOM     29  C   UNL     1       9.153  14.972  23.673  0.00  0.00    +0.000 A 
ATOM     30  C   UNL     1       8.847  13.932  22.783  0.00  0.00    +0.000 A 
ATOM     31 CL   UNL     1       7.691  12.789  23.391  0.00  0.00    +0.000 Cl
BRANCH  28  32
ATOM     32  C   UNL     1      10.478  16.927  24.292  0.00  0.00    +0.000 C 
ATOM     33  N   UNL     1      10.751  17.762  25.050  0.00  0.00    +0.000 NA
ENDBRANCH  28  32
ENDBRANCH  21  25
ENDBRANCH   1  18
TORSDOF 6
ENDMDL
MODEL 9
REMARK VINA RESULT:      -7.1      2.971      3.456
REMARK  Name = 
REMARK  6 active torsions:
REMARK  status: ('A' for Active; 'I' for Inactive)
REMARK    1  A    between atoms: C_2  and  C_3
REMARK    2  A    between atoms: C_6  and  N_7
REMARK    3  A    between atoms: C_12  and  O_13
REMARK    4  A    between atoms: O_13  and  C_14
REMARK    5  A    between atoms: C_17  and  C_18
REMARK    6  A    between atoms: C_21  and  C_22
REMARK                            x       y       z     vdW  Elec       q    Type
REMARK                         _______ _______ _______ _____ _____    ______ ____
ROOT
ATOM      1  O   UNL     1      -0.564  10.679  20.009  0.00  0.00    +0.000 OA
ENDROOT
BRANCH   1   7
ATOM      2  N   UNL     1       2.768  13.948  20.364  0.00  0.00    +0.000 N 
ATOM      3  C   UNL     1       1.594  13.374  20.868  0.00  0.00    +0.000 A 
ATOM      4  N   UNL     1       0.942  13.967  21.876  0.00  0.00    +0.000 NA
ATOM      5  C   UNL     1      -0.195  13.395  22.311  0.00  0.00    +0.000 A 
ATOM      6  C   UNL     1      -0.722  12.266  21.749  0.00  0.00    +0.000 A 
ATOM      7  C   UNL     1      -0.001  11.748  20.706  0.00  0.00    +0.000 A 
ATOM      8  N   UNL     1       1.177  12.251  20.281  0.00  0.00    +0.000 NA
ATOM      9  H   UNL     1       3.179  13.274  19.731  0.00  0.00    +0.000 HD
BRANCH   2  13
ATOM     10  C   UNL     1       5.694  15.964  22.628  0.00  0.00    +0.000 A 
ATOM     11  C   UNL     1       5.550  14.584  22.757  0.00  0.00    +0.000 A 
ATOM     12  C   UNL     1       4.577  13.920  22.015  0.00  0.00    +0.000 A 
ATOM     13  C   UNL     1       3.723  14.618  21.151  0.00  0.00    +0.000 A 
ATOM     14  C   UNL     1       3.887  16.001  21.015  0.00  0.00    +0.000 A 
ATOM     15  C   UNL     1       4.859  16.675  21.762  0.00  0.00    +0.000 A 
BRANCH  10  17
ATOM     16  N   UNL     1       7.516  17.226  23.974  0.00  0.00    +0.000 NA
ATOM     17  C   UNL     1       6.708  16.647  23.373  0.00  0.00    +0.000 C 
ENDBRANCH  10  17
ENDBRANCH   2  13
ENDBRANCH   1   7
BRANCH   1  18
ATOM     18  C   UNL     1       0.322   9.752  19.493  0.00  0.00    +0.000 A 
ATOM     19  C   UNL     1       0.625   9.710  18.131  0.00  0.00    +0.000 A 
ATOM     20  C   UNL     1       1.588   8.833  17.637  0.00  0.00    +0.000 A 
ATOM     21  C   UNL     1       2.298   7.969  18.479  0.00  0.00    +0.000 A 
ATOM     22  C   UNL     1       1.900   7.945  19.834  0.00  0.00    +0.000 A 
ATOM     23  C   UNL     1       0.910   8.809  20.332  0.00  0.00    +0.000 A 
ATOM     24 CL   UNL     1       0.450   8.662  21.990  0.00  0.00    +0.000 Cl
BRANCH  21  25
ATOM     25  C   UNL     1       3.393   7.100  17.964  0.00  0.00    +0.000 A 
ATOM     26  C   UNL     1       4.627   7.691  17.612  0.00  0.00    +0.000 A 
ATOM     27  C   UNL     1       5.690   6.946  17.099  0.00  0.00    +0.000 A 
ATOM     28  C   UNL     1       5.567   5.568  16.949  0.00  0.00    +0.000 A 
ATOM     29  C   UNL     1       4.375   4.943  17.303  0.00  0.00    +0.000 A 
ATOM     30  C   UNL     1       3.293   5.695  17.782  0.00  0.00    +0.000 A 
ATOM     31 CL   UNL     1       1.844   4.775  18.042  0.00  0.00    +0.000 Cl
BRANCH  28  32
ATOM     32  C   UNL     1       6.647   4.799  16.419  0.00  0.00    +0.000 C 
ATOM     33  N   UNL     1       7.525   4.176  15.987  0.00  0.00    +0.000 NA
ENDBRANCH  28  32
ENDBRANCH  21  25
ENDBRANCH   1  18
TORSDOF 6
ENDMDL
