MODEL 1
REMARK VINA RESULT:      -7.8      0.000      0.000
REMARK  Name = 
REMARK  11 active torsions:
REMARK  status: ('A' for Active; 'I' for Inactive)
REMARK    1  A    between atoms: C_1  and  C_2
REMARK    2  A    between atoms: C_2  and  O_3
REMARK    3  A    between atoms: O_3  and  C_4
REMARK    4  A    between atoms: C_4  and  C_6
REMARK    5  A    between atoms: C_8  and  C_9
REMARK    6  A    between atoms: C_17  and  C_18
REMARK    7  A    between atoms: C_19  and  C_20
REMARK    8  A    between atoms: C_20  and  C_21
REMARK    9  A    between atoms: C_21  and  C_22
REMARK   10  A    between atoms: C_22  and  C_23
REMARK   11  A    between atoms: C_23  and  O_25
REMARK                            x       y       z     vdW  Elec       q    Type
REMARK                         _______ _______ _______ _____ _____    ______ ____
ROOT
ATOM      1  C   UNL     1       5.860   5.162  16.279  0.00  0.00    +0.000 A 
ATOM      2  S   UNL     1       4.623   4.005  16.562  0.00  0.00    +0.000 S 
ATOM      3  C   UNL     1       4.101   4.885  17.952  0.00  0.00    +0.000 A 
ATOM      4  N   UNL     1       4.761   6.007  18.168  0.00  0.00    +0.000 NA
ATOM      5  C   UNL     1       5.764   6.149  17.232  0.00  0.00    +0.000 A 
ENDROOT
BRANCH   3   6
ATOM      6  C   UNL     1       3.000   4.399  18.806  0.00  0.00    +0.000 A 
ATOM      7  C   UNL     1       2.946   4.799  20.155  0.00  0.00    +0.000 A 
ATOM      8  C   UNL     1       1.956   4.315  21.017  0.00  0.00    +0.000 A 
ATOM      9  C   UNL     1       1.006   3.413  20.544  0.00  0.00    +0.000 A 
ATOM     10  C   UNL     1       1.049   3.019  19.213  0.00  0.00    +0.000 A 
ATOM     11  F   UNL     1       0.145   2.140  18.760  0.00  0.00    +0.000 F 
ATOM     12  C   UNL     1       2.026   3.501  18.345  0.00  0.00    +0.000 A 
ENDBRANCH   3   6
BRANCH   1  13
ATOM     13  C   UNL     1       6.826   4.967  15.228  0.00  0.00    +0.000 C 
ATOM     14  O   UNL     1       7.779   5.696  14.977  0.00  0.00    +0.000 OA
BRANCH  13  15
ATOM     15  O   UNL     1       6.472   3.897  14.465  0.00  0.00    +0.000 OA
BRANCH  15  17
ATOM     16  C   UNL     1       5.512   3.340  12.352  0.00  0.00    +0.000 C 
ATOM     17  C   UNL     1       6.684   4.003  13.055  0.00  0.00    +0.000 C 
ENDBRANCH  15  17
ENDBRANCH  13  15
ENDBRANCH   1  13
BRANCH   5  18
ATOM     18  C   UNL     1       6.640   7.269  17.356  0.00  0.00    +0.000 C 
ATOM     19  C   UNL     1       7.431   8.300  17.470  0.00  0.00    +0.000 C 
BRANCH  19  20
ATOM     20  C   UNL     1       8.353   9.501  17.605  0.00  0.00    +0.000 C 
BRANCH  20  21
ATOM     21  C   UNL     1       8.921   9.562  19.025  0.00  0.00    +0.000 C 
BRANCH  21  22
ATOM     22  C   UNL     1       9.932  10.698  19.213  0.00  0.00    +0.000 C 
BRANCH  22  23
ATOM     23  C   UNL     1       9.822  11.325  20.583  0.00  0.00    +0.000 C 
ATOM     24  O   UNL     1      10.621  12.110  21.067  0.00  0.00    +0.000 OA
BRANCH  23  25
ATOM     25  O   UNL     1       8.717  10.914  21.247  0.00  0.00    +0.000 OA
ATOM     26  H   UNL     1       8.885  10.194  21.885  0.00  0.00    +0.000 HD
ENDBRANCH  23  25
ENDBRANCH  22  23
ENDBRANCH  21  22
ENDBRANCH  20  21
ENDBRANCH  19  20
ENDBRANCH   5  18
TORSDOF 10
ENDMDL
MODEL 2
REMARK VINA RESULT:      -7.6      1.722      1.950
REMARK  Name = 
REMARK  11 active torsions:
REMARK  status: ('A' for Active; 'I' for Inactive)
REMARK    1  A    between atoms: C_1  and  C_2
REMARK    2  A    between atoms: C_2  and  O_3
REMARK    3  A    between atoms: O_3  and  C_4
REMARK    4  A    between atoms: C_4  and  C_6
REMARK    5  A    between atoms: C_8  and  C_9
REMARK    6  A    between atoms: C_17  and  C_18
REMARK    7  A    between atoms: C_19  and  C_20
REMARK    8  A    between atoms: C_20  and  C_21
REMARK    9  A    between atoms: C_21  and  C_22
REMARK   10  A    between atoms: C_22  and  C_23
REMARK   11  A    between atoms: C_23  and  O_25
REMARK                            x       y       z     vdW  Elec       q    Type
REMARK                         _______ _______ _______ _____ _____    ______ ____
ROOT
ATOM      1  C   UNL     1       5.992   4.931  16.266  0.00  0.00    +0.000 A 
ATOM      2  S   UNL     1       4.707   3.799  16.398  0.00  0.00    +0.000 S 
ATOM      3  C   UNL     1       4.286   4.438  17.945  0.00  0.00    +0.000 A 
ATOM      4  N   UNL     1       5.012   5.473  18.325  0.00  0.00    +0.000 NA
ATOM      5  C   UNL     1       5.985   5.735  17.382  0.00  0.00    +0.000 A 
ENDROOT
BRANCH   3   6
ATOM      6  C   UNL     1       3.195   3.857  18.751  0.00  0.00    +0.000 A 
ATOM      7  C   UNL     1       1.885   3.853  18.236  0.00  0.00    +0.000 A 
ATOM      8  C   UNL     1       0.810   3.369  18.989  0.00  0.00    +0.000 A 
ATOM      9  C   UNL     1       1.027   2.888  20.278  0.00  0.00    +0.000 A 
ATOM     10  C   UNL     1       2.318   2.883  20.790  0.00  0.00    +0.000 A 
ATOM     11  F   UNL     1       2.528   2.434  22.035  0.00  0.00    +0.000 F 
ATOM     12  C   UNL     1       3.397   3.355  20.045  0.00  0.00    +0.000 A 
ENDBRANCH   3   6
BRANCH   1  13
ATOM     13  C   UNL     1       6.905   4.884  15.152  0.00  0.00    +0.000 C 
ATOM     14  O   UNL     1       7.772   5.711  14.893  0.00  0.00    +0.000 OA
BRANCH  13  15
ATOM     15  O   UNL     1       6.602   3.829  14.348  0.00  0.00    +0.000 OA
BRANCH  15  17
ATOM     16  C   UNL     1       5.436   3.343  12.323  0.00  0.00    +0.000 C 
ATOM     17  C   UNL     1       6.628   4.057  12.936  0.00  0.00    +0.000 C 
ENDBRANCH  15  17
ENDBRANCH  13  15
ENDBRANCH   1  13
BRANCH   5  18
ATOM     18  C   UNL     1       6.923   6.774  17.661  0.00  0.00    +0.000 C 
ATOM     19  C   UNL     1       7.776   7.723  17.926  0.00  0.00    +0.000 C 
BRANCH  19  20
ATOM     20  C   UNL     1       8.772   8.829  18.236  0.00  0.00    +0.000 C 
BRANCH  20  21
ATOM     21  C   UNL     1       8.122  10.194  17.996  0.00  0.00    +0.000 C 
BRANCH  21  22
ATOM     22  C   UNL     1       9.137  11.343  17.984  0.00  0.00    +0.000 C 
BRANCH  22  23
ATOM     23  C   UNL     1       8.465  12.683  17.795  0.00  0.00    +0.000 C 
ATOM     24  O   UNL     1       8.636  13.665  18.498  0.00  0.00    +0.000 OA
BRANCH  23  25
ATOM     25  O   UNL     1       7.621  12.687  16.737  0.00  0.00    +0.000 OA
ATOM     26  H   UNL     1       6.832  13.248  16.864  0.00  0.00    +0.000 HD
ENDBRANCH  23  25
ENDBRANCH  22  23
ENDBRANCH  21  22
ENDBRANCH  20  21
ENDBRANCH  19  20
ENDBRANCH   5  18
TORSDOF 10
ENDMDL
MODEL 3
REMARK VINA RESULT:      -7.6      2.510      7.218
REMARK  Name = 
REMARK  11 active torsions:
REMARK  status: ('A' for Active; 'I' for Inactive)
REMARK    1  A    between atoms: C_1  and  C_2
REMARK    2  A    between atoms: C_2  and  O_3
REMARK    3  A    between atoms: O_3  and  C_4
REMARK    4  A    between atoms: C_4  and  C_6
REMARK    5  A    between atoms: C_8  and  C_9
REMARK    6  A    between atoms: C_17  and  C_18
REMARK    7  A    between atoms: C_19  and  C_20
REMARK    8  A    between atoms: C_20  and  C_21
REMARK    9  A    between atoms: C_21  and  C_22
REMARK   10  A    between atoms: C_22  and  C_23
REMARK   11  A    between atoms: C_23  and  O_25
REMARK                            x       y       z     vdW  Elec       q    Type
REMARK                         _______ _______ _______ _____ _____    ______ ____
ROOT
ATOM      1  C   UNL     1       5.877   5.315  16.949  0.00  0.00    +0.000 A 
ATOM      2  S   UNL     1       5.089   5.339  18.474  0.00  0.00    +0.000 S 
ATOM      3  C   UNL     1       4.033   4.075  17.963  0.00  0.00    +0.000 A 
ATOM      4  N   UNL     1       4.281   3.611  16.752  0.00  0.00    +0.000 NA
ATOM      5  C   UNL     1       5.311   4.327  16.178  0.00  0.00    +0.000 A 
ENDROOT
BRANCH   3   6
ATOM      6  C   UNL     1       2.953   3.570  18.833  0.00  0.00    +0.000 A 
ATOM      7  C   UNL     1       1.645   3.473  18.322  0.00  0.00    +0.000 A 
ATOM      8  C   UNL     1       0.578   3.059  19.127  0.00  0.00    +0.000 A 
ATOM      9  C   UNL     1       0.803   2.743  20.465  0.00  0.00    +0.000 A 
ATOM     10  C   UNL     1       2.091   2.830  20.974  0.00  0.00    +0.000 A 
ATOM     11  F   UNL     1       2.307   2.540  22.265  0.00  0.00    +0.000 F 
ATOM     12  C   UNL     1       3.161   3.234  20.178  0.00  0.00    +0.000 A 
ENDBRANCH   3   6
BRANCH   1  13
ATOM     13  C   UNL     1       6.897   6.282  16.630  0.00  0.00    +0.000 C 
ATOM     14  O   UNL     1       7.756   6.167  15.762  0.00  0.00    +0.000 OA
BRANCH  13  15
ATOM     15  O   UNL     1       6.844   7.319  17.508  0.00  0.00    +0.000 OA
BRANCH  15  17
ATOM     16  C   UNL     1       8.271   9.162  18.020  0.00  0.00    +0.000 C 
ATOM     17  C   UNL     1       8.058   7.667  18.180  0.00  0.00    +0.000 C 
ENDBRANCH  15  17
ENDBRANCH  13  15
ENDBRANCH   1  13
BRANCH   5  18
ATOM     18  C   UNL     1       5.668   4.019  14.831  0.00  0.00    +0.000 C 
ATOM     19  C   UNL     1       5.987   3.747  13.596  0.00  0.00    +0.000 C 
BRANCH  19  20
ATOM     20  C   UNL     1       6.360   3.430  12.157  0.00  0.00    +0.000 C 
BRANCH  20  21
ATOM     21  C   UNL     1       5.183   2.751  11.454  0.00  0.00    +0.000 C 
BRANCH  21  22
ATOM     22  C   UNL     1       3.926   3.629  11.414  0.00  0.00    +0.000 C 
BRANCH  22  23
ATOM     23  C   UNL     1       3.193   3.498  10.100  0.00  0.00    +0.000 C 
ATOM     24  O   UNL     1       3.143   4.352   9.231  0.00  0.00    +0.000 OA
BRANCH  23  25
ATOM     25  O   UNL     1       2.569   2.303   9.979  0.00  0.00    +0.000 OA
ATOM     26  H   UNL     1       2.885   1.768   9.226  0.00  0.00    +0.000 HD
ENDBRANCH  23  25
ENDBRANCH  22  23
ENDBRANCH  21  22
ENDBRANCH  20  21
ENDBRANCH  19  20
ENDBRANCH   5  18
TORSDOF 10
ENDMDL
MODEL 4
REMARK VINA RESULT:      -7.6      4.900      7.490
REMARK  Name = 
REMARK  11 active torsions:
REMARK  status: ('A' for Active; 'I' for Inactive)
REMARK    1  A    between atoms: C_1  and  C_2
REMARK    2  A    between atoms: C_2  and  O_3
REMARK    3  A    between atoms: O_3  and  C_4
REMARK    4  A    between atoms: C_4  and  C_6
REMARK    5  A    between atoms: C_8  and  C_9
REMARK    6  A    between atoms: C_17  and  C_18
REMARK    7  A    between atoms: C_19  and  C_20
REMARK    8  A    between atoms: C_20  and  C_21
REMARK    9  A    between atoms: C_21  and  C_22
REMARK   10  A    between atoms: C_22  and  C_23
REMARK   11  A    between atoms: C_23  and  O_25
REMARK                            x       y       z     vdW  Elec       q    Type
REMARK                         _______ _______ _______ _____ _____    ______ ____
ROOT
ATOM      1  C   UNL     1       3.539   4.656  19.136  0.00  0.00    +0.000 A 
ATOM      2  S   UNL     1       2.497   5.570  20.149  0.00  0.00    +0.000 S 
ATOM      3  C   UNL     1       2.566   6.895  19.045  0.00  0.00    +0.000 A 
ATOM      4  N   UNL     1       3.271   6.661  17.953  0.00  0.00    +0.000 NA
ATOM      5  C   UNL     1       3.833   5.403  18.019  0.00  0.00    +0.000 A 
ENDROOT
BRANCH   3   6
ATOM      6  C   UNL     1       1.879   8.171  19.323  0.00  0.00    +0.000 A 
ATOM      7  C   UNL     1       1.783   9.139  18.306  0.00  0.00    +0.000 A 
ATOM      8  C   UNL     1       1.195  10.386  18.542  0.00  0.00    +0.000 A 
ATOM      9  C   UNL     1       0.699  10.689  19.808  0.00  0.00    +0.000 A 
ATOM     10  C   UNL     1       0.784   9.737  20.814  0.00  0.00    +0.000 A 
ATOM     11  F   UNL     1       0.320  10.032  22.037  0.00  0.00    +0.000 F 
ATOM     12  C   UNL     1       1.361   8.489  20.587  0.00  0.00    +0.000 A 
ENDBRANCH   3   6
BRANCH   1  13
ATOM     13  C   UNL     1       4.018   3.360  19.548  0.00  0.00    +0.000 C 
ATOM     14  O   UNL     1       5.191   3.026  19.664  0.00  0.00    +0.000 OA
BRANCH  13  15
ATOM     15  O   UNL     1       2.970   2.504  19.695  0.00  0.00    +0.000 OA
BRANCH  15  17
ATOM     16  C   UNL     1       0.784   2.324  18.754  0.00  0.00    +0.000 C 
ATOM     17  C   UNL     1       2.269   2.123  18.508  0.00  0.00    +0.000 C 
ENDBRANCH  15  17
ENDBRANCH  13  15
ENDBRANCH   1  13
BRANCH   5  18
ATOM     18  C   UNL     1       4.700   5.002  16.959  0.00  0.00    +0.000 C 
ATOM     19  C   UNL     1       5.494   4.626  15.996  0.00  0.00    +0.000 C 
BRANCH  19  20
ATOM     20  C   UNL     1       6.419   4.187  14.872  0.00  0.00    +0.000 C 
BRANCH  20  21
ATOM     21  C   UNL     1       5.613   3.984  13.587  0.00  0.00    +0.000 C 
BRANCH  21  22
ATOM     22  C   UNL     1       6.483   3.554  12.400  0.00  0.00    +0.000 C 
BRANCH  22  23
ATOM     23  C   UNL     1       5.838   2.443  11.605  0.00  0.00    +0.000 C 
ATOM     24  O   UNL     1       4.670   2.412  11.254  0.00  0.00    +0.000 OA
BRANCH  23  25
ATOM     25  O   UNL     1       6.710   1.449  11.315  0.00  0.00    +0.000 OA
ATOM     26  H   UNL     1       6.300   0.563  11.283  0.00  0.00    +0.000 HD
ENDBRANCH  23  25
ENDBRANCH  22  23
ENDBRANCH  21  22
ENDBRANCH  20  21
ENDBRANCH  19  20
ENDBRANCH   5  18
TORSDOF 10
ENDMDL
MODEL 5
REMARK VINA RESULT:      -7.6      2.223      7.003
REMARK  Name = 
REMARK  11 active torsions:
REMARK  status: ('A' for Active; 'I' for Inactive)
REMARK    1  A    between atoms: C_1  and  C_2
REMARK    2  A    between atoms: C_2  and  O_3
REMARK    3  A    between atoms: O_3  and  C_4
REMARK    4  A    between atoms: C_4  and  C_6
REMARK    5  A    between atoms: C_8  and  C_9
REMARK    6  A    between atoms: C_17  and  C_18
REMARK    7  A    between atoms: C_19  and  C_20
REMARK    8  A    between atoms: C_20  and  C_21
REMARK    9  A    between atoms: C_21  and  C_22
REMARK   10  A    between atoms: C_22  and  C_23
REMARK   11  A    between atoms: C_23  and  O_25
REMARK                            x       y       z     vdW  Elec       q    Type
REMARK                         _______ _______ _______ _____ _____    ______ ____
ROOT
ATOM      1  C   UNL     1       5.998   5.449  17.031  0.00  0.00    +0.000 A 
ATOM      2  S   UNL     1       5.117   5.535  18.503  0.00  0.00    +0.000 S 
ATOM      3  C   UNL     1       3.978   4.387  17.903  0.00  0.00    +0.000 A 
ATOM      4  N   UNL     1       4.259   3.913  16.703  0.00  0.00    +0.000 NA
ATOM      5  C   UNL     1       5.389   4.530  16.208  0.00  0.00    +0.000 A 
ENDROOT
BRANCH   3   6
ATOM      6  C   UNL     1       2.798   3.983  18.692  0.00  0.00    +0.000 A 
ATOM      7  C   UNL     1       2.598   4.542  19.968  0.00  0.00    +0.000 A 
ATOM      8  C   UNL     1       1.528   4.143  20.777  0.00  0.00    +0.000 A 
ATOM      9  C   UNL     1       0.643   3.168  20.324  0.00  0.00    +0.000 A 
ATOM     10  C   UNL     1       0.831   2.616  19.063  0.00  0.00    +0.000 A 
ATOM     11  F   UNL     1      -0.011   1.667  18.631  0.00  0.00    +0.000 F 
ATOM     12  C   UNL     1       1.889   3.012  18.247  0.00  0.00    +0.000 A 
ENDBRANCH   3   6
BRANCH   1  13
ATOM     13  C   UNL     1       7.126   6.314  16.795  0.00  0.00    +0.000 C 
ATOM     14  O   UNL     1       7.884   6.267  15.833  0.00  0.00    +0.000 OA
BRANCH  13  15
ATOM     15  O   UNL     1       7.306   7.143  17.859  0.00  0.00    +0.000 OA
BRANCH  15  17
ATOM     16  C   UNL     1       8.728   8.912  18.596  0.00  0.00    +0.000 C 
ATOM     17  C   UNL     1       7.684   8.493  17.576  0.00  0.00    +0.000 C 
ENDBRANCH  15  17
ENDBRANCH  13  15
ENDBRANCH   1  13
BRANCH   5  18
ATOM     18  C   UNL     1       5.803   4.203  14.882  0.00  0.00    +0.000 C 
ATOM     19  C   UNL     1       6.171   3.899  13.669  0.00  0.00    +0.000 C 
BRANCH  19  20
ATOM     20  C   UNL     1       6.600   3.544  12.254  0.00  0.00    +0.000 C 
BRANCH  20  21
ATOM     21  C   UNL     1       5.454   2.837  11.527  0.00  0.00    +0.000 C 
BRANCH  21  22
ATOM     22  C   UNL     1       4.113   3.563  11.681  0.00  0.00    +0.000 C 
BRANCH  22  23
ATOM     23  C   UNL     1       3.319   3.553  10.396  0.00  0.00    +0.000 C 
ATOM     24  O   UNL     1       3.107   4.525   9.689  0.00  0.00    +0.000 OA
BRANCH  23  25
ATOM     25  O   UNL     1       2.844   2.322  10.098  0.00  0.00    +0.000 OA
ATOM     26  H   UNL     1       2.940   2.080   9.157  0.00  0.00    +0.000 HD
ENDBRANCH  23  25
ENDBRANCH  22  23
ENDBRANCH  21  22
ENDBRANCH  20  21
ENDBRANCH  19  20
ENDBRANCH   5  18
TORSDOF 10
ENDMDL
MODEL 6
REMARK VINA RESULT:      -7.6      4.816      7.301
REMARK  Name = 
REMARK  11 active torsions:
REMARK  status: ('A' for Active; 'I' for Inactive)
REMARK    1  A    between atoms: C_1  and  C_2
REMARK    2  A    between atoms: C_2  and  O_3
REMARK    3  A    between atoms: O_3  and  C_4
REMARK    4  A    between atoms: C_4  and  C_6
REMARK    5  A    between atoms: C_8  and  C_9
REMARK    6  A    between atoms: C_17  and  C_18
REMARK    7  A    between atoms: C_19  and  C_20
REMARK    8  A    between atoms: C_20  and  C_21
REMARK    9  A    between atoms: C_21  and  C_22
REMARK   10  A    between atoms: C_22  and  C_23
REMARK   11  A    between atoms: C_23  and  O_25
REMARK                            x       y       z     vdW  Elec       q    Type
REMARK                         _______ _______ _______ _____ _____    ______ ____
ROOT
ATOM      1  C   UNL     1       3.551   4.849  19.091  0.00  0.00    +0.000 A 
ATOM      2  S   UNL     1       2.485   5.574  20.224  0.00  0.00    +0.000 S 
ATOM      3  C   UNL     1       2.429   7.011  19.271  0.00  0.00    +0.000 A 
ATOM      4  N   UNL     1       3.112   6.946  18.143  0.00  0.00    +0.000 NA
ATOM      5  C   UNL     1       3.758   5.730  18.056  0.00  0.00    +0.000 A 
ENDROOT
BRANCH   3   6
ATOM      6  C   UNL     1       1.669   8.199  19.705  0.00  0.00    +0.000 A 
ATOM      7  C   UNL     1       1.193   8.267  21.028  0.00  0.00    +0.000 A 
ATOM      8  C   UNL     1       0.415   9.344  21.467  0.00  0.00    +0.000 A 
ATOM      9  C   UNL     1       0.092  10.370  20.582  0.00  0.00    +0.000 A 
ATOM     10  C   UNL     1       0.563  10.313  19.277  0.00  0.00    +0.000 A 
ATOM     11  F   UNL     1       0.241  11.292  18.421  0.00  0.00    +0.000 F 
ATOM     12  C   UNL     1       1.344   9.248  18.833  0.00  0.00    +0.000 A 
ENDBRANCH   3   6
BRANCH   1  13
ATOM     13  C   UNL     1       4.128   3.553  19.346  0.00  0.00    +0.000 C 
ATOM     14  O   UNL     1       5.324   3.281  19.348  0.00  0.00    +0.000 OA
BRANCH  13  15
ATOM     15  O   UNL     1       3.142   2.626  19.485  0.00  0.00    +0.000 OA
BRANCH  15  17
ATOM     16  C   UNL     1       0.908   2.377  18.681  0.00  0.00    +0.000 C 
ATOM     17  C   UNL     1       2.381   2.304  18.317  0.00  0.00    +0.000 C 
ENDBRANCH  15  17
ENDBRANCH  13  15
ENDBRANCH   1  13
BRANCH   5  18
ATOM     18  C   UNL     1       4.614   5.507  16.936  0.00  0.00    +0.000 C 
ATOM     19  C   UNL     1       5.398   5.315  15.912  0.00  0.00    +0.000 C 
BRANCH  19  20
ATOM     20  C   UNL     1       6.312   5.090  14.718  0.00  0.00    +0.000 C 
BRANCH  20  21
ATOM     21  C   UNL     1       5.998   3.740  14.071  0.00  0.00    +0.000 C 
BRANCH  21  22
ATOM     22  C   UNL     1       6.363   3.693  12.583  0.00  0.00    +0.000 C 
BRANCH  22  23
ATOM     23  C   UNL     1       5.433   2.791  11.805  0.00  0.00    +0.000 C 
ATOM     24  O   UNL     1       5.691   1.657  11.439  0.00  0.00    +0.000 OA
BRANCH  23  25
ATOM     25  O   UNL     1       4.247   3.386  11.540  0.00  0.00    +0.000 OA
ATOM     26  H   UNL     1       3.533   2.759  11.315  0.00  0.00    +0.000 HD
ENDBRANCH  23  25
ENDBRANCH  22  23
ENDBRANCH  21  22
ENDBRANCH  20  21
ENDBRANCH  19  20
ENDBRANCH   5  18
TORSDOF 10
ENDMDL
MODEL 7
REMARK VINA RESULT:      -7.5      2.896      5.727
REMARK  Name = 
REMARK  11 active torsions:
REMARK  status: ('A' for Active; 'I' for Inactive)
REMARK    1  A    between atoms: C_1  and  C_2
REMARK    2  A    between atoms: C_2  and  O_3
REMARK    3  A    between atoms: O_3  and  C_4
REMARK    4  A    between atoms: C_4  and  C_6
REMARK    5  A    between atoms: C_8  and  C_9
REMARK    6  A    between atoms: C_17  and  C_18
REMARK    7  A    between atoms: C_19  and  C_20
REMARK    8  A    between atoms: C_20  and  C_21
REMARK    9  A    between atoms: C_21  and  C_22
REMARK   10  A    between atoms: C_22  and  C_23
REMARK   11  A    between atoms: C_23  and  O_25
REMARK                            x       y       z     vdW  Elec       q    Type
REMARK                         _______ _______ _______ _____ _____    ______ ____
ROOT
ATOM      1  C   UNL     1       6.504   5.276  17.799  0.00  0.00    +0.000 A 
ATOM      2  S   UNL     1       6.005   4.111  16.641  0.00  0.00    +0.000 S 
ATOM      3  C   UNL     1       6.806   4.992  15.392  0.00  0.00    +0.000 A 
ATOM      4  N   UNL     1       7.461   6.060  15.809  0.00  0.00    +0.000 NA
ATOM      5  C   UNL     1       7.272   6.225  17.165  0.00  0.00    +0.000 A 
ENDROOT
BRANCH   3   6
ATOM      6  C   UNL     1       6.749   4.560  13.982  0.00  0.00    +0.000 A 
ATOM      7  C   UNL     1       7.643   5.123  13.051  0.00  0.00    +0.000 A 
ATOM      8  C   UNL     1       7.585   4.789  11.694  0.00  0.00    +0.000 A 
ATOM      9  C   UNL     1       6.623   3.890  11.242  0.00  0.00    +0.000 A 
ATOM     10  C   UNL     1       5.742   3.325  12.155  0.00  0.00    +0.000 A 
ATOM     11  F   UNL     1       4.806   2.470  11.720  0.00  0.00    +0.000 F 
ATOM     12  C   UNL     1       5.797   3.645  13.510  0.00  0.00    +0.000 A 
ENDBRANCH   3   6
BRANCH   1  13
ATOM     13  C   UNL     1       6.054   5.198  19.166  0.00  0.00    +0.000 C 
ATOM     14  O   UNL     1       6.729   5.423  20.164  0.00  0.00    +0.000 OA
BRANCH  13  15
ATOM     15  O   UNL     1       4.777   4.728  19.207  0.00  0.00    +0.000 OA
BRANCH  15  17
ATOM     16  C   UNL     1       2.672   5.035  20.289  0.00  0.00    +0.000 C 
ATOM     17  C   UNL     1       3.737   5.686  19.425  0.00  0.00    +0.000 C 
ENDBRANCH  15  17
ENDBRANCH  13  15
ENDBRANCH   1  13
BRANCH   5  18
ATOM     18  C   UNL     1       7.841   7.379  17.783  0.00  0.00    +0.000 C 
ATOM     19  C   UNL     1       8.364   8.437  18.338  0.00  0.00    +0.000 C 
BRANCH  19  20
ATOM     20  C   UNL     1       8.972   9.672  18.984  0.00  0.00    +0.000 C 
BRANCH  20  21
ATOM     21  C   UNL     1       9.006  10.822  17.975  0.00  0.00    +0.000 C 
BRANCH  21  22
ATOM     22  C   UNL     1      10.285  11.661  18.071  0.00  0.00    +0.000 C 
BRANCH  22  23
ATOM     23  C   UNL     1      10.003  13.135  17.902  0.00  0.00    +0.000 C 
ATOM     24  O   UNL     1       9.392  13.832  18.695  0.00  0.00    +0.000 OA
BRANCH  23  25
ATOM     25  O   UNL     1      10.505  13.623  16.745  0.00  0.00    +0.000 OA
ATOM     26  H   UNL     1       9.924  13.483  15.973  0.00  0.00    +0.000 HD
ENDBRANCH  23  25
ENDBRANCH  22  23
ENDBRANCH  21  22
ENDBRANCH  20  21
ENDBRANCH  19  20
ENDBRANCH   5  18
TORSDOF 10
ENDMDL
MODEL 8
REMARK VINA RESULT:      -7.4      1.190      1.393
REMARK  Name = 
REMARK  11 active torsions:
REMARK  status: ('A' for Active; 'I' for Inactive)
REMARK    1  A    between atoms: C_1  and  C_2
REMARK    2  A    between atoms: C_2  and  O_3
REMARK    3  A    between atoms: O_3  and  C_4
REMARK    4  A    between atoms: C_4  and  C_6
REMARK    5  A    between atoms: C_8  and  C_9
REMARK    6  A    between atoms: C_17  and  C_18
REMARK    7  A    between atoms: C_19  and  C_20
REMARK    8  A    between atoms: C_20  and  C_21
REMARK    9  A    between atoms: C_21  and  C_22
REMARK   10  A    between atoms: C_22  and  C_23
REMARK   11  A    between atoms: C_23  and  O_25
REMARK                            x       y       z     vdW  Elec       q    Type
REMARK                         _______ _______ _______ _____ _____    ______ ____
ROOT
ATOM      1  C   UNL     1       5.776   4.873  16.449  0.00  0.00    +0.000 A 
ATOM      2  S   UNL     1       4.583   3.702  16.839  0.00  0.00    +0.000 S 
ATOM      3  C   UNL     1       4.188   4.566  18.279  0.00  0.00    +0.000 A 
ATOM      4  N   UNL     1       4.855   5.693  18.442  0.00  0.00    +0.000 NA
ATOM      5  C   UNL     1       5.764   5.852  17.415  0.00  0.00    +0.000 A 
ENDROOT
BRANCH   3   6
ATOM      6  C   UNL     1       3.178   4.063  19.230  0.00  0.00    +0.000 A 
ATOM      7  C   UNL     1       1.860   4.552  19.159  0.00  0.00    +0.000 A 
ATOM      8  C   UNL     1       0.885   4.150  20.078  0.00  0.00    +0.000 A 
ATOM      9  C   UNL     1       1.216   3.256  21.093  0.00  0.00    +0.000 A 
ATOM     10  C   UNL     1       2.512   2.764  21.166  0.00  0.00    +0.000 A 
ATOM     11  F   UNL     1       2.837   1.914  22.150  0.00  0.00    +0.000 F 
ATOM     12  C   UNL     1       3.489   3.152  20.250  0.00  0.00    +0.000 A 
ENDBRANCH   3   6
BRANCH   1  13
ATOM     13  C   UNL     1       6.639   4.695  15.308  0.00  0.00    +0.000 C 
ATOM     14  O   UNL     1       7.865   4.710  15.320  0.00  0.00    +0.000 OA
BRANCH  13  15
ATOM     15  O   UNL     1       5.895   4.610  14.173  0.00  0.00    +0.000 OA
BRANCH  15  17
ATOM     16  C   UNL     1       5.336   3.338  12.232  0.00  0.00    +0.000 C 
ATOM     17  C   UNL     1       6.470   3.906  13.068  0.00  0.00    +0.000 C 
ENDBRANCH  15  17
ENDBRANCH  13  15
ENDBRANCH   1  13
BRANCH   5  18
ATOM     18  C   UNL     1       6.637   6.979  17.465  0.00  0.00    +0.000 C 
ATOM     19  C   UNL     1       7.426   8.016  17.506  0.00  0.00    +0.000 C 
BRANCH  19  20
ATOM     20  C   UNL     1       8.347   9.225  17.556  0.00  0.00    +0.000 C 
BRANCH  20  21
ATOM     21  C   UNL     1       8.874   9.417  18.980  0.00  0.00    +0.000 C 
BRANCH  21  22
ATOM     22  C   UNL     1       9.779  10.647  19.119  0.00  0.00    +0.000 C 
BRANCH  22  23
ATOM     23  C   UNL     1       9.339  11.541  20.255  0.00  0.00    +0.000 C 
ATOM     24  O   UNL     1       9.113  11.174  21.396  0.00  0.00    +0.000 OA
BRANCH  23  25
ATOM     25  O   UNL     1       9.209  12.831  19.869  0.00  0.00    +0.000 OA
ATOM     26  H   UNL     1       8.508  13.317  20.346  0.00  0.00    +0.000 HD
ENDBRANCH  23  25
ENDBRANCH  22  23
ENDBRANCH  21  22
ENDBRANCH  20  21
ENDBRANCH  19  20
ENDBRANCH   5  18
TORSDOF 10
ENDMDL
MODEL 9
REMARK VINA RESULT:      -7.4      1.234      1.670
REMARK  Name = 
REMARK  11 active torsions:
REMARK  status: ('A' for Active; 'I' for Inactive)
REMARK    1  A    between atoms: C_1  and  C_2
REMARK    2  A    between atoms: C_2  and  O_3
REMARK    3  A    between atoms: O_3  and  C_4
REMARK    4  A    between atoms: C_4  and  C_6
REMARK    5  A    between atoms: C_8  and  C_9
REMARK    6  A    between atoms: C_17  and  C_18
REMARK    7  A    between atoms: C_19  and  C_20
REMARK    8  A    between atoms: C_20  and  C_21
REMARK    9  A    between atoms: C_21  and  C_22
REMARK   10  A    between atoms: C_22  and  C_23
REMARK   11  A    between atoms: C_23  and  O_25
REMARK                            x       y       z     vdW  Elec       q    Type
REMARK                         _______ _______ _______ _____ _____    ______ ____
ROOT
ATOM      1  C   UNL     1       5.824   4.992  16.327  0.00  0.00    +0.000 A 
ATOM      2  S   UNL     1       4.645   3.779  16.621  0.00  0.00    +0.000 S 
ATOM      3  C   UNL     1       4.117   4.617  18.034  0.00  0.00    +0.000 A 
ATOM      4  N   UNL     1       4.733   5.765  18.252  0.00  0.00    +0.000 NA
ATOM      5  C   UNL     1       5.707   5.962  17.296  0.00  0.00    +0.000 A 
ENDROOT
BRANCH   3   6
ATOM      6  C   UNL     1       3.058   4.073  18.906  0.00  0.00    +0.000 A 
ATOM      7  C   UNL     1       1.866   3.597  18.327  0.00  0.00    +0.000 A 
ATOM      8  C   UNL     1       0.811   3.129  19.118  0.00  0.00    +0.000 A 
ATOM      9  C   UNL     1       0.928   3.138  20.506  0.00  0.00    +0.000 A 
ATOM     10  C   UNL     1       2.103   3.600  21.083  0.00  0.00    +0.000 A 
ATOM     11  F   UNL     1       2.212   3.624  22.419  0.00  0.00    +0.000 F 
ATOM     12  C   UNL     1       3.163   4.061  20.304  0.00  0.00    +0.000 A 
ENDBRANCH   3   6
BRANCH   1  13
ATOM     13  C   UNL     1       6.774   4.854  15.252  0.00  0.00    +0.000 C 
ATOM     14  O   UNL     1       7.994   4.820  15.365  0.00  0.00    +0.000 OA
BRANCH  13  15
ATOM     15  O   UNL     1       6.125   4.869  14.056  0.00  0.00    +0.000 OA
BRANCH  15  17
ATOM     16  C   UNL     1       7.004   3.982  12.022  0.00  0.00    +0.000 C 
ATOM     17  C   UNL     1       6.188   3.678  13.266  0.00  0.00    +0.000 C 
ENDBRANCH  15  17
ENDBRANCH  13  15
ENDBRANCH   1  13
BRANCH   5  18
ATOM     18  C   UNL     1       6.536   7.118  17.415  0.00  0.00    +0.000 C 
ATOM     19  C   UNL     1       7.301   8.168  17.531  0.00  0.00    +0.000 C 
BRANCH  19  20
ATOM     20  C   UNL     1       8.193   9.392  17.664  0.00  0.00    +0.000 C 
BRANCH  20  21
ATOM     21  C   UNL     1       9.011   9.298  18.954  0.00  0.00    +0.000 C 
BRANCH  21  22
ATOM     22  C   UNL     1       9.231  10.662  19.619  0.00  0.00    +0.000 C 
BRANCH  22  23
ATOM     23  C   UNL     1      10.528  11.299  19.177  0.00  0.00    +0.000 C 
ATOM     24  O   UNL     1      10.885  11.441  18.019  0.00  0.00    +0.000 OA
BRANCH  23  25
ATOM     25  O   UNL     1      11.283  11.704  20.224  0.00  0.00    +0.000 OA
ATOM     26  H   UNL     1      10.880  12.425  20.745  0.00  0.00    +0.000 HD
ENDBRANCH  23  25
ENDBRANCH  22  23
ENDBRANCH  21  22
ENDBRANCH  20  21
ENDBRANCH  19  20
ENDBRANCH   5  18
TORSDOF 10
ENDMDL
