MODEL 1
REMARK VINA RESULT:      -8.5      0.000      0.000
REMARK  Name = 
REMARK  8 active torsions:
REMARK  status: ('A' for Active; 'I' for Inactive)
REMARK    1  A    between atoms: C_1  and  C_2
REMARK    2  A    between atoms: C_2  and  C_3
REMARK    3  A    between atoms: C_5  and  N_6
REMARK    4  A    between atoms: C_12  and  C_13
REMARK    5  A    between atoms: N_15  and  C_16
REMARK    6  A    between atoms: C_17  and  C_18
REMARK    7  A    between atoms: C_20  and  C_21
REMARK    8  A    between atoms: C_23  and  C_24
REMARK                            x       y       z     vdW  Elec       q    Type
REMARK                         _______ _______ _______ _____ _____    ______ ____
ROOT
ATOM      1  N   UNL     1       4.344   4.922  18.492  0.00  0.00    +0.000 N 
ATOM      2  C   UNL     1       3.579   6.028  18.622  0.00  0.00    +0.000 A 
ATOM      3  N   UNL     1       3.603   7.088  17.848  0.00  0.00    +0.000 NA
ATOM      4  C   UNL     1       2.701   8.040  18.266  0.00  0.00    +0.000 A 
ATOM      5  C   UNL     1       2.476   9.289  17.652  0.00  0.00    +0.000 A 
ATOM      6  C   UNL     1       1.516  10.163  18.176  0.00  0.00    +0.000 A 
ATOM      7  C   UNL     1       0.790   9.804  19.313  0.00  0.00    +0.000 A 
ATOM      8  C   UNL     1       1.016   8.573  19.951  0.00  0.00    +0.000 A 
ATOM      9  C   UNL     1       1.968   7.700  19.401  0.00  0.00    +0.000 A 
ATOM     10  S   UNL     1       2.444   6.130  19.918  0.00  0.00    +0.000 S 
ATOM     11  H   UNL     1       4.261   4.172  19.166  0.00  0.00    +0.000 HD
ENDROOT
BRANCH   1  14
ATOM     12  C   UNL     1       6.647   4.534  15.651  0.00  0.00    +0.000 A 
ATOM     13  C   UNL     1       5.450   4.688  16.322  0.00  0.00    +0.000 A 
ATOM     14  C   UNL     1       5.481   4.746  17.701  0.00  0.00    +0.000 A 
ATOM     15  N   UNL     1       6.640   4.635  18.372  0.00  0.00    +0.000 NA
ATOM     16  C   UNL     1       7.755   4.490  17.634  0.00  0.00    +0.000 A 
ATOM     17  N   UNL     1       7.822   4.433  16.299  0.00  0.00    +0.000 NA
BRANCH  12  19
ATOM     18  C   UNL     1       5.294   3.893  13.667  0.00  0.00    +0.000 C 
ATOM     19  C   UNL     1       6.644   4.399  14.153  0.00  0.00    +0.000 C 
ENDBRANCH  12  19
ENDBRANCH   1  14
BRANCH   7  20
ATOM     20  C   UNL     1      -0.207  10.727  19.917  0.00  0.00    +0.000 C 
ATOM     21  O   UNL     1      -1.336  10.760  19.430  0.00  0.00    +0.000 OA
ATOM     22  N   UNL     1       0.264  11.537  20.938  0.00  0.00    +0.000 N 
ATOM     23  H   UNL     1       1.259  11.717  20.913  0.00  0.00    +0.000 HD
BRANCH  22  24
ATOM     24  C   UNL     1      -0.542  12.532  21.548  0.00  0.00    +0.000 A 
ATOM     25  C   UNL     1      -0.602  13.850  21.051  0.00  0.00    +0.000 A 
ATOM     26  C   UNL     1       0.081  14.304  19.789  0.00  0.00    +0.000 C 
ATOM     27  C   UNL     1      -1.361  14.813  21.745  0.00  0.00    +0.000 A 
ATOM     28  C   UNL     1      -2.093  14.478  22.885  0.00  0.00    +0.000 A 
ATOM     29  C   UNL     1      -2.879  15.514  23.630  0.00  0.00    +0.000 C 
ATOM     30  C   UNL     1      -2.077  13.154  23.331  0.00  0.00    +0.000 A 
ATOM     31  C   UNL     1      -1.317  12.171  22.673  0.00  0.00    +0.000 A 
ATOM     32  C   UNL     1      -1.295  10.782  23.251  0.00  0.00    +0.000 C 
ENDBRANCH  22  24
ENDBRANCH   7  20
TORSDOF 4
ENDMDL
MODEL 2
REMARK VINA RESULT:      -8.3      2.284      3.515
REMARK  Name = 
REMARK  8 active torsions:
REMARK  status: ('A' for Active; 'I' for Inactive)
REMARK    1  A    between atoms: C_1  and  C_2
REMARK    2  A    between atoms: C_2  and  C_3
REMARK    3  A    between atoms: C_5  and  N_6
REMARK    4  A    between atoms: C_12  and  C_13
REMARK    5  A    between atoms: N_15  and  C_16
REMARK    6  A    between atoms: C_17  and  C_18
REMARK    7  A    between atoms: C_20  and  C_21
REMARK    8  A    between atoms: C_23  and  C_24
REMARK                            x       y       z     vdW  Elec       q    Type
REMARK                         _______ _______ _______ _____ _____    ______ ____
ROOT
ATOM      1  N   UNL     1       2.957   7.047  18.197  0.00  0.00    +0.000 N 
ATOM      2  C   UNL     1       2.217   7.880  18.961  0.00  0.00    +0.000 A 
ATOM      3  N   UNL     1       1.950   7.735  20.238  0.00  0.00    +0.000 NA
ATOM      4  C   UNL     1       1.159   8.760  20.708  0.00  0.00    +0.000 A 
ATOM      5  C   UNL     1       0.699   8.904  22.033  0.00  0.00    +0.000 A 
ATOM      6  C   UNL     1      -0.093  10.005  22.381  0.00  0.00    +0.000 A 
ATOM      7  C   UNL     1      -0.437  10.952  21.415  0.00  0.00    +0.000 A 
ATOM      8  C   UNL     1      -0.006  10.813  20.086  0.00  0.00    +0.000 A 
ATOM      9  C   UNL     1       0.804   9.715  19.758  0.00  0.00    +0.000 A 
ATOM     10  S   UNL     1       1.513   9.287  18.250  0.00  0.00    +0.000 S 
ATOM     11  H   UNL     1       3.076   7.242  17.211  0.00  0.00    +0.000 HD
ENDROOT
BRANCH   1  14
ATOM     12  C   UNL     1       3.062   3.469  19.043  0.00  0.00    +0.000 A 
ATOM     13  C   UNL     1       2.519   4.714  18.790  0.00  0.00    +0.000 A 
ATOM     14  C   UNL     1       3.382   5.751  18.493  0.00  0.00    +0.000 A 
ATOM     15  N   UNL     1       4.712   5.558  18.470  0.00  0.00    +0.000 NA
ATOM     16  C   UNL     1       5.147   4.312  18.726  0.00  0.00    +0.000 A 
ATOM     17  N   UNL     1       4.387   3.248  19.014  0.00  0.00    +0.000 NA
BRANCH  12  19
ATOM     18  C   UNL     1       0.812   2.456  18.734  0.00  0.00    +0.000 C 
ATOM     19  C   UNL     1       2.156   2.334  19.436  0.00  0.00    +0.000 C 
ENDBRANCH  12  19
ENDBRANCH   1  14
BRANCH   7  20
ATOM     20  C   UNL     1      -1.309  12.110  21.746  0.00  0.00    +0.000 C 
ATOM     21  O   UNL     1      -2.024  12.569  20.857  0.00  0.00    +0.000 OA
ATOM     22  N   UNL     1      -1.170  12.623  23.027  0.00  0.00    +0.000 N 
ATOM     23  H   UNL     1      -0.271  12.450  23.458  0.00  0.00    +0.000 HD
BRANCH  22  24
ATOM     24  C   UNL     1      -1.865  13.781  23.459  0.00  0.00    +0.000 A 
ATOM     25  C   UNL     1      -1.305  15.070  23.348  0.00  0.00    +0.000 A 
ATOM     26  C   UNL     1       0.012  15.360  22.680  0.00  0.00    +0.000 C 
ATOM     27  C   UNL     1      -2.012  16.174  23.864  0.00  0.00    +0.000 A 
ATOM     28  C   UNL     1      -3.276  16.024  24.438  0.00  0.00    +0.000 A 
ATOM     29  C   UNL     1      -4.011  17.201  25.005  0.00  0.00    +0.000 C 
ATOM     30  C   UNL     1      -3.848  14.750  24.483  0.00  0.00    +0.000 A 
ATOM     31  C   UNL     1      -3.163  13.624  23.993  0.00  0.00    +0.000 A 
ATOM     32  C   UNL     1      -3.815  12.275  24.137  0.00  0.00    +0.000 C 
ENDBRANCH  22  24
ENDBRANCH   7  20
TORSDOF 4
ENDMDL
MODEL 3
REMARK VINA RESULT:      -8.2      2.476      3.704
REMARK  Name = 
REMARK  8 active torsions:
REMARK  status: ('A' for Active; 'I' for Inactive)
REMARK    1  A    between atoms: C_1  and  C_2
REMARK    2  A    between atoms: C_2  and  C_3
REMARK    3  A    between atoms: C_5  and  N_6
REMARK    4  A    between atoms: C_12  and  C_13
REMARK    5  A    between atoms: N_15  and  C_16
REMARK    6  A    between atoms: C_17  and  C_18
REMARK    7  A    between atoms: C_20  and  C_21
REMARK    8  A    between atoms: C_23  and  C_24
REMARK                            x       y       z     vdW  Elec       q    Type
REMARK                         _______ _______ _______ _____ _____    ______ ____
ROOT
ATOM      1  N   UNL     1       2.999   7.032  18.110  0.00  0.00    +0.000 N 
ATOM      2  C   UNL     1       2.224   7.909  18.784  0.00  0.00    +0.000 A 
ATOM      3  N   UNL     1       1.882   7.836  20.049  0.00  0.00    +0.000 NA
ATOM      4  C   UNL     1       1.074   8.888  20.417  0.00  0.00    +0.000 A 
ATOM      5  C   UNL     1       0.539   9.107  21.703  0.00  0.00    +0.000 A 
ATOM      6  C   UNL     1      -0.263  10.229  21.944  0.00  0.00    +0.000 A 
ATOM      7  C   UNL     1      -0.543  11.124  20.911  0.00  0.00    +0.000 A 
ATOM      8  C   UNL     1      -0.036  10.910  19.618  0.00  0.00    +0.000 A 
ATOM      9  C   UNL     1       0.782   9.792  19.398  0.00  0.00    +0.000 A 
ATOM     10  S   UNL     1       1.573   9.279  17.959  0.00  0.00    +0.000 S 
ATOM     11  H   UNL     1       3.176   7.173  17.124  0.00  0.00    +0.000 HD
ENDROOT
BRANCH   1  14
ATOM     12  C   UNL     1       3.074   3.435  18.873  0.00  0.00    +0.000 A 
ATOM     13  C   UNL     1       2.556   4.656  18.485  0.00  0.00    +0.000 A 
ATOM     14  C   UNL     1       3.395   5.752  18.500  0.00  0.00    +0.000 A 
ATOM     15  N   UNL     1       4.674   5.638  18.900  0.00  0.00    +0.000 NA
ATOM     16  C   UNL     1       5.090   4.410  19.255  0.00  0.00    +0.000 A 
ATOM     17  N   UNL     1       4.352   3.293  19.264  0.00  0.00    +0.000 NA
BRANCH  12  19
ATOM     18  C   UNL     1       0.714   2.655  18.802  0.00  0.00    +0.000 C 
ATOM     19  C   UNL     1       2.171   2.233  18.933  0.00  0.00    +0.000 C 
ENDBRANCH  12  19
ENDBRANCH   1  14
BRANCH   7  20
ATOM     20  C   UNL     1      -1.423  12.303  21.127  0.00  0.00    +0.000 C 
ATOM     21  O   UNL     1      -1.239  13.299  20.431  0.00  0.00    +0.000 OA
ATOM     22  N   UNL     1      -2.331  12.192  22.169  0.00  0.00    +0.000 N 
ATOM     23  H   UNL     1      -2.064  11.544  22.898  0.00  0.00    +0.000 HD
BRANCH  22  24
ATOM     24  C   UNL     1      -3.174  13.266  22.556  0.00  0.00    +0.000 A 
ATOM     25  C   UNL     1      -2.756  14.244  23.481  0.00  0.00    +0.000 A 
ATOM     26  C   UNL     1      -1.368  14.314  24.061  0.00  0.00    +0.000 C 
ATOM     27  C   UNL     1      -3.664  15.242  23.883  0.00  0.00    +0.000 A 
ATOM     28  C   UNL     1      -4.952  15.312  23.350  0.00  0.00    +0.000 A 
ATOM     29  C   UNL     1      -5.920  16.364  23.802  0.00  0.00    +0.000 C 
ATOM     30  C   UNL     1      -5.333  14.375  22.386  0.00  0.00    +0.000 A 
ATOM     31  C   UNL     1      -4.458  13.354  21.973  0.00  0.00    +0.000 A 
ATOM     32  C   UNL     1      -4.962  12.341  20.981  0.00  0.00    +0.000 C 
ENDBRANCH  22  24
ENDBRANCH   7  20
TORSDOF 4
ENDMDL
MODEL 4
REMARK VINA RESULT:      -8.2      1.372      1.623
REMARK  Name = 
REMARK  8 active torsions:
REMARK  status: ('A' for Active; 'I' for Inactive)
REMARK    1  A    between atoms: C_1  and  C_2
REMARK    2  A    between atoms: C_2  and  C_3
REMARK    3  A    between atoms: C_5  and  N_6
REMARK    4  A    between atoms: C_12  and  C_13
REMARK    5  A    between atoms: N_15  and  C_16
REMARK    6  A    between atoms: C_17  and  C_18
REMARK    7  A    between atoms: C_20  and  C_21
REMARK    8  A    between atoms: C_23  and  C_24
REMARK                            x       y       z     vdW  Elec       q    Type
REMARK                         _______ _______ _______ _____ _____    ______ ____
ROOT
ATOM      1  N   UNL     1       4.215   4.817  18.321  0.00  0.00    +0.000 N 
ATOM      2  C   UNL     1       3.465   5.911  18.578  0.00  0.00    +0.000 A 
ATOM      3  N   UNL     1       3.365   6.982  17.824  0.00  0.00    +0.000 NA
ATOM      4  C   UNL     1       2.523   7.916  18.384  0.00  0.00    +0.000 A 
ATOM      5  C   UNL     1       2.197   9.171  17.827  0.00  0.00    +0.000 A 
ATOM      6  C   UNL     1       1.315  10.025  18.499  0.00  0.00    +0.000 A 
ATOM      7  C   UNL     1       0.766   9.641  19.724  0.00  0.00    +0.000 A 
ATOM      8  C   UNL     1       1.096   8.405  20.303  0.00  0.00    +0.000 A 
ATOM      9  C   UNL     1       1.967   7.552  19.608  0.00  0.00    +0.000 A 
ATOM     10  S   UNL     1       2.529   5.981  20.027  0.00  0.00    +0.000 S 
ATOM     11  H   UNL     1       4.239   4.057  18.989  0.00  0.00    +0.000 HD
ENDROOT
BRANCH   1  14
ATOM     12  C   UNL     1       6.075   4.255  15.200  0.00  0.00    +0.000 A 
ATOM     13  C   UNL     1       4.989   4.354  16.048  0.00  0.00    +0.000 A 
ATOM     14  C   UNL     1       5.226   4.666  17.372  0.00  0.00    +0.000 A 
ATOM     15  N   UNL     1       6.478   4.847  17.826  0.00  0.00    +0.000 NA
ATOM     16  C   UNL     1       7.471   4.733  16.927  0.00  0.00    +0.000 A 
ATOM     17  N   UNL     1       7.336   4.444  15.627  0.00  0.00    +0.000 NA
BRANCH  12  19
ATOM     18  C   UNL     1       6.997   4.359  12.893  0.00  0.00    +0.000 C 
ATOM     19  C   UNL     1       5.860   3.850  13.766  0.00  0.00    +0.000 C 
ENDBRANCH  12  19
ENDBRANCH   1  14
BRANCH   7  20
ATOM     20  C   UNL     1      -0.143  10.543  20.479  0.00  0.00    +0.000 C 
ATOM     21  O   UNL     1      -0.520  10.186  21.593  0.00  0.00    +0.000 OA
ATOM     22  N   UNL     1      -0.552  11.686  19.807  0.00  0.00    +0.000 N 
ATOM     23  H   UNL     1      -0.536  11.614  18.799  0.00  0.00    +0.000 HD
BRANCH  22  24
ATOM     24  C   UNL     1      -1.490  12.594  20.361  0.00  0.00    +0.000 A 
ATOM     25  C   UNL     1      -1.124  13.533  21.347  0.00  0.00    +0.000 A 
ATOM     26  C   UNL     1       0.287  13.739  21.829  0.00  0.00    +0.000 C 
ATOM     27  C   UNL     1      -2.116  14.357  21.914  0.00  0.00    +0.000 A 
ATOM     28  C   UNL     1      -3.442  14.298  21.485  0.00  0.00    +0.000 A 
ATOM     29  C   UNL     1      -4.496  15.162  22.110  0.00  0.00    +0.000 C 
ATOM     30  C   UNL     1      -3.781  13.409  20.461  0.00  0.00    +0.000 A 
ATOM     31  C   UNL     1      -2.819  12.559  19.885  0.00  0.00    +0.000 A 
ATOM     32  C   UNL     1      -3.271  11.581  18.835  0.00  0.00    +0.000 C 
ENDBRANCH  22  24
ENDBRANCH   7  20
TORSDOF 4
ENDMDL
MODEL 5
REMARK VINA RESULT:      -8.1      2.462      3.665
REMARK  Name = 
REMARK  8 active torsions:
REMARK  status: ('A' for Active; 'I' for Inactive)
REMARK    1  A    between atoms: C_1  and  C_2
REMARK    2  A    between atoms: C_2  and  C_3
REMARK    3  A    between atoms: C_5  and  N_6
REMARK    4  A    between atoms: C_12  and  C_13
REMARK    5  A    between atoms: N_15  and  C_16
REMARK    6  A    between atoms: C_17  and  C_18
REMARK    7  A    between atoms: C_20  and  C_21
REMARK    8  A    between atoms: C_23  and  C_24
REMARK                            x       y       z     vdW  Elec       q    Type
REMARK                         _______ _______ _______ _____ _____    ______ ____
ROOT
ATOM      1  N   UNL     1       3.076   6.978  18.086  0.00  0.00    +0.000 N 
ATOM      2  C   UNL     1       2.279   7.859  18.729  0.00  0.00    +0.000 A 
ATOM      3  N   UNL     1       1.897   7.794  19.983  0.00  0.00    +0.000 NA
ATOM      4  C   UNL     1       1.078   8.848  20.317  0.00  0.00    +0.000 A 
ATOM      5  C   UNL     1       0.502   9.075  21.585  0.00  0.00    +0.000 A 
ATOM      6  C   UNL     1      -0.308  10.197  21.793  0.00  0.00    +0.000 A 
ATOM      7  C   UNL     1      -0.555  11.086  20.745  0.00  0.00    +0.000 A 
ATOM      8  C   UNL     1      -0.008  10.864  19.470  0.00  0.00    +0.000 A 
ATOM      9  C   UNL     1       0.817   9.744  19.284  0.00  0.00    +0.000 A 
ATOM     10  S   UNL     1       1.654   9.222  17.874  0.00  0.00    +0.000 S 
ATOM     11  H   UNL     1       3.284   7.112  17.105  0.00  0.00    +0.000 HD
ENDROOT
BRANCH   1  14
ATOM     12  C   UNL     1       3.130   3.386  18.875  0.00  0.00    +0.000 A 
ATOM     13  C   UNL     1       2.623   4.604  18.463  0.00  0.00    +0.000 A 
ATOM     14  C   UNL     1       3.461   5.701  18.497  0.00  0.00    +0.000 A 
ATOM     15  N   UNL     1       4.726   5.591  18.937  0.00  0.00    +0.000 NA
ATOM     16  C   UNL     1       5.131   4.366  19.315  0.00  0.00    +0.000 A 
ATOM     17  N   UNL     1       4.395   3.248  19.307  0.00  0.00    +0.000 NA
BRANCH  12  19
ATOM     18  C   UNL     1       0.766   2.615  18.906  0.00  0.00    +0.000 C 
ATOM     19  C   UNL     1       2.226   2.184  18.915  0.00  0.00    +0.000 C 
ENDBRANCH  12  19
ENDBRANCH   1  14
BRANCH   7  20
ATOM     20  C   UNL     1      -1.443  12.265  20.925  0.00  0.00    +0.000 C 
ATOM     21  O   UNL     1      -1.297  13.221  20.167  0.00  0.00    +0.000 OA
ATOM     22  N   UNL     1      -2.313  12.204  22.003  0.00  0.00    +0.000 N 
ATOM     23  H   UNL     1      -2.012  11.601  22.758  0.00  0.00    +0.000 HD
BRANCH  22  24
ATOM     24  C   UNL     1      -3.155  13.288  22.358  0.00  0.00    +0.000 A 
ATOM     25  C   UNL     1      -4.463  13.414  21.846  0.00  0.00    +0.000 A 
ATOM     26  C   UNL     1      -5.127  12.383  20.974  0.00  0.00    +0.000 C 
ATOM     27  C   UNL     1      -5.223  14.553  22.175  0.00  0.00    +0.000 A 
ATOM     28  C   UNL     1      -4.729  15.534  23.036  0.00  0.00    +0.000 A 
ATOM     29  C   UNL     1      -5.537  16.754  23.363  0.00  0.00    +0.000 C 
ATOM     30  C   UNL     1      -3.457  15.366  23.589  0.00  0.00    +0.000 A 
ATOM     31  C   UNL     1      -2.663  14.250  23.269  0.00  0.00    +0.000 A 
ATOM     32  C   UNL     1      -1.277  14.171  23.850  0.00  0.00    +0.000 C 
ENDBRANCH  22  24
ENDBRANCH   7  20
TORSDOF 4
ENDMDL
MODEL 6
REMARK VINA RESULT:      -8.1      2.473      4.067
REMARK  Name = 
REMARK  8 active torsions:
REMARK  status: ('A' for Active; 'I' for Inactive)
REMARK    1  A    between atoms: C_1  and  C_2
REMARK    2  A    between atoms: C_2  and  C_3
REMARK    3  A    between atoms: C_5  and  N_6
REMARK    4  A    between atoms: C_12  and  C_13
REMARK    5  A    between atoms: N_15  and  C_16
REMARK    6  A    between atoms: C_17  and  C_18
REMARK    7  A    between atoms: C_20  and  C_21
REMARK    8  A    between atoms: C_23  and  C_24
REMARK                            x       y       z     vdW  Elec       q    Type
REMARK                         _______ _______ _______ _____ _____    ______ ____
ROOT
ATOM      1  N   UNL     1       2.706   7.311  18.430  0.00  0.00    +0.000 N 
ATOM      2  C   UNL     1       1.955   8.128  19.200  0.00  0.00    +0.000 A 
ATOM      3  N   UNL     1       1.698   7.975  20.478  0.00  0.00    +0.000 NA
ATOM      4  C   UNL     1       0.890   8.983  20.955  0.00  0.00    +0.000 A 
ATOM      5  C   UNL     1       0.434   9.116  22.283  0.00  0.00    +0.000 A 
ATOM      6  C   UNL     1      -0.376  10.200  22.638  0.00  0.00    +0.000 A 
ATOM      7  C   UNL     1      -0.744  11.143  21.677  0.00  0.00    +0.000 A 
ATOM      8  C   UNL     1      -0.317  11.015  20.345  0.00  0.00    +0.000 A 
ATOM      9  C   UNL     1       0.511   9.933  20.010  0.00  0.00    +0.000 A 
ATOM     10  S   UNL     1       1.220   9.523  18.497  0.00  0.00    +0.000 S 
ATOM     11  H   UNL     1       2.815   7.511  17.444  0.00  0.00    +0.000 HD
ENDROOT
BRANCH   1  14
ATOM     12  C   UNL     1       2.885   3.739  19.284  0.00  0.00    +0.000 A 
ATOM     13  C   UNL     1       2.317   4.974  19.040  0.00  0.00    +0.000 A 
ATOM     14  C   UNL     1       3.157   6.023  18.720  0.00  0.00    +0.000 A 
ATOM     15  N   UNL     1       4.489   5.850  18.668  0.00  0.00    +0.000 NA
ATOM     16  C   UNL     1       4.949   4.612  18.917  0.00  0.00    +0.000 A 
ATOM     17  N   UNL     1       4.213   3.538  19.225  0.00  0.00    +0.000 NA
BRANCH  12  19
ATOM     18  C   UNL     1       0.844   2.430  18.733  0.00  0.00    +0.000 C 
ATOM     19  C   UNL     1       2.006   2.591  19.702  0.00  0.00    +0.000 C 
ENDBRANCH  12  19
ENDBRANCH   1  14
BRANCH   7  20
ATOM     20  C   UNL     1      -1.636  12.283  22.015  0.00  0.00    +0.000 C 
ATOM     21  O   UNL     1      -2.422  12.679  21.156  0.00  0.00    +0.000 OA
ATOM     22  N   UNL     1      -1.436  12.854  23.263  0.00  0.00    +0.000 N 
ATOM     23  H   UNL     1      -0.507  12.731  23.642  0.00  0.00    +0.000 HD
BRANCH  22  24
ATOM     24  C   UNL     1      -2.146  14.005  23.691  0.00  0.00    +0.000 A 
ATOM     25  C   UNL     1      -3.429  13.917  24.269  0.00  0.00    +0.000 A 
ATOM     26  C   UNL     1      -4.121  12.618  24.584  0.00  0.00    +0.000 C 
ATOM     27  C   UNL     1      -4.115  15.101  24.604  0.00  0.00    +0.000 A 
ATOM     28  C   UNL     1      -3.533  16.355  24.421  0.00  0.00    +0.000 A 
ATOM     29  C   UNL     1      -4.280  17.611  24.759  0.00  0.00    +0.000 C 
ATOM     30  C   UNL     1      -2.235  16.428  23.907  0.00  0.00    +0.000 A 
ATOM     31  C   UNL     1      -1.528  15.267  23.546  0.00  0.00    +0.000 A 
ATOM     32  C   UNL     1      -0.161  15.427  22.937  0.00  0.00    +0.000 C 
ENDBRANCH  22  24
ENDBRANCH   7  20
TORSDOF 4
ENDMDL
MODEL 7
REMARK VINA RESULT:      -8.1      2.705      4.629
REMARK  Name = 
REMARK  8 active torsions:
REMARK  status: ('A' for Active; 'I' for Inactive)
REMARK    1  A    between atoms: C_1  and  C_2
REMARK    2  A    between atoms: C_2  and  C_3
REMARK    3  A    between atoms: C_5  and  N_6
REMARK    4  A    between atoms: C_12  and  C_13
REMARK    5  A    between atoms: N_15  and  C_16
REMARK    6  A    between atoms: C_17  and  C_18
REMARK    7  A    between atoms: C_20  and  C_21
REMARK    8  A    between atoms: C_23  and  C_24
REMARK                            x       y       z     vdW  Elec       q    Type
REMARK                         _______ _______ _______ _____ _____    ______ ____
ROOT
ATOM      1  N   UNL     1       2.497   7.352  18.781  0.00  0.00    +0.000 N 
ATOM      2  C   UNL     1       1.816   8.181  19.602  0.00  0.00    +0.000 A 
ATOM      3  N   UNL     1       1.490   7.946  20.852  0.00  0.00    +0.000 NA
ATOM      4  C   UNL     1       0.787   8.997  21.397  0.00  0.00    +0.000 A 
ATOM      5  C   UNL     1       0.296   9.064  22.717  0.00  0.00    +0.000 A 
ATOM      6  C   UNL     1      -0.397  10.201  23.148  0.00  0.00    +0.000 A 
ATOM      7  C   UNL     1      -0.612  11.264  22.269  0.00  0.00    +0.000 A 
ATOM      8  C   UNL     1      -0.149  11.206  20.944  0.00  0.00    +0.000 A 
ATOM      9  C   UNL     1       0.561  10.067  20.534  0.00  0.00    +0.000 A 
ATOM     10  S   UNL     1       1.278   9.711  19.011  0.00  0.00    +0.000 S 
ATOM     11  H   UNL     1       2.669   7.625  17.822  0.00  0.00    +0.000 HD
ENDROOT
BRANCH   1  14
ATOM     12  C   UNL     1       2.272   3.770  19.581  0.00  0.00    +0.000 A 
ATOM     13  C   UNL     1       1.876   5.089  19.471  0.00  0.00    +0.000 A 
ATOM     14  C   UNL     1       2.783   5.998  18.963  0.00  0.00    +0.000 A 
ATOM     15  N   UNL     1       4.020   5.614  18.604  0.00  0.00    +0.000 NA
ATOM     16  C   UNL     1       4.313   4.310  18.743  0.00  0.00    +0.000 A 
ATOM     17  N   UNL     1       3.499   3.359  19.217  0.00  0.00    +0.000 NA
BRANCH  12  19
ATOM     18  C   UNL     1       1.574   2.658  21.693  0.00  0.00    +0.000 C 
ATOM     19  C   UNL     1       1.334   2.765  20.194  0.00  0.00    +0.000 C 
ENDBRANCH  12  19
ENDBRANCH   1  14
BRANCH   7  20
ATOM     20  C   UNL     1      -1.378  12.468  22.686  0.00  0.00    +0.000 C 
ATOM     21  O   UNL     1      -0.851  13.246  23.478  0.00  0.00    +0.000 OA
ATOM     22  N   UNL     1      -2.672  12.557  22.195  0.00  0.00    +0.000 N 
ATOM     23  H   UNL     1      -3.097  11.671  21.953  0.00  0.00    +0.000 HD
BRANCH  22  24
ATOM     24  C   UNL     1      -3.557  13.598  22.577  0.00  0.00    +0.000 A 
ATOM     25  C   UNL     1      -4.439  13.462  23.668  0.00  0.00    +0.000 A 
ATOM     26  C   UNL     1      -4.461  12.271  24.588  0.00  0.00    +0.000 C 
ATOM     27  C   UNL     1      -5.347  14.501  23.952  0.00  0.00    +0.000 A 
ATOM     28  C   UNL     1      -5.358  15.681  23.206  0.00  0.00    +0.000 A 
ATOM     29  C   UNL     1      -6.343  16.772  23.500  0.00  0.00    +0.000 C 
ATOM     30  C   UNL     1      -4.436  15.830  22.167  0.00  0.00    +0.000 A 
ATOM     31  C   UNL     1      -3.526  14.806  21.845  0.00  0.00    +0.000 A 
ATOM     32  C   UNL     1      -2.608  15.012  20.671  0.00  0.00    +0.000 C 
ENDBRANCH  22  24
ENDBRANCH   7  20
TORSDOF 4
ENDMDL
MODEL 8
REMARK VINA RESULT:      -8.0      2.241      3.488
REMARK  Name = 
REMARK  8 active torsions:
REMARK  status: ('A' for Active; 'I' for Inactive)
REMARK    1  A    between atoms: C_1  and  C_2
REMARK    2  A    between atoms: C_2  and  C_3
REMARK    3  A    between atoms: C_5  and  N_6
REMARK    4  A    between atoms: C_12  and  C_13
REMARK    5  A    between atoms: N_15  and  C_16
REMARK    6  A    between atoms: C_17  and  C_18
REMARK    7  A    between atoms: C_20  and  C_21
REMARK    8  A    between atoms: C_23  and  C_24
REMARK                            x       y       z     vdW  Elec       q    Type
REMARK                         _______ _______ _______ _____ _____    ______ ____
ROOT
ATOM      1  N   UNL     1       2.949   7.299  17.824  0.00  0.00    +0.000 N 
ATOM      2  C   UNL     1       2.210   7.982  18.724  0.00  0.00    +0.000 A 
ATOM      3  N   UNL     1       2.011   7.653  19.980  0.00  0.00    +0.000 NA
ATOM      4  C   UNL     1       1.198   8.563  20.618  0.00  0.00    +0.000 A 
ATOM      5  C   UNL     1       0.795   8.504  21.968  0.00  0.00    +0.000 A 
ATOM      6  C   UNL     1      -0.029   9.505  22.496  0.00  0.00    +0.000 A 
ATOM      7  C   UNL     1      -0.461  10.555  21.684  0.00  0.00    +0.000 A 
ATOM      8  C   UNL     1      -0.088  10.618  20.331  0.00  0.00    +0.000 A 
ATOM      9  C   UNL     1       0.754   9.617  19.823  0.00  0.00    +0.000 A 
ATOM     10  S   UNL     1       1.409   9.434  18.243  0.00  0.00    +0.000 S 
ATOM     11  H   UNL     1       3.011   7.631  16.870  0.00  0.00    +0.000 HD
ENDROOT
BRANCH   1  14
ATOM     12  C   UNL     1       3.263   3.638  17.974  0.00  0.00    +0.000 A 
ATOM     13  C   UNL     1       2.648   4.872  17.891  0.00  0.00    +0.000 A 
ATOM     14  C   UNL     1       3.446   5.998  17.922  0.00  0.00    +0.000 A 
ATOM     15  N   UNL     1       4.780   5.897  18.050  0.00  0.00    +0.000 NA
ATOM     16  C   UNL     1       5.289   4.654  18.120  0.00  0.00    +0.000 A 
ATOM     17  N   UNL     1       4.596   3.509  18.089  0.00  0.00    +0.000 NA
BRANCH  12  19
ATOM     18  C   UNL     1       1.058   2.689  18.622  0.00  0.00    +0.000 C 
ATOM     19  C   UNL     1       2.419   2.392  18.011  0.00  0.00    +0.000 C 
ENDBRANCH  12  19
ENDBRANCH   1  14
BRANCH   7  20
ATOM     20  C   UNL     1      -1.369  11.611  22.205  0.00  0.00    +0.000 C 
ATOM     21  O   UNL     1      -1.911  11.425  23.292  0.00  0.00    +0.000 OA
ATOM     22  N   UNL     1      -1.585  12.689  21.360  0.00  0.00    +0.000 N 
ATOM     23  H   UNL     1      -1.452  12.492  20.377  0.00  0.00    +0.000 HD
BRANCH  22  24
ATOM     24  C   UNL     1      -2.496  13.729  21.678  0.00  0.00    +0.000 A 
ATOM     25  C   UNL     1      -2.156  14.772  22.564  0.00  0.00    +0.000 A 
ATOM     26  C   UNL     1      -0.790  14.949  23.168  0.00  0.00    +0.000 C 
ATOM     27  C   UNL     1      -3.129  15.734  22.899  0.00  0.00    +0.000 A 
ATOM     28  C   UNL     1      -4.406  15.704  22.336  0.00  0.00    +0.000 A 
ATOM     29  C   UNL     1      -5.442  16.718  22.717  0.00  0.00    +0.000 C 
ATOM     30  C   UNL     1      -4.710  14.703  21.410  0.00  0.00    +0.000 A 
ATOM     31  C   UNL     1      -3.769  13.717  21.065  0.00  0.00    +0.000 A 
ATOM     32  C   UNL     1      -4.191  12.632  20.111  0.00  0.00    +0.000 C 
ENDBRANCH  22  24
ENDBRANCH   7  20
TORSDOF 4
ENDMDL
MODEL 9
REMARK VINA RESULT:      -7.9      2.155      3.466
REMARK  Name = 
REMARK  8 active torsions:
REMARK  status: ('A' for Active; 'I' for Inactive)
REMARK    1  A    between atoms: C_1  and  C_2
REMARK    2  A    between atoms: C_2  and  C_3
REMARK    3  A    between atoms: C_5  and  N_6
REMARK    4  A    between atoms: C_12  and  C_13
REMARK    5  A    between atoms: N_15  and  C_16
REMARK    6  A    between atoms: C_17  and  C_18
REMARK    7  A    between atoms: C_20  and  C_21
REMARK    8  A    between atoms: C_23  and  C_24
REMARK                            x       y       z     vdW  Elec       q    Type
REMARK                         _______ _______ _______ _____ _____    ______ ____
ROOT
ATOM      1  N   UNL     1       2.958   7.644  17.734  0.00  0.00    +0.000 N 
ATOM      2  C   UNL     1       2.210   8.248  18.681  0.00  0.00    +0.000 A 
ATOM      3  N   UNL     1       2.125   7.902  19.945  0.00  0.00    +0.000 NA
ATOM      4  C   UNL     1       1.264   8.724  20.637  0.00  0.00    +0.000 A 
ATOM      5  C   UNL     1       0.955   8.626  22.010  0.00  0.00    +0.000 A 
ATOM      6  C   UNL     1       0.066   9.537  22.592  0.00  0.00    +0.000 A 
ATOM      7  C   UNL     1      -0.523  10.535  21.814  0.00  0.00    +0.000 A 
ATOM      8  C   UNL     1      -0.244  10.634  20.441  0.00  0.00    +0.000 A 
ATOM      9  C   UNL     1       0.664   9.725  19.877  0.00  0.00    +0.000 A 
ATOM     10  S   UNL     1       1.234   9.607  18.258  0.00  0.00    +0.000 S 
ATOM     11  H   UNL     1       2.926   7.978  16.779  0.00  0.00    +0.000 HD
ENDROOT
BRANCH   1  14
ATOM     12  C   UNL     1       5.472   4.965  17.909  0.00  0.00    +0.000 A 
ATOM     13  C   UNL     1       4.965   6.247  17.825  0.00  0.00    +0.000 A 
ATOM     14  C   UNL     1       3.593   6.402  17.794  0.00  0.00    +0.000 A 
ATOM     15  N   UNL     1       2.777   5.335  17.825  0.00  0.00    +0.000 NA
ATOM     16  C   UNL     1       3.361   4.128  17.910  0.00  0.00    +0.000 A 
ATOM     17  N   UNL     1       4.676   3.883  17.954  0.00  0.00    +0.000 NA
BRANCH  12  19
ATOM     18  C   UNL     1       7.677   5.902  18.576  0.00  0.00    +0.000 C 
ATOM     19  C   UNL     1       6.962   4.756  17.876  0.00  0.00    +0.000 C 
ENDBRANCH  12  19
ENDBRANCH   1  14
BRANCH   7  20
ATOM     20  C   UNL     1      -1.501  11.491  22.396  0.00  0.00    +0.000 C 
ATOM     21  O   UNL     1      -2.056  11.185  23.449  0.00  0.00    +0.000 OA
ATOM     22  N   UNL     1      -1.759  12.623  21.637  0.00  0.00    +0.000 N 
ATOM     23  H   UNL     1      -1.593  12.517  20.646  0.00  0.00    +0.000 HD
BRANCH  22  24
ATOM     24  C   UNL     1      -2.735  13.581  22.015  0.00  0.00    +0.000 A 
ATOM     25  C   UNL     1      -2.502  14.515  23.046  0.00  0.00    +0.000 A 
ATOM     26  C   UNL     1      -1.188  14.662  23.765  0.00  0.00    +0.000 C 
ATOM     27  C   UNL     1      -3.538  15.390  23.427  0.00  0.00    +0.000 A 
ATOM     28  C   UNL     1      -4.771  15.386  22.774  0.00  0.00    +0.000 A 
ATOM     29  C   UNL     1      -5.875  16.306  23.202  0.00  0.00    +0.000 C 
ATOM     30  C   UNL     1      -4.968  14.500  21.712  0.00  0.00    +0.000 A 
ATOM     31  C   UNL     1      -3.962  13.600  21.316  0.00  0.00    +0.000 A 
ATOM     32  C   UNL     1      -4.271  12.631  20.207  0.00  0.00    +0.000 C 
ENDBRANCH  22  24
ENDBRANCH   7  20
TORSDOF 4
ENDMDL
