MODEL 1
REMARK VINA RESULT:      -8.3      0.000      0.000
REMARK  Name = 
REMARK  15 active torsions:
REMARK  status: ('A' for Active; 'I' for Inactive)
REMARK    1  A    between atoms: C_1  and  C_2
REMARK    2  A    between atoms: C_2  and  C_3
REMARK    3  A    between atoms: C_3  and  C_4
REMARK    4  A    between atoms: C_4  and  C_5
REMARK    5  A    between atoms: C_5  and  N_6
REMARK    6  A    between atoms: C_9  and  C_10
REMARK    7  A    between atoms: C_11  and  C_12
REMARK    8  A    between atoms: C_16  and  C_17
REMARK    9  A    between atoms: C_17  and  C_18
REMARK   10  A    between atoms: C_23  and  N_24
REMARK   11  A    between atoms: N_24  and  C_25
REMARK   12  A    between atoms: C_27  and  C_28
REMARK   13  A    between atoms: C_28  and  O_29
REMARK   14  A    between atoms: C_30  and  O_31
REMARK   15  A    between atoms: C_32  and  O_33
REMARK                            x       y       z     vdW  Elec       q    Type
REMARK                         _______ _______ _______ _____ _____    ______ ____
ROOT
ATOM      1  N   UNL     1       0.017   8.821  21.026  0.00  0.00    +0.000 N 
ATOM      2  C   UNL     1       1.062   8.096  20.474  0.00  0.00    +0.000 A 
ATOM      3  N   UNL     1       1.575   8.636  19.374  0.00  0.00    +0.000 NA
ATOM      4  C   UNL     1       2.517   7.933  18.699  0.00  0.00    +0.000 A 
ATOM      5  C   UNL     1       2.941   8.626  17.435  0.00  0.00    +0.000 C 
ATOM      6  C   UNL     1       3.009   6.684  19.111  0.00  0.00    +0.000 A 
ATOM      7  C   UNL     1       2.463   6.239  20.330  0.00  0.00    +0.000 A 
ATOM      8  N   UNL     1       1.493   6.942  20.980  0.00  0.00    +0.000 NA
ATOM      9  H   UNL     1       0.062   9.735  20.589  0.00  0.00    +0.000 HD
ENDROOT
BRANCH   6  10
ATOM     10  C   UNL     1       3.876   5.889  18.197  0.00  0.00    +0.000 A 
ATOM     11  C   UNL     1       3.672   5.035  17.123  0.00  0.00    +0.000 A 
ATOM     12  C   UNL     1       4.890   5.026  16.360  0.00  0.00    +0.000 A 
ATOM     13  C   UNL     1       5.310   4.570  15.095  0.00  0.00    +0.000 A 
ATOM     14  C   UNL     1       6.607   4.916  14.666  0.00  0.00    +0.000 A 
ATOM     15  N   UNL     1       7.488   5.582  15.454  0.00  0.00    +0.000 NA
ATOM     16  C   UNL     1       7.111   5.976  16.703  0.00  0.00    +0.000 A 
ATOM     17  C   UNL     1       5.813   5.723  17.121  0.00  0.00    +0.000 A 
ATOM     18  O   UNL     1       5.223   6.162  18.268  0.00  0.00    +0.000 OA
BRANCH  14  19
ATOM     19  C   UNL     1       7.020   4.549  13.248  0.00  0.00    +0.000 C 
ATOM     20  C   UNL     1       6.083   3.645  12.449  0.00  0.00    +0.000 C 
ENDBRANCH  14  19
ENDBRANCH   6  10
BRANCH   7  21
ATOM     21  N   UNL     1       2.843   5.022  20.916  0.00  0.00    +0.000 N 
ATOM     22  H   UNL     1       3.502   5.126  21.686  0.00  0.00    +0.000 HD
BRANCH  21  23
ATOM     23  C   UNL     1       1.792   3.995  21.112  0.00  0.00    +0.000 C 
ATOM     24  C   UNL     1       2.393   2.611  21.434  0.00  0.00    +0.000 C 
ATOM     25  C   UNL     1       2.722   1.953  20.075  0.00  0.00    +0.000 C 
ATOM     26  C   UNL     1       2.276   2.996  19.028  0.00  0.00    +0.000 C 
ATOM     27  C   UNL     1       1.131   3.731  19.755  0.00  0.00    +0.000 C 
BRANCH  26  28
ATOM     28  O   UNL     1       1.770   2.400  17.836  0.00  0.00    +0.000 OA
ATOM     29  H   UNL     1       2.531   2.298  17.239  0.00  0.00    +0.000 HD
ENDBRANCH  26  28
BRANCH  27  30
ATOM     30  O   UNL     1      -0.006   2.859  19.871  0.00  0.00    +0.000 OA
ATOM     31  H   UNL     1       0.167   2.110  19.266  0.00  0.00    +0.000 HD
ENDBRANCH  27  30
BRANCH  25  32
ATOM     32  C   UNL     1       4.167   1.462  19.996  0.00  0.00    +0.000 C 
BRANCH  32  33
ATOM     33  O   UNL     1       4.440   0.783  18.771  0.00  0.00    +0.000 OA
ATOM     34  H   UNL     1       4.726  -0.112  19.003  0.00  0.00    +0.000 HD
ENDBRANCH  32  33
ENDBRANCH  25  32
ENDBRANCH  21  23
ENDBRANCH   7  21
BRANCH   1  35
ATOM     35  C   UNL     1      -0.125   8.823  22.468  0.00  0.00    +0.000 C 
BRANCH  35  36
ATOM     36  C   UNL     1      -0.736  10.158  22.939  0.00  0.00    +0.000 C 
BRANCH  36  37
ATOM     37  C   UNL     1      -0.450  11.328  21.987  0.00  0.00    +0.000 C 
BRANCH  37  39
ATOM     38  C   UNL     1      -2.546  12.157  23.124  0.00  0.00    +0.000 C 
ATOM     39  C   UNL     1      -1.340  12.541  22.278  0.00  0.00    +0.000 C 
ENDBRANCH  37  39
ENDBRANCH  36  37
ENDBRANCH  35  36
ENDBRANCH   1  35
TORSDOF 12
ENDMDL
MODEL 2
REMARK VINA RESULT:      -7.2      1.752      8.121
REMARK  Name = 
REMARK  15 active torsions:
REMARK  status: ('A' for Active; 'I' for Inactive)
REMARK    1  A    between atoms: C_1  and  C_2
REMARK    2  A    between atoms: C_2  and  C_3
REMARK    3  A    between atoms: C_3  and  C_4
REMARK    4  A    between atoms: C_4  and  C_5
REMARK    5  A    between atoms: C_5  and  N_6
REMARK    6  A    between atoms: C_9  and  C_10
REMARK    7  A    between atoms: C_11  and  C_12
REMARK    8  A    between atoms: C_16  and  C_17
REMARK    9  A    between atoms: C_17  and  C_18
REMARK   10  A    between atoms: C_23  and  N_24
REMARK   11  A    between atoms: N_24  and  C_25
REMARK   12  A    between atoms: C_27  and  C_28
REMARK   13  A    between atoms: C_28  and  O_29
REMARK   14  A    between atoms: C_30  and  O_31
REMARK   15  A    between atoms: C_32  and  O_33
REMARK                            x       y       z     vdW  Elec       q    Type
REMARK                         _______ _______ _______ _____ _____    ______ ____
ROOT
ATOM      1  N   UNL     1       5.573   6.360  16.988  0.00  0.00    +0.000 N 
ATOM      2  C   UNL     1       4.430   6.675  17.706  0.00  0.00    +0.000 A 
ATOM      3  N   UNL     1       3.841   7.801  17.321  0.00  0.00    +0.000 NA
ATOM      4  C   UNL     1       2.789   8.251  18.048  0.00  0.00    +0.000 A 
ATOM      5  C   UNL     1       2.281   9.573  17.548  0.00  0.00    +0.000 C 
ATOM      6  C   UNL     1       2.261   7.579  19.163  0.00  0.00    +0.000 A 
ATOM      7  C   UNL     1       2.902   6.356  19.437  0.00  0.00    +0.000 A 
ATOM      8  N   UNL     1       3.980   5.934  18.716  0.00  0.00    +0.000 NA
ATOM      9  H   UNL     1       5.543   6.946  16.161  0.00  0.00    +0.000 HD
ENDROOT
BRANCH   6  10
ATOM     10  C   UNL     1       1.253   8.253  20.026  0.00  0.00    +0.000 A 
ATOM     11  C   UNL     1       1.120   8.518  21.382  0.00  0.00    +0.000 A 
ATOM     12  C   UNL     1       0.225   9.636  21.502  0.00  0.00    +0.000 A 
ATOM     13  C   UNL     1      -0.177  10.530  22.515  0.00  0.00    +0.000 A 
ATOM     14  C   UNL     1      -0.995  11.617  22.148  0.00  0.00    +0.000 A 
ATOM     15  N   UNL     1      -1.480  11.780  20.892  0.00  0.00    +0.000 NA
ATOM     16  C   UNL     1      -1.145  10.889  19.918  0.00  0.00    +0.000 A 
ATOM     17  C   UNL     1      -0.274   9.855  20.230  0.00  0.00    +0.000 A 
ATOM     18  O   UNL     1       0.277   8.961  19.362  0.00  0.00    +0.000 OA
BRANCH  14  19
ATOM     19  C   UNL     1      -1.320  12.664  23.205  0.00  0.00    +0.000 C 
ATOM     20  C   UNL     1      -2.794  12.953  23.485  0.00  0.00    +0.000 C 
ENDBRANCH  14  19
ENDBRANCH   6  10
BRANCH   7  21
ATOM     21  N   UNL     1       2.506   5.530  20.500  0.00  0.00    +0.000 N 
ATOM     22  H   UNL     1       2.409   6.022  21.386  0.00  0.00    +0.000 HD
BRANCH  21  23
ATOM     23  C   UNL     1       1.471   4.504  20.226  0.00  0.00    +0.000 C 
ATOM     24  C   UNL     1       1.721   3.208  21.025  0.00  0.00    +0.000 C 
ATOM     25  C   UNL     1       2.715   2.368  20.191  0.00  0.00    +0.000 C 
ATOM     26  C   UNL     1       2.978   3.225  18.934  0.00  0.00    +0.000 C 
ATOM     27  C   UNL     1       1.662   4.014  18.786  0.00  0.00    +0.000 C 
BRANCH  26  28
ATOM     28  O   UNL     1       3.189   2.438  17.764  0.00  0.00    +0.000 OA
ATOM     29  H   UNL     1       2.345   1.989  17.582  0.00  0.00    +0.000 HD
ENDBRANCH  26  28
BRANCH  27  30
ATOM     30  O   UNL     1       0.609   3.125  18.376  0.00  0.00    +0.000 OA
ATOM     31  H   UNL     1       0.107   2.910  19.187  0.00  0.00    +0.000 HD
ENDBRANCH  27  30
BRANCH  25  32
ATOM     32  C   UNL     1       3.934   1.927  21.001  0.00  0.00    +0.000 C 
BRANCH  32  33
ATOM     33  O   UNL     1       5.130   1.934  20.223  0.00  0.00    +0.000 OA
ATOM     34  H   UNL     1       5.327   1.013  20.001  0.00  0.00    +0.000 HD
ENDBRANCH  32  33
ENDBRANCH  25  32
ENDBRANCH  21  23
ENDBRANCH   7  21
BRANCH   1  35
ATOM     35  C   UNL     1       5.866   4.961  16.751  0.00  0.00    +0.000 C 
BRANCH  35  36
ATOM     36  C   UNL     1       6.538   4.784  15.374  0.00  0.00    +0.000 C 
BRANCH  36  37
ATOM     37  C   UNL     1       5.577   4.276  14.289  0.00  0.00    +0.000 C 
BRANCH  37  39
ATOM     38  C   UNL     1       5.361   3.162  12.034  0.00  0.00    +0.000 C 
ATOM     39  C   UNL     1       6.322   3.754  13.056  0.00  0.00    +0.000 C 
ENDBRANCH  37  39
ENDBRANCH  36  37
ENDBRANCH  35  36
ENDBRANCH   1  35
TORSDOF 12
ENDMDL
MODEL 3
REMARK VINA RESULT:      -7.2      1.706      8.102
REMARK  Name = 
REMARK  15 active torsions:
REMARK  status: ('A' for Active; 'I' for Inactive)
REMARK    1  A    between atoms: C_1  and  C_2
REMARK    2  A    between atoms: C_2  and  C_3
REMARK    3  A    between atoms: C_3  and  C_4
REMARK    4  A    between atoms: C_4  and  C_5
REMARK    5  A    between atoms: C_5  and  N_6
REMARK    6  A    between atoms: C_9  and  C_10
REMARK    7  A    between atoms: C_11  and  C_12
REMARK    8  A    between atoms: C_16  and  C_17
REMARK    9  A    between atoms: C_17  and  C_18
REMARK   10  A    between atoms: C_23  and  N_24
REMARK   11  A    between atoms: N_24  and  C_25
REMARK   12  A    between atoms: C_27  and  C_28
REMARK   13  A    between atoms: C_28  and  O_29
REMARK   14  A    between atoms: C_30  and  O_31
REMARK   15  A    between atoms: C_32  and  O_33
REMARK                            x       y       z     vdW  Elec       q    Type
REMARK                         _______ _______ _______ _____ _____    ______ ____
ROOT
ATOM      1  N   UNL     1       7.413   5.320  15.408  0.00  0.00    +0.000 N 
ATOM      2  C   UNL     1       6.200   5.611  16.011  0.00  0.00    +0.000 A 
ATOM      3  N   UNL     1       6.057   6.886  16.354  0.00  0.00    +0.000 NA
ATOM      4  C   UNL     1       4.954   7.237  17.060  0.00  0.00    +0.000 A 
ATOM      5  C   UNL     1       4.970   8.688  17.449  0.00  0.00    +0.000 C 
ATOM      6  C   UNL     1       3.936   6.340  17.421  0.00  0.00    +0.000 A 
ATOM      7  C   UNL     1       4.141   5.033  16.938  0.00  0.00    +0.000 A 
ATOM      8  N   UNL     1       5.272   4.689  16.258  0.00  0.00    +0.000 NA
ATOM      9  H   UNL     1       7.806   6.216  15.143  0.00  0.00    +0.000 HD
ENDROOT
BRANCH   6  10
ATOM     10  C   UNL     1       2.878   6.763  18.378  0.00  0.00    +0.000 A 
ATOM     11  C   UNL     1       2.555   6.477  19.697  0.00  0.00    +0.000 A 
ATOM     12  C   UNL     1       1.777   7.583  20.185  0.00  0.00    +0.000 A 
ATOM     13  C   UNL     1       1.313   8.045  21.433  0.00  0.00    +0.000 A 
ATOM     14  C   UNL     1       0.686   9.307  21.478  0.00  0.00    +0.000 A 
ATOM     15  N   UNL     1       0.432  10.040  20.366  0.00  0.00    +0.000 NA
ATOM     16  C   UNL     1       0.825   9.575  19.147  0.00  0.00    +0.000 A 
ATOM     17  C   UNL     1       1.518   8.375  19.081  0.00  0.00    +0.000 A 
ATOM     18  O   UNL     1       2.105   7.830  17.979  0.00  0.00    +0.000 OA
BRANCH  14  19
ATOM     19  C   UNL     1       0.307   9.875  22.837  0.00  0.00    +0.000 C 
ATOM     20  C   UNL     1      -0.790  10.938  22.880  0.00  0.00    +0.000 C 
ENDBRANCH  14  19
ENDBRANCH   6  10
BRANCH   7  21
ATOM     21  N   UNL     1       3.225   3.998  17.179  0.00  0.00    +0.000 N 
ATOM     22  H   UNL     1       2.504   3.915  16.464  0.00  0.00    +0.000 HD
BRANCH  21  23
ATOM     23  C   UNL     1       3.757   2.715  17.698  0.00  0.00    +0.000 C 
ATOM     24  C   UNL     1       2.635   1.682  17.936  0.00  0.00    +0.000 C 
ATOM     25  C   UNL     1       2.071   1.970  19.346  0.00  0.00    +0.000 C 
ATOM     26  C   UNL     1       2.915   3.156  19.859  0.00  0.00    +0.000 C 
ATOM     27  C   UNL     1       4.257   2.954  19.126  0.00  0.00    +0.000 C 
BRANCH  26  28
ATOM     28  O   UNL     1       3.136   3.108  21.267  0.00  0.00    +0.000 OA
ATOM     29  H   UNL     1       3.192   2.165  21.501  0.00  0.00    +0.000 HD
ENDBRANCH  26  28
BRANCH  27  30
ATOM     30  O   UNL     1       4.931   1.802  19.661  0.00  0.00    +0.000 OA
ATOM     31  H   UNL     1       5.536   2.141  20.350  0.00  0.00    +0.000 HD
ENDBRANCH  27  30
BRANCH  25  32
ATOM     32  C   UNL     1       0.553   2.144  19.345  0.00  0.00    +0.000 C 
BRANCH  32  33
ATOM     33  O   UNL     1       0.137   3.261  20.131  0.00  0.00    +0.000 OA
ATOM     34  H   UNL     1      -0.332   2.906  20.899  0.00  0.00    +0.000 HD
ENDBRANCH  32  33
ENDBRANCH  25  32
ENDBRANCH  21  23
ENDBRANCH   7  21
BRANCH   1  35
ATOM     35  C   UNL     1       7.437   4.299  14.380  0.00  0.00    +0.000 C 
BRANCH  35  36
ATOM     36  C   UNL     1       7.061   4.910  13.015  0.00  0.00    +0.000 C 
BRANCH  36  37
ATOM     37  C   UNL     1       7.003   3.877  11.881  0.00  0.00    +0.000 C 
BRANCH  37  39
ATOM     38  C   UNL     1       4.557   3.361  11.523  0.00  0.00    +0.000 C 
ATOM     39  C   UNL     1       5.878   2.856  12.087  0.00  0.00    +0.000 C 
ENDBRANCH  37  39
ENDBRANCH  36  37
ENDBRANCH  35  36
ENDBRANCH   1  35
TORSDOF 12
ENDMDL
MODEL 4
REMARK VINA RESULT:      -6.9      1.199      1.407
REMARK  Name = 
REMARK  15 active torsions:
REMARK  status: ('A' for Active; 'I' for Inactive)
REMARK    1  A    between atoms: C_1  and  C_2
REMARK    2  A    between atoms: C_2  and  C_3
REMARK    3  A    between atoms: C_3  and  C_4
REMARK    4  A    between atoms: C_4  and  C_5
REMARK    5  A    between atoms: C_5  and  N_6
REMARK    6  A    between atoms: C_9  and  C_10
REMARK    7  A    between atoms: C_11  and  C_12
REMARK    8  A    between atoms: C_16  and  C_17
REMARK    9  A    between atoms: C_17  and  C_18
REMARK   10  A    between atoms: C_23  and  N_24
REMARK   11  A    between atoms: N_24  and  C_25
REMARK   12  A    between atoms: C_27  and  C_28
REMARK   13  A    between atoms: C_28  and  O_29
REMARK   14  A    between atoms: C_30  and  O_31
REMARK   15  A    between atoms: C_32  and  O_33
REMARK                            x       y       z     vdW  Elec       q    Type
REMARK                         _______ _______ _______ _____ _____    ______ ____
ROOT
ATOM      1  N   UNL     1      -0.334   9.024  21.487  0.00  0.00    +0.000 N 
ATOM      2  C   UNL     1       0.658   8.513  20.664  0.00  0.00    +0.000 A 
ATOM      3  N   UNL     1       0.918   9.261  19.599  0.00  0.00    +0.000 NA
ATOM      4  C   UNL     1       1.785   8.777  18.676  0.00  0.00    +0.000 A 
ATOM      5  C   UNL     1       1.917   9.690  17.490  0.00  0.00    +0.000 C 
ATOM      6  C   UNL     1       2.451   7.546  18.795  0.00  0.00    +0.000 A 
ATOM      7  C   UNL     1       2.171   6.870  19.998  0.00  0.00    +0.000 A 
ATOM      8  N   UNL     1       1.271   7.355  20.901  0.00  0.00    +0.000 NA
ATOM      9  H   UNL     1      -0.448   9.991  21.203  0.00  0.00    +0.000 HD
ENDROOT
BRANCH   6  10
ATOM     10  C   UNL     1       3.210   6.997  17.638  0.00  0.00    +0.000 A 
ATOM     11  C   UNL     1       4.036   7.516  16.651  0.00  0.00    +0.000 A 
ATOM     12  C   UNL     1       4.859   6.435  16.184  0.00  0.00    +0.000 A 
ATOM     13  C   UNL     1       6.007   6.286  15.381  0.00  0.00    +0.000 A 
ATOM     14  C   UNL     1       6.595   5.008  15.302  0.00  0.00    +0.000 A 
ATOM     15  N   UNL     1       6.050   3.911  15.885  0.00  0.00    +0.000 NA
ATOM     16  C   UNL     1       4.907   4.034  16.615  0.00  0.00    +0.000 A 
ATOM     17  C   UNL     1       4.351   5.294  16.780  0.00  0.00    +0.000 A 
ATOM     18  O   UNL     1       3.301   5.625  17.583  0.00  0.00    +0.000 OA
BRANCH  14  19
ATOM     19  C   UNL     1       7.912   4.865  14.553  0.00  0.00    +0.000 C 
ATOM     20  C   UNL     1       7.933   5.256  13.076  0.00  0.00    +0.000 C 
ENDBRANCH  14  19
ENDBRANCH   6  10
BRANCH   7  21
ATOM     21  N   UNL     1       2.754   5.632  20.310  0.00  0.00    +0.000 N 
ATOM     22  H   UNL     1       3.672   5.710  20.743  0.00  0.00    +0.000 HD
BRANCH  21  23
ATOM     23  C   UNL     1       1.874   4.578  20.869  0.00  0.00    +0.000 C 
ATOM     24  C   UNL     1       2.686   3.413  21.473  0.00  0.00    +0.000 C 
ATOM     25  C   UNL     1       3.014   2.459  20.302  0.00  0.00    +0.000 C 
ATOM     26  C   UNL     1       2.356   3.122  19.074  0.00  0.00    +0.000 C 
ATOM     27  C   UNL     1       1.169   3.883  19.700  0.00  0.00    +0.000 C 
BRANCH  26  28
ATOM     28  O   UNL     1       1.862   2.172  18.132  0.00  0.00    +0.000 OA
ATOM     29  H   UNL     1       1.305   2.670  17.509  0.00  0.00    +0.000 HD
ENDBRANCH  26  28
BRANCH  27  30
ATOM     30  O   UNL     1       0.178   2.944  20.150  0.00  0.00    +0.000 OA
ATOM     31  H   UNL     1      -0.200   3.323  20.968  0.00  0.00    +0.000 HD
ENDBRANCH  27  30
BRANCH  25  32
ATOM     32  C   UNL     1       4.506   2.141  20.206  0.00  0.00    +0.000 C 
BRANCH  32  33
ATOM     33  O   UNL     1       4.996   1.493  21.380  0.00  0.00    +0.000 OA
ATOM     34  H   UNL     1       4.258   0.994  21.755  0.00  0.00    +0.000 HD
ENDBRANCH  32  33
ENDBRANCH  25  32
ENDBRANCH  21  23
ENDBRANCH   7  21
BRANCH   1  35
ATOM     35  C   UNL     1      -0.219   8.802  22.914  0.00  0.00    +0.000 C 
BRANCH  35  36
ATOM     36  C   UNL     1      -0.381  10.134  23.675  0.00  0.00    +0.000 C 
BRANCH  36  37
ATOM     37  C   UNL     1      -0.884  11.282  22.789  0.00  0.00    +0.000 C 
BRANCH  37  39
ATOM     38  C   UNL     1      -2.331  13.261  23.394  0.00  0.00    +0.000 C 
ATOM     39  C   UNL     1      -2.286  11.752  23.194  0.00  0.00    +0.000 C 
ENDBRANCH  37  39
ENDBRANCH  36  37
ENDBRANCH  35  36
ENDBRANCH   1  35
TORSDOF 12
ENDMDL
MODEL 5
REMARK VINA RESULT:      -6.8      1.843      8.155
REMARK  Name = 
REMARK  15 active torsions:
REMARK  status: ('A' for Active; 'I' for Inactive)
REMARK    1  A    between atoms: C_1  and  C_2
REMARK    2  A    between atoms: C_2  and  C_3
REMARK    3  A    between atoms: C_3  and  C_4
REMARK    4  A    between atoms: C_4  and  C_5
REMARK    5  A    between atoms: C_5  and  N_6
REMARK    6  A    between atoms: C_9  and  C_10
REMARK    7  A    between atoms: C_11  and  C_12
REMARK    8  A    between atoms: C_16  and  C_17
REMARK    9  A    between atoms: C_17  and  C_18
REMARK   10  A    between atoms: C_23  and  N_24
REMARK   11  A    between atoms: N_24  and  C_25
REMARK   12  A    between atoms: C_27  and  C_28
REMARK   13  A    between atoms: C_28  and  O_29
REMARK   14  A    between atoms: C_30  and  O_31
REMARK   15  A    between atoms: C_32  and  O_33
REMARK                            x       y       z     vdW  Elec       q    Type
REMARK                         _______ _______ _______ _____ _____    ______ ____
ROOT
ATOM      1  N   UNL     1       5.891   6.332  16.617  0.00  0.00    +0.000 N 
ATOM      2  C   UNL     1       4.701   6.642  17.255  0.00  0.00    +0.000 A 
ATOM      3  N   UNL     1       4.291   7.889  17.062  0.00  0.00    +0.000 NA
ATOM      4  C   UNL     1       3.202   8.316  17.748  0.00  0.00    +0.000 A 
ATOM      5  C   UNL     1       2.907   9.767  17.494  0.00  0.00    +0.000 C 
ATOM      6  C   UNL     1       2.461   7.508  18.624  0.00  0.00    +0.000 A 
ATOM      7  C   UNL     1       2.927   6.181  18.695  0.00  0.00    +0.000 A 
ATOM      8  N   UNL     1       4.043   5.776  18.024  0.00  0.00    +0.000 NA
ATOM      9  H   UNL     1       6.036   7.072  15.939  0.00  0.00    +0.000 HD
ENDROOT
BRANCH   6  10
ATOM     10  C   UNL     1       1.420   8.117  19.497  0.00  0.00    +0.000 A 
ATOM     11  C   UNL     1       1.210   8.237  20.863  0.00  0.00    +0.000 A 
ATOM     12  C   UNL     1       0.343   9.367  21.055  0.00  0.00    +0.000 A 
ATOM     13  C   UNL     1      -0.097  10.158  22.135  0.00  0.00    +0.000 A 
ATOM     14  C   UNL     1      -0.858  11.308  21.844  0.00  0.00    +0.000 A 
ATOM     15  N   UNL     1      -1.259  11.624  20.588  0.00  0.00    +0.000 NA
ATOM     16  C   UNL     1      -0.888  10.833  19.542  0.00  0.00    +0.000 A 
ATOM     17  C   UNL     1      -0.069   9.741  19.788  0.00  0.00    +0.000 A 
ATOM     18  O   UNL     1       0.509   8.929  18.859  0.00  0.00    +0.000 OA
BRANCH  14  19
ATOM     19  C   UNL     1      -1.218  12.242  22.990  0.00  0.00    +0.000 C 
ATOM     20  C   UNL     1      -2.699  12.418  23.322  0.00  0.00    +0.000 C 
ENDBRANCH  14  19
ENDBRANCH   6  10
BRANCH   7  21
ATOM     21  N   UNL     1       2.306   5.215  19.503  0.00  0.00    +0.000 N 
ATOM     22  H   UNL     1       1.828   5.606  20.313  0.00  0.00    +0.000 HD
BRANCH  21  23
ATOM     23  C   UNL     1       1.602   4.100  18.825  0.00  0.00    +0.000 C 
ATOM     24  C   UNL     1       0.918   3.155  19.834  0.00  0.00    +0.000 C 
ATOM     25  C   UNL     1       1.998   2.144  20.283  0.00  0.00    +0.000 C 
ATOM     26  C   UNL     1       3.257   2.554  19.491  0.00  0.00    +0.000 C 
ATOM     27  C   UNL     1       2.661   3.177  18.212  0.00  0.00    +0.000 C 
BRANCH  26  28
ATOM     28  O   UNL     1       4.073   1.440  19.135  0.00  0.00    +0.000 OA
ATOM     29  H   UNL     1       4.177   1.476  18.169  0.00  0.00    +0.000 HD
ENDBRANCH  26  28
BRANCH  27  30
ATOM     30  O   UNL     1       2.072   2.145  17.403  0.00  0.00    +0.000 OA
ATOM     31  H   UNL     1       2.357   1.297  17.798  0.00  0.00    +0.000 HD
ENDBRANCH  27  30
BRANCH  25  32
ATOM     32  C   UNL     1       2.127   2.062  21.804  0.00  0.00    +0.000 C 
BRANCH  32  33
ATOM     33  O   UNL     1       2.377   3.338  22.394  0.00  0.00    +0.000 OA
ATOM     34  H   UNL     1       1.650   3.918  22.128  0.00  0.00    +0.000 HD
ENDBRANCH  32  33
ENDBRANCH  25  32
ENDBRANCH  21  23
ENDBRANCH   7  21
BRANCH   1  35
ATOM     35  C   UNL     1       6.067   4.984  16.115  0.00  0.00    +0.000 C 
BRANCH  35  36
ATOM     36  C   UNL     1       5.615   4.901  14.643  0.00  0.00    +0.000 C 
BRANCH  36  37
ATOM     37  C   UNL     1       6.084   3.623  13.933  0.00  0.00    +0.000 C 
BRANCH  37  39
ATOM     38  C   UNL     1       4.792   3.239  11.798  0.00  0.00    +0.000 C 
ATOM     39  C   UNL     1       6.080   3.774  12.408  0.00  0.00    +0.000 C 
ENDBRANCH  37  39
ENDBRANCH  36  37
ENDBRANCH  35  36
ENDBRANCH   1  35
TORSDOF 12
ENDMDL
MODEL 6
REMARK VINA RESULT:      -6.8      7.618     11.878
REMARK  Name = 
REMARK  15 active torsions:
REMARK  status: ('A' for Active; 'I' for Inactive)
REMARK    1  A    between atoms: C_1  and  C_2
REMARK    2  A    between atoms: C_2  and  C_3
REMARK    3  A    between atoms: C_3  and  C_4
REMARK    4  A    between atoms: C_4  and  C_5
REMARK    5  A    between atoms: C_5  and  N_6
REMARK    6  A    between atoms: C_9  and  C_10
REMARK    7  A    between atoms: C_11  and  C_12
REMARK    8  A    between atoms: C_16  and  C_17
REMARK    9  A    between atoms: C_17  and  C_18
REMARK   10  A    between atoms: C_23  and  N_24
REMARK   11  A    between atoms: N_24  and  C_25
REMARK   12  A    between atoms: C_27  and  C_28
REMARK   13  A    between atoms: C_28  and  O_29
REMARK   14  A    between atoms: C_30  and  O_31
REMARK   15  A    between atoms: C_32  and  O_33
REMARK                            x       y       z     vdW  Elec       q    Type
REMARK                         _______ _______ _______ _____ _____    ______ ____
ROOT
ATOM      1  N   UNL     1      -4.365  10.729  15.725  0.00  0.00    +0.000 N 
ATOM      2  C   UNL     1      -4.237  11.186  17.028  0.00  0.00    +0.000 A 
ATOM      3  N   UNL     1      -5.379  11.221  17.704  0.00  0.00    +0.000 NA
ATOM      4  C   UNL     1      -5.368  11.771  18.944  0.00  0.00    +0.000 A 
ATOM      5  C   UNL     1      -6.741  11.819  19.552  0.00  0.00    +0.000 C 
ATOM      6  C   UNL     1      -4.216  12.273  19.570  0.00  0.00    +0.000 A 
ATOM      7  C   UNL     1      -3.045  12.112  18.804  0.00  0.00    +0.000 A 
ATOM      8  N   UNL     1      -3.078  11.588  17.545  0.00  0.00    +0.000 NA
ATOM      9  H   UNL     1      -5.277  10.288  15.682  0.00  0.00    +0.000 HD
ENDROOT
BRANCH   6  10
ATOM     10  C   UNL     1      -4.336  13.052  20.832  0.00  0.00    +0.000 A 
ATOM     11  C   UNL     1      -4.192  12.785  22.186  0.00  0.00    +0.000 A 
ATOM     12  C   UNL     1      -3.914  14.038  22.832  0.00  0.00    +0.000 A 
ATOM     13  C   UNL     1      -3.472  14.469  24.099  0.00  0.00    +0.000 A 
ATOM     14  C   UNL     1      -3.177  15.838  24.263  0.00  0.00    +0.000 A 
ATOM     15  N   UNL     1      -3.391  16.758  23.290  0.00  0.00    +0.000 NA
ATOM     16  C   UNL     1      -3.875  16.359  22.080  0.00  0.00    +0.000 A 
ATOM     17  C   UNL     1      -4.095  15.007  21.861  0.00  0.00    +0.000 A 
ATOM     18  O   UNL     1      -4.439  14.417  20.682  0.00  0.00    +0.000 OA
BRANCH  14  19
ATOM     19  C   UNL     1      -2.568  16.290  25.583  0.00  0.00    +0.000 C 
ATOM     20  C   UNL     1      -1.198  15.729  25.959  0.00  0.00    +0.000 C 
ENDBRANCH  14  19
ENDBRANCH   6  10
BRANCH   7  21
ATOM     21  N   UNL     1      -1.789  12.534  19.266  0.00  0.00    +0.000 N 
ATOM     22  H   UNL     1      -1.792  12.836  20.238  0.00  0.00    +0.000 HD
BRANCH  21  23
ATOM     23  C   UNL     1      -0.603  11.750  18.846  0.00  0.00    +0.000 C 
ATOM     24  C   UNL     1      -0.438  10.464  19.683  0.00  0.00    +0.000 C 
ATOM     25  C   UNL     1       0.334  10.871  20.958  0.00  0.00    +0.000 C 
ATOM     26  C   UNL     1       0.591  12.383  20.783  0.00  0.00    +0.000 C 
ATOM     27  C   UNL     1       0.649  12.537  19.249  0.00  0.00    +0.000 C 
BRANCH  26  28
ATOM     28  O   UNL     1       1.832  12.800  21.345  0.00  0.00    +0.000 OA
ATOM     29  H   UNL     1       1.843  12.466  22.259  0.00  0.00    +0.000 HD
ENDBRANCH  26  28
BRANCH  27  30
ATOM     30  O   UNL     1       1.852  11.929  18.749  0.00  0.00    +0.000 OA
ATOM     31  H   UNL     1       1.563  11.243  18.114  0.00  0.00    +0.000 HD
ENDBRANCH  27  30
BRANCH  25  32
ATOM     32  C   UNL     1      -0.374  10.428  22.238  0.00  0.00    +0.000 C 
BRANCH  32  33
ATOM     33  O   UNL     1      -0.514  11.496  23.174  0.00  0.00    +0.000 OA
ATOM     34  H   UNL     1      -0.996  11.142  23.935  0.00  0.00    +0.000 HD
ENDBRANCH  32  33
ENDBRANCH  25  32
ENDBRANCH  21  23
ENDBRANCH   7  21
BRANCH   1  35
ATOM     35  C   UNL     1      -3.273   9.963  15.160  0.00  0.00    +0.000 C 
BRANCH  35  36
ATOM     36  C   UNL     1      -3.368   9.957  13.621  0.00  0.00    +0.000 C 
BRANCH  36  37
ATOM     37  C   UNL     1      -4.759   9.568  13.099  0.00  0.00    +0.000 C 
BRANCH  37  39
ATOM     38  C   UNL     1      -6.319   9.875  11.138  0.00  0.00    +0.000 C 
ATOM     39  C   UNL     1      -4.869   9.720  11.579  0.00  0.00    +0.000 C 
ENDBRANCH  37  39
ENDBRANCH  36  37
ENDBRANCH  35  36
ENDBRANCH   1  35
TORSDOF 12
ENDMDL
MODEL 7
REMARK VINA RESULT:      -6.7      2.034      8.397
REMARK  Name = 
REMARK  15 active torsions:
REMARK  status: ('A' for Active; 'I' for Inactive)
REMARK    1  A    between atoms: C_1  and  C_2
REMARK    2  A    between atoms: C_2  and  C_3
REMARK    3  A    between atoms: C_3  and  C_4
REMARK    4  A    between atoms: C_4  and  C_5
REMARK    5  A    between atoms: C_5  and  N_6
REMARK    6  A    between atoms: C_9  and  C_10
REMARK    7  A    between atoms: C_11  and  C_12
REMARK    8  A    between atoms: C_16  and  C_17
REMARK    9  A    between atoms: C_17  and  C_18
REMARK   10  A    between atoms: C_23  and  N_24
REMARK   11  A    between atoms: N_24  and  C_25
REMARK   12  A    between atoms: C_27  and  C_28
REMARK   13  A    between atoms: C_28  and  O_29
REMARK   14  A    between atoms: C_30  and  O_31
REMARK   15  A    between atoms: C_32  and  O_33
REMARK                            x       y       z     vdW  Elec       q    Type
REMARK                         _______ _______ _______ _____ _____    ______ ____
ROOT
ATOM      1  N   UNL     1       4.985   6.800  16.920  0.00  0.00    +0.000 N 
ATOM      2  C   UNL     1       3.880   7.175  17.667  0.00  0.00    +0.000 A 
ATOM      3  N   UNL     1       3.394   8.370  17.353  0.00  0.00    +0.000 NA
ATOM      4  C   UNL     1       2.391   8.871  18.116  0.00  0.00    +0.000 A 
ATOM      5  C   UNL     1       2.003  10.261  17.698  0.00  0.00    +0.000 C 
ATOM      6  C   UNL     1       1.810   8.187  19.196  0.00  0.00    +0.000 A 
ATOM      7  C   UNL     1       2.338   6.896  19.392  0.00  0.00    +0.000 A 
ATOM      8  N   UNL     1       3.369   6.420  18.638  0.00  0.00    +0.000 NA
ATOM      9  H   UNL     1       5.005   7.433  16.128  0.00  0.00    +0.000 HD
ENDROOT
BRANCH   6  10
ATOM     10  C   UNL     1       0.872   8.898  20.107  0.00  0.00    +0.000 A 
ATOM     11  C   UNL     1       0.841   9.210  21.459  0.00  0.00    +0.000 A 
ATOM     12  C   UNL     1      -0.036  10.339  21.606  0.00  0.00    +0.000 A 
ATOM     13  C   UNL     1      -0.357  11.270  22.614  0.00  0.00    +0.000 A 
ATOM     14  C   UNL     1      -1.193  12.352  22.271  0.00  0.00    +0.000 A 
ATOM     15  N   UNL     1      -1.768  12.477  21.049  0.00  0.00    +0.000 NA
ATOM     16  C   UNL     1      -1.510  11.549  20.084  0.00  0.00    +0.000 A 
ATOM     17  C   UNL     1      -0.625  10.519  20.367  0.00  0.00    +0.000 A 
ATOM     18  O   UNL     1      -0.145   9.592  19.492  0.00  0.00    +0.000 OA
BRANCH  14  19
ATOM     19  C   UNL     1      -1.433  13.436  23.312  0.00  0.00    +0.000 C 
ATOM     20  C   UNL     1      -1.730  14.847  22.809  0.00  0.00    +0.000 C 
ENDBRANCH  14  19
ENDBRANCH   6  10
BRANCH   7  21
ATOM     21  N   UNL     1       1.874   6.049  20.411  0.00  0.00    +0.000 N 
ATOM     22  H   UNL     1       0.886   5.818  20.332  0.00  0.00    +0.000 HD
BRANCH  21  23
ATOM     23  C   UNL     1       2.756   4.936  20.835  0.00  0.00    +0.000 C 
ATOM     24  C   UNL     1       3.400   4.221  19.628  0.00  0.00    +0.000 C 
ATOM     25  C   UNL     1       2.374   3.170  19.148  0.00  0.00    +0.000 C 
ATOM     26  C   UNL     1       1.186   3.323  20.121  0.00  0.00    +0.000 C 
ATOM     27  C   UNL     1       1.871   3.825  21.409  0.00  0.00    +0.000 C 
BRANCH  26  28
ATOM     28  O   UNL     1       0.528   2.087  20.389  0.00  0.00    +0.000 OA
ATOM     29  H   UNL     1      -0.397   2.310  20.592  0.00  0.00    +0.000 HD
ENDBRANCH  26  28
BRANCH  27  30
ATOM     30  O   UNL     1       2.648   2.762  21.988  0.00  0.00    +0.000 OA
ATOM     31  H   UNL     1       3.055   3.135  22.794  0.00  0.00    +0.000 HD
ENDBRANCH  27  30
BRANCH  25  32
ATOM     32  C   UNL     1       2.071   3.286  17.655  0.00  0.00    +0.000 C 
BRANCH  32  33
ATOM     33  O   UNL     1       1.146   4.336  17.372  0.00  0.00    +0.000 OA
ATOM     34  H   UNL     1       1.045   4.849  18.186  0.00  0.00    +0.000 HD
ENDBRANCH  32  33
ENDBRANCH  25  32
ENDBRANCH  21  23
ENDBRANCH   7  21
BRANCH   1  35
ATOM     35  C   UNL     1       5.148   5.396  16.600  0.00  0.00    +0.000 C 
BRANCH  35  36
ATOM     36  C   UNL     1       6.049   5.234  15.359  0.00  0.00    +0.000 C 
BRANCH  36  37
ATOM     37  C   UNL     1       5.399   4.411  14.238  0.00  0.00    +0.000 C 
BRANCH  37  39
ATOM     38  C   UNL     1       5.768   3.084  12.122  0.00  0.00    +0.000 C 
ATOM     39  C   UNL     1       6.429   3.899  13.226  0.00  0.00    +0.000 C 
ENDBRANCH  37  39
ENDBRANCH  36  37
ENDBRANCH  35  36
ENDBRANCH   1  35
TORSDOF 12
ENDMDL
MODEL 8
REMARK VINA RESULT:      -6.6      2.129      8.034
REMARK  Name = 
REMARK  15 active torsions:
REMARK  status: ('A' for Active; 'I' for Inactive)
REMARK    1  A    between atoms: C_1  and  C_2
REMARK    2  A    between atoms: C_2  and  C_3
REMARK    3  A    between atoms: C_3  and  C_4
REMARK    4  A    between atoms: C_4  and  C_5
REMARK    5  A    between atoms: C_5  and  N_6
REMARK    6  A    between atoms: C_9  and  C_10
REMARK    7  A    between atoms: C_11  and  C_12
REMARK    8  A    between atoms: C_16  and  C_17
REMARK    9  A    between atoms: C_17  and  C_18
REMARK   10  A    between atoms: C_23  and  N_24
REMARK   11  A    between atoms: N_24  and  C_25
REMARK   12  A    between atoms: C_27  and  C_28
REMARK   13  A    between atoms: C_28  and  O_29
REMARK   14  A    between atoms: C_30  and  O_31
REMARK   15  A    between atoms: C_32  and  O_33
REMARK                            x       y       z     vdW  Elec       q    Type
REMARK                         _______ _______ _______ _____ _____    ______ ____
ROOT
ATOM      1  N   UNL     1       4.871   6.965  16.875  0.00  0.00    +0.000 N 
ATOM      2  C   UNL     1       3.769   7.325  17.635  0.00  0.00    +0.000 A 
ATOM      3  N   UNL     1       3.273   8.520  17.339  0.00  0.00    +0.000 NA
ATOM      4  C   UNL     1       2.273   9.005  18.116  0.00  0.00    +0.000 A 
ATOM      5  C   UNL     1       1.873  10.397  17.717  0.00  0.00    +0.000 C 
ATOM      6  C   UNL     1       1.705   8.304  19.192  0.00  0.00    +0.000 A 
ATOM      7  C   UNL     1       2.243   7.015  19.369  0.00  0.00    +0.000 A 
ATOM      8  N   UNL     1       3.271   6.555  18.601  0.00  0.00    +0.000 NA
ATOM      9  H   UNL     1       4.881   7.608  16.091  0.00  0.00    +0.000 HD
ENDROOT
BRANCH   6  10
ATOM     10  C   UNL     1       0.770   8.998  20.119  0.00  0.00    +0.000 A 
ATOM     11  C   UNL     1       0.744   9.287  21.476  0.00  0.00    +0.000 A 
ATOM     12  C   UNL     1      -0.134  10.413  21.646  0.00  0.00    +0.000 A 
ATOM     13  C   UNL     1      -0.453  11.326  22.671  0.00  0.00    +0.000 A 
ATOM     14  C   UNL     1      -1.291  12.412  22.349  0.00  0.00    +0.000 A 
ATOM     15  N   UNL     1      -1.872  12.556  21.132  0.00  0.00    +0.000 NA
ATOM     16  C   UNL     1      -1.616  11.646  20.151  0.00  0.00    +0.000 A 
ATOM     17  C   UNL     1      -0.729  10.613  20.413  0.00  0.00    +0.000 A 
ATOM     18  O   UNL     1      -0.251   9.701  19.520  0.00  0.00    +0.000 OA
BRANCH  14  19
ATOM     19  C   UNL     1      -1.529  13.478  23.409  0.00  0.00    +0.000 C 
ATOM     20  C   UNL     1      -2.972  13.752  23.827  0.00  0.00    +0.000 C 
ENDBRANCH  14  19
ENDBRANCH   6  10
BRANCH   7  21
ATOM     21  N   UNL     1       1.793   6.153  20.381  0.00  0.00    +0.000 N 
ATOM     22  H   UNL     1       0.815   5.885  20.285  0.00  0.00    +0.000 HD
BRANCH  21  23
ATOM     23  C   UNL     1       2.708   5.074  20.823  0.00  0.00    +0.000 C 
ATOM     24  C   UNL     1       3.381   4.366  19.629  0.00  0.00    +0.000 C 
ATOM     25  C   UNL     1       2.392   3.276  19.157  0.00  0.00    +0.000 C 
ATOM     26  C   UNL     1       1.195   3.403  20.122  0.00  0.00    +0.000 C 
ATOM     27  C   UNL     1       1.856   3.942  21.407  0.00  0.00    +0.000 C 
BRANCH  26  28
ATOM     28  O   UNL     1       0.576   2.150  20.402  0.00  0.00    +0.000 OA
ATOM     29  H   UNL     1       0.418   2.132  21.362  0.00  0.00    +0.000 HD
ENDBRANCH  26  28
BRANCH  27  30
ATOM     30  O   UNL     1       2.663   2.913  22.003  0.00  0.00    +0.000 OA
ATOM     31  H   UNL     1       2.464   2.094  21.507  0.00  0.00    +0.000 HD
ENDBRANCH  27  30
BRANCH  25  32
ATOM     32  C   UNL     1       2.094   3.364  17.661  0.00  0.00    +0.000 C 
BRANCH  32  33
ATOM     33  O   UNL     1       1.124   4.368  17.362  0.00  0.00    +0.000 OA
ATOM     34  H   UNL     1       1.589   5.216  17.361  0.00  0.00    +0.000 HD
ENDBRANCH  32  33
ENDBRANCH  25  32
ENDBRANCH  21  23
ENDBRANCH   7  21
BRANCH   1  35
ATOM     35  C   UNL     1       5.041   5.566  16.537  0.00  0.00    +0.000 C 
BRANCH  35  36
ATOM     36  C   UNL     1       6.477   5.111  16.863  0.00  0.00    +0.000 C 
BRANCH  36  37
ATOM     37  C   UNL     1       7.415   6.270  17.227  0.00  0.00    +0.000 C 
BRANCH  37  39
ATOM     38  C   UNL     1       6.899   5.402  19.541  0.00  0.00    +0.000 C 
ATOM     39  C   UNL     1       7.869   6.209  18.689  0.00  0.00    +0.000 C 
ENDBRANCH  37  39
ENDBRANCH  36  37
ENDBRANCH  35  36
ENDBRANCH   1  35
TORSDOF 12
ENDMDL
MODEL 9
REMARK VINA RESULT:      -6.6      7.042     11.498
REMARK  Name = 
REMARK  15 active torsions:
REMARK  status: ('A' for Active; 'I' for Inactive)
REMARK    1  A    between atoms: C_1  and  C_2
REMARK    2  A    between atoms: C_2  and  C_3
REMARK    3  A    between atoms: C_3  and  C_4
REMARK    4  A    between atoms: C_4  and  C_5
REMARK    5  A    between atoms: C_5  and  N_6
REMARK    6  A    between atoms: C_9  and  C_10
REMARK    7  A    between atoms: C_11  and  C_12
REMARK    8  A    between atoms: C_16  and  C_17
REMARK    9  A    between atoms: C_17  and  C_18
REMARK   10  A    between atoms: C_23  and  N_24
REMARK   11  A    between atoms: N_24  and  C_25
REMARK   12  A    between atoms: C_27  and  C_28
REMARK   13  A    between atoms: C_28  and  O_29
REMARK   14  A    between atoms: C_30  and  O_31
REMARK   15  A    between atoms: C_32  and  O_33
REMARK                            x       y       z     vdW  Elec       q    Type
REMARK                         _______ _______ _______ _____ _____    ______ ____
ROOT
ATOM      1  N   UNL     1      -3.979  10.744  15.983  0.00  0.00    +0.000 N 
ATOM      2  C   UNL     1      -3.762  11.231  17.262  0.00  0.00    +0.000 A 
ATOM      3  N   UNL     1      -4.859  11.314  18.004  0.00  0.00    +0.000 NA
ATOM      4  C   UNL     1      -4.761  11.895  19.226  0.00  0.00    +0.000 A 
ATOM      5  C   UNL     1      -6.093  11.996  19.912  0.00  0.00    +0.000 C 
ATOM      6  C   UNL     1      -3.561  12.382  19.767  0.00  0.00    +0.000 A 
ATOM      7  C   UNL     1      -2.442  12.171  18.938  0.00  0.00    +0.000 A 
ATOM      8  N   UNL     1      -2.564  11.615  17.698  0.00  0.00    +0.000 NA
ATOM      9  H   UNL     1      -4.903  10.325  16.006  0.00  0.00    +0.000 HD
ENDROOT
BRANCH   6  10
ATOM     10  C   UNL     1      -3.585  13.198  21.013  0.00  0.00    +0.000 A 
ATOM     11  C   UNL     1      -3.791  12.950  22.362  0.00  0.00    +0.000 A 
ATOM     12  C   UNL     1      -3.165  14.023  23.084  0.00  0.00    +0.000 A 
ATOM     13  C   UNL     1      -2.816  14.300  24.421  0.00  0.00    +0.000 A 
ATOM     14  C   UNL     1      -2.048  15.454  24.676  0.00  0.00    +0.000 A 
ATOM     15  N   UNL     1      -1.718  16.345  23.710  0.00  0.00    +0.000 NA
ATOM     16  C   UNL     1      -2.101  16.116  22.422  0.00  0.00    +0.000 A 
ATOM     17  C   UNL     1      -2.787  14.947  22.127  0.00  0.00    +0.000 A 
ATOM     18  O   UNL     1      -3.123  14.489  20.889  0.00  0.00    +0.000 OA
BRANCH  14  19
ATOM     19  C   UNL     1      -1.548  15.687  26.095  0.00  0.00    +0.000 C 
ATOM     20  C   UNL     1      -1.048  17.087  26.448  0.00  0.00    +0.000 C 
ENDBRANCH  14  19
ENDBRANCH   6  10
BRANCH   7  21
ATOM     21  N   UNL     1      -1.151  12.571  19.313  0.00  0.00    +0.000 N 
ATOM     22  H   UNL     1      -1.092  13.546  19.600  0.00  0.00    +0.000 HD
BRANCH  21  23
ATOM     23  C   UNL     1      -0.342  11.622  20.114  0.00  0.00    +0.000 C 
ATOM     24  C   UNL     1       0.969  12.264  20.614  0.00  0.00    +0.000 C 
ATOM     25  C   UNL     1       1.995  12.107  19.470  0.00  0.00    +0.000 C 
ATOM     26  C   UNL     1       1.220  11.361  18.363  0.00  0.00    +0.000 C 
ATOM     27  C   UNL     1       0.192  10.541  19.168  0.00  0.00    +0.000 C 
BRANCH  26  28
ATOM     28  O   UNL     1       2.046  10.474  17.612  0.00  0.00    +0.000 OA
ATOM     29  H   UNL     1       2.914  10.907  17.538  0.00  0.00    +0.000 HD
ENDBRANCH  26  28
BRANCH  27  30
ATOM     30  O   UNL     1       0.865   9.488  19.879  0.00  0.00    +0.000 OA
ATOM     31  H   UNL     1       1.544   9.141  19.266  0.00  0.00    +0.000 HD
ENDBRANCH  27  30
BRANCH  25  32
ATOM     32  C   UNL     1       2.654  13.431  19.087  0.00  0.00    +0.000 C 
BRANCH  32  33
ATOM     33  O   UNL     1       3.167  13.414  17.755  0.00  0.00    +0.000 OA
ATOM     34  H   UNL     1       3.279  12.486  17.509  0.00  0.00    +0.000 HD
ENDBRANCH  32  33
ENDBRANCH  25  32
ENDBRANCH  21  23
ENDBRANCH   7  21
BRANCH   1  35
ATOM     35  C   UNL     1      -2.942   9.934  15.375  0.00  0.00    +0.000 C 
BRANCH  35  36
ATOM     36  C   UNL     1      -3.048  10.002  13.838  0.00  0.00    +0.000 C 
BRANCH  36  37
ATOM     37  C   UNL     1      -4.470   9.756  13.314  0.00  0.00    +0.000 C 
BRANCH  37  39
ATOM     38  C   UNL     1      -5.966   9.634  11.284  0.00  0.00    +0.000 C 
ATOM     39  C   UNL     1      -4.536   9.787  11.783  0.00  0.00    +0.000 C 
ENDBRANCH  37  39
ENDBRANCH  36  37
ENDBRANCH  35  36
ENDBRANCH   1  35
TORSDOF 12
ENDMDL
