MODEL 1
REMARK VINA RESULT:      -7.7      0.000      0.000
REMARK  Name = 
REMARK  2 active torsions:
REMARK  status: ('A' for Active; 'I' for Inactive)
REMARK    1  A    between atoms: C_1  and  N_2
REMARK    2  A    between atoms: C_5  and  C_6
REMARK                            x       y       z     vdW  Elec       q    Type
REMARK                         _______ _______ _______ _____ _____    ______ ____
ROOT
ATOM      1  C   UNL     1       2.161   3.501  20.705  0.00  0.00    +0.000 C 
ATOM      2  N   UNL     1       2.664   3.835  19.356  0.00  0.00    +0.000 N 
ATOM      3  C   UNL     1       2.968   5.201  19.062  0.00  0.00    +0.000 A 
ATOM      4  N   UNL     1       2.241   6.129  19.742  0.00  0.00    +0.000 NA
ATOM      5  C   UNL     1       2.309   7.421  19.306  0.00  0.00    +0.000 A 
ATOM      6  C   UNL     1       3.080   7.747  18.185  0.00  0.00    +0.000 A 
ATOM      7  N   UNL     1       3.805   6.847  17.484  0.00  0.00    +0.000 NA
ATOM      8  C   UNL     1       3.700   5.567  17.937  0.00  0.00    +0.000 A 
ATOM      9  C   UNL     1       4.346   4.534  17.078  0.00  0.00    +0.000 C 
ATOM     10  N   UNL     1       4.907   4.954  15.891  0.00  0.00    +0.000 N 
ATOM     11  N   UNL     1       4.420   3.278  17.383  0.00  0.00    +0.000 NA
ATOM     12  S   UNL     1       3.875   2.772  18.819  0.00  0.00    +0.000 S 
ATOM     13  O   UNL     1       4.972   2.909  19.758  0.00  0.00    +0.000 OA
ATOM     14  O   UNL     1       3.238   1.484  18.651  0.00  0.00    +0.000 OA
ATOM     15  H   UNL     1       5.115   5.949  15.838  0.00  0.00    +0.000 HD
ATOM     16  H   UNL     1       5.634   4.348  15.526  0.00  0.00    +0.000 HD
ENDROOT
BRANCH   5  17
ATOM     17  C   UNL     1       1.493   8.425  20.023  0.00  0.00    +0.000 A 
ATOM     18  C   UNL     1       0.959   9.554  19.364  0.00  0.00    +0.000 A 
ATOM     19  C   UNL     1       0.126  10.460  20.024  0.00  0.00    +0.000 A 
ATOM     20  C   UNL     1      -0.182  10.266  21.367  0.00  0.00    +0.000 A 
ATOM     21 CL   UNL     1      -1.231  11.367  22.168  0.00  0.00    +0.000 Cl
ATOM     22  C   UNL     1       0.354   9.185  22.055  0.00  0.00    +0.000 A 
ATOM     23  C   UNL     1       1.188   8.274  21.388  0.00  0.00    +0.000 A 
ENDBRANCH   5  17
TORSDOF 1
ENDMDL
MODEL 2
REMARK VINA RESULT:      -7.7      0.157      1.062
REMARK  Name = 
REMARK  2 active torsions:
REMARK  status: ('A' for Active; 'I' for Inactive)
REMARK    1  A    between atoms: C_1  and  N_2
REMARK    2  A    between atoms: C_5  and  C_6
REMARK                            x       y       z     vdW  Elec       q    Type
REMARK                         _______ _______ _______ _____ _____    ______ ____
ROOT
ATOM      1  C   UNL     1       2.195   3.495  20.719  0.00  0.00    +0.000 C 
ATOM      2  N   UNL     1       2.680   3.858  19.370  0.00  0.00    +0.000 N 
ATOM      3  C   UNL     1       2.958   5.233  19.095  0.00  0.00    +0.000 A 
ATOM      4  N   UNL     1       2.222   6.138  19.796  0.00  0.00    +0.000 NA
ATOM      5  C   UNL     1       2.265   7.437  19.379  0.00  0.00    +0.000 A 
ATOM      6  C   UNL     1       3.020   7.793  18.256  0.00  0.00    +0.000 A 
ATOM      7  N   UNL     1       3.753   6.916  17.534  0.00  0.00    +0.000 NA
ATOM      8  C   UNL     1       3.673   5.628  17.968  0.00  0.00    +0.000 A 
ATOM      9  C   UNL     1       4.327   4.619  17.088  0.00  0.00    +0.000 C 
ATOM     10  N   UNL     1       4.870   5.066  15.903  0.00  0.00    +0.000 N 
ATOM     11  N   UNL     1       4.425   3.360  17.373  0.00  0.00    +0.000 NA
ATOM     12  S   UNL     1       3.902   2.823  18.806  0.00  0.00    +0.000 S 
ATOM     13  O   UNL     1       5.006   2.963  19.736  0.00  0.00    +0.000 OA
ATOM     14  O   UNL     1       3.284   1.527  18.624  0.00  0.00    +0.000 OA
ATOM     15  H   UNL     1       5.062   6.065  15.863  0.00  0.00    +0.000 HD
ATOM     16  H   UNL     1       5.603   4.479  15.521  0.00  0.00    +0.000 HD
ENDROOT
BRANCH   5  17
ATOM     17  C   UNL     1       1.440   8.417  20.119  0.00  0.00    +0.000 A 
ATOM     18  C   UNL     1       1.150   8.255  21.491  0.00  0.00    +0.000 A 
ATOM     19  C   UNL     1       0.436   9.219  22.207  0.00  0.00    +0.000 A 
ATOM     20  C   UNL     1      -0.020  10.364  21.561  0.00  0.00    +0.000 A 
ATOM     21 CL   UNL     1      -0.874  11.561  22.451  0.00  0.00    +0.000 Cl
ATOM     22  C   UNL     1       0.217  10.539  20.203  0.00  0.00    +0.000 A 
ATOM     23  C   UNL     1       0.939   9.570  19.488  0.00  0.00    +0.000 A 
ENDBRANCH   5  17
TORSDOF 1
ENDMDL
MODEL 3
REMARK VINA RESULT:      -7.5      4.357      6.788
REMARK  Name = 
REMARK  2 active torsions:
REMARK  status: ('A' for Active; 'I' for Inactive)
REMARK    1  A    between atoms: C_1  and  N_2
REMARK    2  A    between atoms: C_5  and  C_6
REMARK                            x       y       z     vdW  Elec       q    Type
REMARK                         _______ _______ _______ _____ _____    ______ ____
ROOT
ATOM      1  C   UNL     1       3.569   1.673  19.262  0.00  0.00    +0.000 C 
ATOM      2  N   UNL     1       3.408   3.057  19.756  0.00  0.00    +0.000 N 
ATOM      3  C   UNL     1       3.423   4.124  18.805  0.00  0.00    +0.000 A 
ATOM      4  N   UNL     1       4.163   3.907  17.684  0.00  0.00    +0.000 NA
ATOM      5  C   UNL     1       4.419   4.985  16.885  0.00  0.00    +0.000 A 
ATOM      6  C   UNL     1       3.953   6.255  17.242  0.00  0.00    +0.000 A 
ATOM      7  N   UNL     1       3.225   6.503  18.354  0.00  0.00    +0.000 NA
ATOM      8  C   UNL     1       3.004   5.409  19.135  0.00  0.00    +0.000 A 
ATOM      9  C   UNL     1       2.358   5.687  20.449  0.00  0.00    +0.000 C 
ATOM     10  N   UNL     1       2.125   7.006  20.777  0.00  0.00    +0.000 N 
ATOM     11  N   UNL     1       1.996   4.771  21.290  0.00  0.00    +0.000 NA
ATOM     12  S   UNL     1       2.150   3.213  20.886  0.00  0.00    +0.000 S 
ATOM     13  O   UNL     1       0.935   2.837  20.188  0.00  0.00    +0.000 OA
ATOM     14  O   UNL     1       2.560   2.465  22.055  0.00  0.00    +0.000 OA
ATOM     15  H   UNL     1       2.117   7.653  19.991  0.00  0.00    +0.000 HD
ATOM     16  H   UNL     1       1.384   7.152  21.454  0.00  0.00    +0.000 HD
ENDROOT
BRANCH   5  17
ATOM     17  C   UNL     1       5.250   4.758  15.683  0.00  0.00    +0.000 A 
ATOM     18  C   UNL     1       4.796   3.966  14.606  0.00  0.00    +0.000 A 
ATOM     19  C   UNL     1       5.549   3.815  13.439  0.00  0.00    +0.000 A 
ATOM     20  C   UNL     1       6.786   4.442  13.328  0.00  0.00    +0.000 A 
ATOM     21 CL   UNL     1       7.697   4.278  11.880  0.00  0.00    +0.000 Cl
ATOM     22  C   UNL     1       7.280   5.201  14.383  0.00  0.00    +0.000 A 
ATOM     23  C   UNL     1       6.518   5.354  15.551  0.00  0.00    +0.000 A 
ENDBRANCH   5  17
TORSDOF 1
ENDMDL
MODEL 4
REMARK VINA RESULT:      -7.5      5.141      6.988
REMARK  Name = 
REMARK  2 active torsions:
REMARK  status: ('A' for Active; 'I' for Inactive)
REMARK    1  A    between atoms: C_1  and  N_2
REMARK    2  A    between atoms: C_5  and  C_6
REMARK                            x       y       z     vdW  Elec       q    Type
REMARK                         _______ _______ _______ _____ _____    ______ ____
ROOT
ATOM      1  C   UNL     1       0.148   8.874  21.801  0.00  0.00    +0.000 C 
ATOM      2  N   UNL     1       0.899   9.729  20.857  0.00  0.00    +0.000 N 
ATOM      3  C   UNL     1       1.341   9.155  19.624  0.00  0.00    +0.000 A 
ATOM      4  N   UNL     1       1.600   7.820  19.652  0.00  0.00    +0.000 NA
ATOM      5  C   UNL     1       2.268   7.290  18.586  0.00  0.00    +0.000 A 
ATOM      6  C   UNL     1       2.685   8.113  17.534  0.00  0.00    +0.000 A 
ATOM      7  N   UNL     1       2.452   9.444  17.483  0.00  0.00    +0.000 NA
ATOM      8  C   UNL     1       1.799   9.940  18.570  0.00  0.00    +0.000 A 
ATOM      9  C   UNL     1       1.686  11.425  18.620  0.00  0.00    +0.000 C 
ATOM     10  N   UNL     1       2.312  12.144  17.623  0.00  0.00    +0.000 N 
ATOM     11  N   UNL     1       1.033  12.075  19.530  0.00  0.00    +0.000 NA
ATOM     12  S   UNL     1       0.193  11.259  20.645  0.00  0.00    +0.000 S 
ATOM     13  O   UNL     1      -1.124  11.018  20.087  0.00  0.00    +0.000 OA
ATOM     14  O   UNL     1       0.315  11.941  21.915  0.00  0.00    +0.000 OA
ATOM     15  H   UNL     1       2.527  11.618  16.779  0.00  0.00    +0.000 HD
ATOM     16  H   UNL     1       1.929  13.069  17.461  0.00  0.00    +0.000 HD
ENDROOT
BRANCH   5  17
ATOM     17  C   UNL     1       2.579   5.844  18.629  0.00  0.00    +0.000 A 
ATOM     18  C   UNL     1       1.821   4.901  17.901  0.00  0.00    +0.000 A 
ATOM     19  C   UNL     1       2.163   3.546  17.881  0.00  0.00    +0.000 A 
ATOM     20  C   UNL     1       3.265   3.100  18.603  0.00  0.00    +0.000 A 
ATOM     21 CL   UNL     1       3.699   1.437  18.553  0.00  0.00    +0.000 Cl
ATOM     22  C   UNL     1       4.013   3.995  19.358  0.00  0.00    +0.000 A 
ATOM     23  C   UNL     1       3.669   5.356  19.372  0.00  0.00    +0.000 A 
ENDBRANCH   5  17
TORSDOF 1
ENDMDL
MODEL 5
REMARK VINA RESULT:      -7.3      5.128      7.018
REMARK  Name = 
REMARK  2 active torsions:
REMARK  status: ('A' for Active; 'I' for Inactive)
REMARK    1  A    between atoms: C_1  and  N_2
REMARK    2  A    between atoms: C_5  and  C_6
REMARK                            x       y       z     vdW  Elec       q    Type
REMARK                         _______ _______ _______ _____ _____    ______ ____
ROOT
ATOM      1  C   UNL     1       0.244   8.815  21.782  0.00  0.00    +0.000 C 
ATOM      2  N   UNL     1       0.948   9.715  20.844  0.00  0.00    +0.000 N 
ATOM      3  C   UNL     1       1.389   9.182  19.592  0.00  0.00    +0.000 A 
ATOM      4  N   UNL     1       1.695   7.857  19.588  0.00  0.00    +0.000 NA
ATOM      5  C   UNL     1       2.364   7.372  18.500  0.00  0.00    +0.000 A 
ATOM      6  C   UNL     1       2.733   8.230  17.459  0.00  0.00    +0.000 A 
ATOM      7  N   UNL     1       2.453   9.553  17.440  0.00  0.00    +0.000 NA
ATOM      8  C   UNL     1       1.801  10.003  18.547  0.00  0.00    +0.000 A 
ATOM      9  C   UNL     1       1.637  11.483  18.630  0.00  0.00    +0.000 C 
ATOM     10  N   UNL     1       2.220  12.243  17.639  0.00  0.00    +0.000 N 
ATOM     11  N   UNL     1       0.977  12.090  19.563  0.00  0.00    +0.000 NA
ATOM     12  S   UNL     1       0.185  11.222  20.675  0.00  0.00    +0.000 S 
ATOM     13  O   UNL     1      -1.132  10.946  20.133  0.00  0.00    +0.000 OA
ATOM     14  O   UNL     1       0.305  11.883  21.957  0.00  0.00    +0.000 OA
ATOM     15  H   UNL     1       2.439  11.743  16.780  0.00  0.00    +0.000 HD
ATOM     16  H   UNL     1       1.802  13.157  17.502  0.00  0.00    +0.000 HD
ENDROOT
BRANCH   5  17
ATOM     17  C   UNL     1       2.726   5.938  18.508  0.00  0.00    +0.000 A 
ATOM     18  C   UNL     1       3.853   5.462  19.213  0.00  0.00    +0.000 A 
ATOM     19  C   UNL     1       4.150   4.098  19.283  0.00  0.00    +0.000 A 
ATOM     20  C   UNL     1       3.333   3.178  18.635  0.00  0.00    +0.000 A 
ATOM     21 CL   UNL     1       3.685   1.499  18.747  0.00  0.00    +0.000 Cl
ATOM     22  C   UNL     1       2.235   3.614  17.903  0.00  0.00    +0.000 A 
ATOM     23  C   UNL     1       1.937   4.984  17.838  0.00  0.00    +0.000 A 
ENDBRANCH   5  17
TORSDOF 1
ENDMDL
MODEL 6
REMARK VINA RESULT:      -7.2      1.077      1.579
REMARK  Name = 
REMARK  2 active torsions:
REMARK  status: ('A' for Active; 'I' for Inactive)
REMARK    1  A    between atoms: C_1  and  N_2
REMARK    2  A    between atoms: C_5  and  C_6
REMARK                            x       y       z     vdW  Elec       q    Type
REMARK                         _______ _______ _______ _____ _____    ______ ____
ROOT
ATOM      1  C   UNL     1       1.128   3.873  20.452  0.00  0.00    +0.000 C 
ATOM      2  N   UNL     1       1.966   3.874  19.234  0.00  0.00    +0.000 N 
ATOM      3  C   UNL     1       2.640   5.082  18.873  0.00  0.00    +0.000 A 
ATOM      4  N   UNL     1       2.030   6.237  19.253  0.00  0.00    +0.000 NA
ATOM      5  C   UNL     1       2.493   7.399  18.706  0.00  0.00    +0.000 A 
ATOM      6  C   UNL     1       3.536   7.374  17.773  0.00  0.00    +0.000 A 
ATOM      7  N   UNL     1       4.155   6.242  17.369  0.00  0.00    +0.000 NA
ATOM      8  C   UNL     1       3.656   5.102  17.922  0.00  0.00    +0.000 A 
ATOM      9  C   UNL     1       4.201   3.833  17.362  0.00  0.00    +0.000 C 
ATOM     10  N   UNL     1       5.080   3.930  16.305  0.00  0.00    +0.000 N 
ATOM     11  N   UNL     1       3.909   2.654  17.812  0.00  0.00    +0.000 NA
ATOM     12  S   UNL     1       2.973   2.511  19.123  0.00  0.00    +0.000 S 
ATOM     13  O   UNL     1       3.851   2.567  20.276  0.00  0.00    +0.000 OA
ATOM     14  O   UNL     1       2.096   1.373  18.950  0.00  0.00    +0.000 OA
ATOM     15  H   UNL     1       5.526   4.839  16.194  0.00  0.00    +0.000 HD
ATOM     16  H   UNL     1       5.702   3.137  16.192  0.00  0.00    +0.000 HD
ENDROOT
BRANCH   5  17
ATOM     17  C   UNL     1       1.809   8.653  19.092  0.00  0.00    +0.000 A 
ATOM     18  C   UNL     1       1.253   8.828  20.378  0.00  0.00    +0.000 A 
ATOM     19  C   UNL     1       0.675  10.039  20.767  0.00  0.00    +0.000 A 
ATOM     20  C   UNL     1       0.627  11.102  19.871  0.00  0.00    +0.000 A 
ATOM     21 CL   UNL     1      -0.058  12.600  20.362  0.00  0.00    +0.000 Cl
ATOM     22  C   UNL     1       1.135  10.954  18.586  0.00  0.00    +0.000 A 
ATOM     23  C   UNL     1       1.718   9.737  18.200  0.00  0.00    +0.000 A 
ENDBRANCH   5  17
TORSDOF 1
ENDMDL
MODEL 7
REMARK VINA RESULT:      -7.2      4.371      6.783
REMARK  Name = 
REMARK  2 active torsions:
REMARK  status: ('A' for Active; 'I' for Inactive)
REMARK    1  A    between atoms: C_1  and  N_2
REMARK    2  A    between atoms: C_5  and  C_6
REMARK                            x       y       z     vdW  Elec       q    Type
REMARK                         _______ _______ _______ _____ _____    ______ ____
ROOT
ATOM      1  C   UNL     1       3.641   1.670  19.224  0.00  0.00    +0.000 C 
ATOM      2  N   UNL     1       3.449   3.041  19.742  0.00  0.00    +0.000 N 
ATOM      3  C   UNL     1       3.418   4.122  18.807  0.00  0.00    +0.000 A 
ATOM      4  N   UNL     1       4.143   3.944  17.670  0.00  0.00    +0.000 NA
ATOM      5  C   UNL     1       4.355   5.040  16.883  0.00  0.00    +0.000 A 
ATOM      6  C   UNL     1       3.859   6.290  17.268  0.00  0.00    +0.000 A 
ATOM      7  N   UNL     1       3.144   6.501  18.395  0.00  0.00    +0.000 NA
ATOM      8  C   UNL     1       2.968   5.390  19.163  0.00  0.00    +0.000 A 
ATOM      9  C   UNL     1       2.337   5.630  20.492  0.00  0.00    +0.000 C 
ATOM     10  N   UNL     1       2.072   6.936  20.844  0.00  0.00    +0.000 N 
ATOM     11  N   UNL     1       2.016   4.691  21.325  0.00  0.00    +0.000 NA
ATOM     12  S   UNL     1       2.207   3.144  20.895  0.00  0.00    +0.000 S 
ATOM     13  O   UNL     1       0.992   2.744  20.212  0.00  0.00    +0.000 OA
ATOM     14  O   UNL     1       2.659   2.391  22.045  0.00  0.00    +0.000 OA
ATOM     15  H   UNL     1       2.032   7.594  20.068  0.00  0.00    +0.000 HD
ATOM     16  H   UNL     1       1.340   7.051  21.536  0.00  0.00    +0.000 HD
ENDROOT
BRANCH   5  17
ATOM     17  C   UNL     1       5.171   4.854  15.664  0.00  0.00    +0.000 A 
ATOM     18  C   UNL     1       6.480   5.375  15.562  0.00  0.00    +0.000 A 
ATOM     19  C   UNL     1       7.278   5.133  14.440  0.00  0.00    +0.000 A 
ATOM     20  C   UNL     1       6.779   4.376  13.386  0.00  0.00    +0.000 A 
ATOM     21 CL   UNL     1       7.774   4.057  12.021  0.00  0.00    +0.000 Cl
ATOM     22  C   UNL     1       5.483   3.877  13.438  0.00  0.00    +0.000 A 
ATOM     23  C   UNL     1       4.686   4.118  14.568  0.00  0.00    +0.000 A 
ENDBRANCH   5  17
TORSDOF 1
ENDMDL
MODEL 8
REMARK VINA RESULT:      -7.1      2.355      3.158
REMARK  Name = 
REMARK  2 active torsions:
REMARK  status: ('A' for Active; 'I' for Inactive)
REMARK    1  A    between atoms: C_1  and  N_2
REMARK    2  A    between atoms: C_5  and  C_6
REMARK                            x       y       z     vdW  Elec       q    Type
REMARK                         _______ _______ _______ _____ _____    ______ ____
ROOT
ATOM      1  C   UNL     1       6.597   7.303  17.025  0.00  0.00    +0.000 C 
ATOM      2  N   UNL     1       5.985   5.990  17.317  0.00  0.00    +0.000 N 
ATOM      3  C   UNL     1       4.564   5.919  17.460  0.00  0.00    +0.000 A 
ATOM      4  N   UNL     1       3.958   7.046  17.924  0.00  0.00    +0.000 NA
ATOM      5  C   UNL     1       2.657   6.938  18.323  0.00  0.00    +0.000 A 
ATOM      6  C   UNL     1       2.004   5.702  18.273  0.00  0.00    +0.000 A 
ATOM      7  N   UNL     1       2.581   4.564  17.827  0.00  0.00    +0.000 NA
ATOM      8  C   UNL     1       3.883   4.706  17.455  0.00  0.00    +0.000 A 
ATOM      9  C   UNL     1       4.592   3.436  17.127  0.00  0.00    +0.000 C 
ATOM     10  N   UNL     1       3.900   2.257  17.307  0.00  0.00    +0.000 N 
ATOM     11  N   UNL     1       5.805   3.374  16.677  0.00  0.00    +0.000 NA
ATOM     12  S   UNL     1       6.602   4.741  16.346  0.00  0.00    +0.000 S 
ATOM     13  O   UNL     1       6.275   5.099  14.979  0.00  0.00    +0.000 OA
ATOM     14  O   UNL     1       7.989   4.579  16.728  0.00  0.00    +0.000 OA
ATOM     15  H   UNL     1       2.887   2.350  17.343  0.00  0.00    +0.000 HD
ATOM     16  H   UNL     1       4.234   1.477  16.752  0.00  0.00    +0.000 HD
ENDROOT
BRANCH   5  17
ATOM     17  C   UNL     1       2.007   8.155  18.858  0.00  0.00    +0.000 A 
ATOM     18  C   UNL     1       1.724   9.267  18.036  0.00  0.00    +0.000 A 
ATOM     19  C   UNL     1       1.041  10.384  18.525  0.00  0.00    +0.000 A 
ATOM     20  C   UNL     1       0.638  10.420  19.856  0.00  0.00    +0.000 A 
ATOM     21 CL   UNL     1      -0.227  11.783  20.446  0.00  0.00    +0.000 Cl
ATOM     22  C   UNL     1       0.931   9.358  20.702  0.00  0.00    +0.000 A 
ATOM     23  C   UNL     1       1.613   8.236  20.206  0.00  0.00    +0.000 A 
ENDBRANCH   5  17
TORSDOF 1
ENDMDL
MODEL 9
REMARK VINA RESULT:      -7.1      5.395      7.194
REMARK  Name = 
REMARK  2 active torsions:
REMARK  status: ('A' for Active; 'I' for Inactive)
REMARK    1  A    between atoms: C_1  and  N_2
REMARK    2  A    between atoms: C_5  and  C_6
REMARK                            x       y       z     vdW  Elec       q    Type
REMARK                         _______ _______ _______ _____ _____    ______ ____
ROOT
ATOM      1  C   UNL     1       0.033   9.606  22.467  0.00  0.00    +0.000 C 
ATOM      2  N   UNL     1       0.616  10.433  21.389  0.00  0.00    +0.000 N 
ATOM      3  C   UNL     1       1.004   9.791  20.172  0.00  0.00    +0.000 A 
ATOM      4  N   UNL     1       1.388   8.491  20.286  0.00  0.00    +0.000 NA
ATOM      5  C   UNL     1       2.011   7.926  19.209  0.00  0.00    +0.000 A 
ATOM      6  C   UNL     1       2.256   8.683  18.059  0.00  0.00    +0.000 A 
ATOM      7  N   UNL     1       1.895   9.978  17.920  0.00  0.00    +0.000 NA
ATOM      8  C   UNL     1       1.293  10.512  19.018  0.00  0.00    +0.000 A 
ATOM      9  C   UNL     1       1.045  11.981  18.956  0.00  0.00    +0.000 C 
ATOM     10  N   UNL     1       1.512  12.658  17.849  0.00  0.00    +0.000 N 
ATOM     11  N   UNL     1       0.413  12.652  19.866  0.00  0.00    +0.000 NA
ATOM     12  S   UNL     1      -0.247  11.870  21.118  0.00  0.00    +0.000 S 
ATOM     13  O   UNL     1      -1.578  11.466  20.708  0.00  0.00    +0.000 OA
ATOM     14  O   UNL     1      -0.082  12.673  22.311  0.00  0.00    +0.000 OA
ATOM     15  H   UNL     1       1.702  12.078  17.035  0.00  0.00    +0.000 HD
ATOM     16  H   UNL     1       1.031  13.528  17.647  0.00  0.00    +0.000 HD
ENDROOT
BRANCH   5  17
ATOM     17  C   UNL     1       2.460   6.523  19.342  0.00  0.00    +0.000 A 
ATOM     18  C   UNL     1       3.385   5.952  18.442  0.00  0.00    +0.000 A 
ATOM     19  C   UNL     1       3.867   4.651  18.614  0.00  0.00    +0.000 A 
ATOM     20  C   UNL     1       3.420   3.884  19.684  0.00  0.00    +0.000 A 
ATOM     21 CL   UNL     1       4.037   2.295  19.909  0.00  0.00    +0.000 Cl
ATOM     22  C   UNL     1       2.483   4.402  20.570  0.00  0.00    +0.000 A 
ATOM     23  C   UNL     1       2.005   5.710  20.397  0.00  0.00    +0.000 A 
ENDBRANCH   5  17
TORSDOF 1
ENDMDL
