MODEL 1
REMARK VINA RESULT:      -6.8      0.000      0.000
REMARK  Name = 
REMARK  9 active torsions:
REMARK  status: ('A' for Active; 'I' for Inactive)
REMARK    1  A    between atoms: C_1  and  C_2
REMARK    2  A    between atoms: C_2  and  O_3
REMARK    3  A    between atoms: O_3  and  C_4
REMARK    4  A    between atoms: C_4  and  C_6
REMARK    5  A    between atoms: C_8  and  N_9
REMARK    6  A    between atoms: C_10  and  C_12
REMARK    7  A    between atoms: C_16  and  C_17
REMARK    8  A    between atoms: C_18  and  C_19
REMARK    9  A    between atoms: C_22  and  C_23
REMARK                            x       y       z     vdW  Elec       q    Type
REMARK                         _______ _______ _______ _____ _____    ______ ____
ROOT
ATOM      1  C   UNL     1       5.216   4.875  17.232  0.00  0.00    +0.000 A 
ATOM      2  S   UNL     1       4.870   6.538  17.419  0.00  0.00    +0.000 S 
ATOM      3  C   UNL     1       3.227   6.245  17.716  0.00  0.00    +0.000 A 
ATOM      4  C   UNL     1       2.915   4.898  17.826  0.00  0.00    +0.000 A 
ATOM      5  C   UNL     1       4.099   4.091  17.520  0.00  0.00    +0.000 A 
ATOM      6  C   UNL     1       4.155   2.588  17.538  0.00  0.00    +0.000 C 
ENDROOT
BRANCH   4   7
ATOM      7  C   UNL     1       1.653   4.332  18.320  0.00  0.00    +0.000 C 
ATOM      8  N   UNL     1       1.422   4.370  19.662  0.00  0.00    +0.000 N 
ATOM      9  O   UNL     1       0.799   3.852  17.582  0.00  0.00    +0.000 OA
ATOM     10  H   UNL     1       1.899   5.069  20.225  0.00  0.00    +0.000 HD
ATOM     11  H   UNL     1       0.501   4.090  19.961  0.00  0.00    +0.000 HD
ENDBRANCH   4   7
BRANCH   3  12
ATOM     12  N   UNL     1       2.498   7.415  17.874  0.00  0.00    +0.000 N 
ATOM     13  C   UNL     1       2.147   7.831  19.146  0.00  0.00    +0.000 C 
ATOM     14  O   UNL     1       2.453   7.221  20.172  0.00  0.00    +0.000 OA
ATOM     15  H   UNL     1       1.802   7.605  17.161  0.00  0.00    +0.000 HD
BRANCH  13  16
ATOM     16  C   UNL     1       1.374   9.062  19.206  0.00  0.00    +0.000 A 
ATOM     17  C   UNL     1       1.367  10.187  18.328  0.00  0.00    +0.000 A 
ATOM     18  C   UNL     1       0.535  11.124  18.895  0.00  0.00    +0.000 A 
ATOM     19  O   UNL     1      -0.001  10.647  20.043  0.00  0.00    +0.000 OA
ATOM     20  C   UNL     1       0.511   9.401  20.239  0.00  0.00    +0.000 A 
ATOM     21  C   UNL     1       0.061   8.702  21.463  0.00  0.00    +0.000 C 
ENDBRANCH  13  16
ENDBRANCH   3  12
BRANCH   1  22
ATOM     22  C   UNL     1       6.549   4.385  16.893  0.00  0.00    +0.000 C 
ATOM     23  O   UNL     1       7.564   4.612  17.545  0.00  0.00    +0.000 OA
BRANCH  22  24
ATOM     24  O   UNL     1       6.558   3.727  15.698  0.00  0.00    +0.000 OA
BRANCH  24  26
ATOM     25  C   UNL     1       6.150   3.805  13.352  0.00  0.00    +0.000 C 
ATOM     26  C   UNL     1       6.670   4.580  14.550  0.00  0.00    +0.000 C 
ENDBRANCH  24  26
ENDBRANCH  22  24
ENDBRANCH   1  22
TORSDOF 6
ENDMDL
MODEL 2
REMARK VINA RESULT:      -6.8      2.091      2.808
REMARK  Name = 
REMARK  9 active torsions:
REMARK  status: ('A' for Active; 'I' for Inactive)
REMARK    1  A    between atoms: C_1  and  C_2
REMARK    2  A    between atoms: C_2  and  O_3
REMARK    3  A    between atoms: O_3  and  C_4
REMARK    4  A    between atoms: C_4  and  C_6
REMARK    5  A    between atoms: C_8  and  N_9
REMARK    6  A    between atoms: C_10  and  C_12
REMARK    7  A    between atoms: C_16  and  C_17
REMARK    8  A    between atoms: C_18  and  C_19
REMARK    9  A    between atoms: C_22  and  C_23
REMARK                            x       y       z     vdW  Elec       q    Type
REMARK                         _______ _______ _______ _____ _____    ______ ____
ROOT
ATOM      1  C   UNL     1       4.341   4.486  18.568  0.00  0.00    +0.000 A 
ATOM      2  S   UNL     1       4.017   6.061  19.147  0.00  0.00    +0.000 S 
ATOM      3  C   UNL     1       2.685   5.540  20.057  0.00  0.00    +0.000 A 
ATOM      4  C   UNL     1       2.528   4.162  20.072  0.00  0.00    +0.000 A 
ATOM      5  C   UNL     1       3.505   3.545  19.171  0.00  0.00    +0.000 A 
ATOM      6  C   UNL     1       3.647   2.067  18.923  0.00  0.00    +0.000 C 
ENDROOT
BRANCH   4   7
ATOM      7  C   UNL     1       1.640   3.395  20.953  0.00  0.00    +0.000 C 
ATOM      8  N   UNL     1       0.435   3.000  20.455  0.00  0.00    +0.000 N 
ATOM      9  O   UNL     1       1.941   3.080  22.100  0.00  0.00    +0.000 OA
ATOM     10  H   UNL     1       0.324   2.909  19.449  0.00  0.00    +0.000 HD
ATOM     11  H   UNL     1      -0.100   2.373  21.034  0.00  0.00    +0.000 HD
ENDBRANCH   4   7
BRANCH   3  12
ATOM     12  N   UNL     1       2.032   6.587  20.692  0.00  0.00    +0.000 N 
ATOM     13  C   UNL     1       1.758   7.746  19.986  0.00  0.00    +0.000 C 
ATOM     14  O   UNL     1       2.057   7.909  18.801  0.00  0.00    +0.000 OA
ATOM     15  H   UNL     1       2.269   6.734  21.666  0.00  0.00    +0.000 HD
BRANCH  13  16
ATOM     16  C   UNL     1       1.082   8.788  20.741  0.00  0.00    +0.000 A 
ATOM     17  C   UNL     1       1.026   9.015  22.149  0.00  0.00    +0.000 A 
ATOM     18  C   UNL     1       0.168  10.072  22.344  0.00  0.00    +0.000 A 
ATOM     19  O   UNL     1      -0.286  10.538  21.156  0.00  0.00    +0.000 OA
ATOM     20  C   UNL     1       0.260   9.757  20.183  0.00  0.00    +0.000 A 
ATOM     21  C   UNL     1      -0.127  10.091  18.794  0.00  0.00    +0.000 C 
ENDBRANCH  13  16
ENDBRANCH   3  12
BRANCH   1  22
ATOM     22  C   UNL     1       5.420   4.202  17.626  0.00  0.00    +0.000 C 
ATOM     23  O   UNL     1       5.260   3.948  16.437  0.00  0.00    +0.000 OA
BRANCH  22  24
ATOM     24  O   UNL     1       6.633   4.146  18.249  0.00  0.00    +0.000 OA
BRANCH  24  26
ATOM     25  C   UNL     1       7.895   5.969  19.123  0.00  0.00    +0.000 C 
ATOM     26  C   UNL     1       7.545   5.187  17.869  0.00  0.00    +0.000 C 
ENDBRANCH  24  26
ENDBRANCH  22  24
ENDBRANCH   1  22
TORSDOF 6
ENDMDL
MODEL 3
REMARK VINA RESULT:      -6.6      0.823      1.476
REMARK  Name = 
REMARK  9 active torsions:
REMARK  status: ('A' for Active; 'I' for Inactive)
REMARK    1  A    between atoms: C_1  and  C_2
REMARK    2  A    between atoms: C_2  and  O_3
REMARK    3  A    between atoms: O_3  and  C_4
REMARK    4  A    between atoms: C_4  and  C_6
REMARK    5  A    between atoms: C_8  and  N_9
REMARK    6  A    between atoms: C_10  and  C_12
REMARK    7  A    between atoms: C_16  and  C_17
REMARK    8  A    between atoms: C_18  and  C_19
REMARK    9  A    between atoms: C_22  and  C_23
REMARK                            x       y       z     vdW  Elec       q    Type
REMARK                         _______ _______ _______ _____ _____    ______ ____
ROOT
ATOM      1  C   UNL     1       5.367   5.350  16.816  0.00  0.00    +0.000 A 
ATOM      2  S   UNL     1       4.912   6.863  17.469  0.00  0.00    +0.000 S 
ATOM      3  C   UNL     1       3.346   6.327  17.832  0.00  0.00    +0.000 A 
ATOM      4  C   UNL     1       3.159   4.969  17.611  0.00  0.00    +0.000 A 
ATOM      5  C   UNL     1       4.359   4.401  16.992  0.00  0.00    +0.000 A 
ATOM      6  C   UNL     1       4.537   2.958  16.606  0.00  0.00    +0.000 C 
ENDROOT
BRANCH   4   7
ATOM      7  C   UNL     1       2.016   4.163  18.056  0.00  0.00    +0.000 C 
ATOM      8  N   UNL     1       2.092   3.574  19.281  0.00  0.00    +0.000 N 
ATOM      9  O   UNL     1       0.997   4.017  17.386  0.00  0.00    +0.000 OA
ATOM     10  H   UNL     1       2.713   3.970  19.981  0.00  0.00    +0.000 HD
ATOM     11  H   UNL     1       1.249   3.131  19.613  0.00  0.00    +0.000 HD
ENDBRANCH   4   7
BRANCH   3  12
ATOM     12  N   UNL     1       2.549   7.331  18.362  0.00  0.00    +0.000 N 
ATOM     13  C   UNL     1       2.220   7.300  19.706  0.00  0.00    +0.000 C 
ATOM     14  O   UNL     1       2.604   6.423  20.482  0.00  0.00    +0.000 OA
ATOM     15  H   UNL     1       1.817   7.684  17.757  0.00  0.00    +0.000 HD
BRANCH  13  16
ATOM     16  C   UNL     1       1.373   8.390  20.163  0.00  0.00    +0.000 A 
ATOM     17  C   UNL     1       0.618   8.526  21.367  0.00  0.00    +0.000 A 
ATOM     18  C   UNL     1      -0.089   9.701  21.259  0.00  0.00    +0.000 A 
ATOM     19  O   UNL     1       0.199  10.319  20.089  0.00  0.00    +0.000 OA
ATOM     20  C   UNL     1       1.078   9.524  19.419  0.00  0.00    +0.000 A 
ATOM     21  C   UNL     1       1.513  10.015  18.093  0.00  0.00    +0.000 C 
ENDBRANCH  13  16
ENDBRANCH   3  12
BRANCH   1  22
ATOM     22  C   UNL     1       6.685   5.110  16.235  0.00  0.00    +0.000 C 
ATOM     23  O   UNL     1       7.627   4.595  16.829  0.00  0.00    +0.000 OA
BRANCH  22  24
ATOM     24  O   UNL     1       6.784   5.627  14.976  0.00  0.00    +0.000 OA
BRANCH  24  26
ATOM     25  C   UNL     1       5.973   3.944  13.497  0.00  0.00    +0.000 C 
ATOM     26  C   UNL     1       7.207   4.686  13.978  0.00  0.00    +0.000 C 
ENDBRANCH  24  26
ENDBRANCH  22  24
ENDBRANCH   1  22
TORSDOF 6
ENDMDL
MODEL 4
REMARK VINA RESULT:      -6.5      1.040      1.818
REMARK  Name = 
REMARK  9 active torsions:
REMARK  status: ('A' for Active; 'I' for Inactive)
REMARK    1  A    between atoms: C_1  and  C_2
REMARK    2  A    between atoms: C_2  and  O_3
REMARK    3  A    between atoms: O_3  and  C_4
REMARK    4  A    between atoms: C_4  and  C_6
REMARK    5  A    between atoms: C_8  and  N_9
REMARK    6  A    between atoms: C_10  and  C_12
REMARK    7  A    between atoms: C_16  and  C_17
REMARK    8  A    between atoms: C_18  and  C_19
REMARK    9  A    between atoms: C_22  and  C_23
REMARK                            x       y       z     vdW  Elec       q    Type
REMARK                         _______ _______ _______ _____ _____    ______ ____
ROOT
ATOM      1  C   UNL     1       5.220   5.185  17.389  0.00  0.00    +0.000 A 
ATOM      2  S   UNL     1       4.776   6.822  17.599  0.00  0.00    +0.000 S 
ATOM      3  C   UNL     1       3.140   6.434  17.813  0.00  0.00    +0.000 A 
ATOM      4  C   UNL     1       2.896   5.070  17.877  0.00  0.00    +0.000 A 
ATOM      5  C   UNL     1       4.135   4.335  17.607  0.00  0.00    +0.000 A 
ATOM      6  C   UNL     1       4.272   2.837  17.592  0.00  0.00    +0.000 C 
ENDROOT
BRANCH   4   7
ATOM      7  C   UNL     1       1.647   4.425  18.300  0.00  0.00    +0.000 C 
ATOM      8  N   UNL     1       1.352   4.421  19.629  0.00  0.00    +0.000 N 
ATOM      9  O   UNL     1       0.856   3.915  17.513  0.00  0.00    +0.000 OA
ATOM     10  H   UNL     1       1.763   5.132  20.228  0.00  0.00    +0.000 HD
ATOM     11  H   UNL     1       0.436   4.084  19.879  0.00  0.00    +0.000 HD
ENDBRANCH   4   7
BRANCH   3  12
ATOM     12  N   UNL     1       2.341   7.559  17.965  0.00  0.00    +0.000 N 
ATOM     13  C   UNL     1       1.982   7.971  19.236  0.00  0.00    +0.000 C 
ATOM     14  O   UNL     1       2.338   7.396  20.266  0.00  0.00    +0.000 OA
ATOM     15  H   UNL     1       1.626   7.696  17.259  0.00  0.00    +0.000 HD
BRANCH  13  16
ATOM     16  C   UNL     1       1.135   9.153  19.290  0.00  0.00    +0.000 A 
ATOM     17  C   UNL     1       1.064  10.274  18.409  0.00  0.00    +0.000 A 
ATOM     18  C   UNL     1       0.173  11.160  18.970  0.00  0.00    +0.000 A 
ATOM     19  O   UNL     1      -0.338  10.653  20.117  0.00  0.00    +0.000 OA
ATOM     20  C   UNL     1       0.248   9.440  20.317  0.00  0.00    +0.000 A 
ATOM     21  C   UNL     1      -0.165   8.717  21.541  0.00  0.00    +0.000 C 
ENDBRANCH  13  16
ENDBRANCH   3  12
BRANCH   1  22
ATOM     22  C   UNL     1       6.592   4.776  17.100  0.00  0.00    +0.000 C 
ATOM     23  O   UNL     1       7.052   4.621  15.973  0.00  0.00    +0.000 OA
BRANCH  22  24
ATOM     24  O   UNL     1       7.281   4.478  18.239  0.00  0.00    +0.000 OA
BRANCH  24  26
ATOM     25  C   UNL     1       8.159   6.633  18.750  0.00  0.00    +0.000 C 
ATOM     26  C   UNL     1       7.260   5.510  19.235  0.00  0.00    +0.000 C 
ENDBRANCH  24  26
ENDBRANCH  22  24
ENDBRANCH   1  22
TORSDOF 6
ENDMDL
MODEL 5
REMARK VINA RESULT:      -6.4      1.687      2.129
REMARK  Name = 
REMARK  9 active torsions:
REMARK  status: ('A' for Active; 'I' for Inactive)
REMARK    1  A    between atoms: C_1  and  C_2
REMARK    2  A    between atoms: C_2  and  O_3
REMARK    3  A    between atoms: O_3  and  C_4
REMARK    4  A    between atoms: C_4  and  C_6
REMARK    5  A    between atoms: C_8  and  N_9
REMARK    6  A    between atoms: C_10  and  C_12
REMARK    7  A    between atoms: C_16  and  C_17
REMARK    8  A    between atoms: C_18  and  C_19
REMARK    9  A    between atoms: C_22  and  C_23
REMARK                            x       y       z     vdW  Elec       q    Type
REMARK                         _______ _______ _______ _____ _____    ______ ____
ROOT
ATOM      1  C   UNL     1       4.447   4.503  18.249  0.00  0.00    +0.000 A 
ATOM      2  S   UNL     1       4.175   6.053  18.916  0.00  0.00    +0.000 S 
ATOM      3  C   UNL     1       2.829   5.524  19.800  0.00  0.00    +0.000 A 
ATOM      4  C   UNL     1       2.628   4.153  19.738  0.00  0.00    +0.000 A 
ATOM      5  C   UNL     1       3.584   3.557  18.801  0.00  0.00    +0.000 A 
ATOM      6  C   UNL     1       3.679   2.092  18.471  0.00  0.00    +0.000 C 
ENDROOT
BRANCH   4   7
ATOM      7  C   UNL     1       1.718   3.366  20.579  0.00  0.00    +0.000 C 
ATOM      8  N   UNL     1       0.436   3.203  20.148  0.00  0.00    +0.000 N 
ATOM      9  O   UNL     1       2.064   2.837  21.631  0.00  0.00    +0.000 OA
ATOM     10  H   UNL     1       0.235   3.288  19.156  0.00  0.00    +0.000 HD
ATOM     11  H   UNL     1      -0.131   2.559  20.677  0.00  0.00    +0.000 HD
ENDBRANCH   4   7
BRANCH   3  12
ATOM     12  N   UNL     1       2.210   6.554  20.495  0.00  0.00    +0.000 N 
ATOM     13  C   UNL     1       1.849   7.708  19.821  0.00  0.00    +0.000 C 
ATOM     14  O   UNL     1       2.038   7.881  18.615  0.00  0.00    +0.000 OA
ATOM     15  H   UNL     1       2.528   6.704  21.445  0.00  0.00    +0.000 HD
BRANCH  13  16
ATOM     16  C   UNL     1       1.217   8.732  20.637  0.00  0.00    +0.000 A 
ATOM     17  C   UNL     1       1.208   8.902  22.054  0.00  0.00    +0.000 A 
ATOM     18  C   UNL     1       0.379   9.968  22.318  0.00  0.00    +0.000 A 
ATOM     19  O   UNL     1      -0.099  10.491  21.164  0.00  0.00    +0.000 OA
ATOM     20  C   UNL     1       0.400   9.740  20.144  0.00  0.00    +0.000 A 
ATOM     21  C   UNL     1      -0.019  10.138  18.782  0.00  0.00    +0.000 C 
ENDBRANCH  13  16
ENDBRANCH   3  12
BRANCH   1  22
ATOM     22  C   UNL     1       5.516   4.239  17.289  0.00  0.00    +0.000 C 
ATOM     23  O   UNL     1       6.714   4.291  17.546  0.00  0.00    +0.000 OA
BRANCH  22  24
ATOM     24  O   UNL     1       5.027   4.031  16.032  0.00  0.00    +0.000 OA
BRANCH  24  26
ATOM     25  C   UNL     1       6.076   3.916  13.896  0.00  0.00    +0.000 C 
ATOM     26  C   UNL     1       5.634   4.841  15.015  0.00  0.00    +0.000 C 
ENDBRANCH  24  26
ENDBRANCH  22  24
ENDBRANCH   1  22
TORSDOF 6
ENDMDL
MODEL 6
REMARK VINA RESULT:      -6.4      1.138      1.153
REMARK  Name = 
REMARK  9 active torsions:
REMARK  status: ('A' for Active; 'I' for Inactive)
REMARK    1  A    between atoms: C_1  and  C_2
REMARK    2  A    between atoms: C_2  and  O_3
REMARK    3  A    between atoms: O_3  and  C_4
REMARK    4  A    between atoms: C_4  and  C_6
REMARK    5  A    between atoms: C_8  and  N_9
REMARK    6  A    between atoms: C_10  and  C_12
REMARK    7  A    between atoms: C_16  and  C_17
REMARK    8  A    between atoms: C_18  and  C_19
REMARK    9  A    between atoms: C_22  and  C_23
REMARK                            x       y       z     vdW  Elec       q    Type
REMARK                         _______ _______ _______ _____ _____    ______ ____
ROOT
ATOM      1  C   UNL     1       5.167   5.666  17.015  0.00  0.00    +0.000 A 
ATOM      2  S   UNL     1       4.793   7.105  17.857  0.00  0.00    +0.000 S 
ATOM      3  C   UNL     1       3.242   6.558  18.266  0.00  0.00    +0.000 A 
ATOM      4  C   UNL     1       3.008   5.237  17.913  0.00  0.00    +0.000 A 
ATOM      5  C   UNL     1       4.151   4.720  17.155  0.00  0.00    +0.000 A 
ATOM      6  C   UNL     1       4.269   3.325  16.604  0.00  0.00    +0.000 C 
ENDROOT
BRANCH   4   7
ATOM      7  C   UNL     1       1.878   4.405  18.344  0.00  0.00    +0.000 C 
ATOM      8  N   UNL     1       1.754   4.142  19.675  0.00  0.00    +0.000 N 
ATOM      9  O   UNL     1       1.038   3.960  17.569  0.00  0.00    +0.000 OA
ATOM     10  H   UNL     1       2.178   4.777  20.345  0.00  0.00    +0.000 HD
ATOM     11  H   UNL     1       0.906   3.676  19.957  0.00  0.00    +0.000 HD
ENDBRANCH   4   7
BRANCH   3  12
ATOM     12  N   UNL     1       2.505   7.512  18.955  0.00  0.00    +0.000 N 
ATOM     13  C   UNL     1       2.004   8.607  18.273  0.00  0.00    +0.000 C 
ATOM     14  O   UNL     1       2.167   8.790  17.065  0.00  0.00    +0.000 OA
ATOM     15  H   UNL     1       2.807   7.707  19.903  0.00  0.00    +0.000 HD
BRANCH  13  16
ATOM     16  C   UNL     1       1.256   9.554  19.084  0.00  0.00    +0.000 A 
ATOM     17  C   UNL     1       0.833  10.885  18.788  0.00  0.00    +0.000 A 
ATOM     18  C   UNL     1       0.251  11.377  19.934  0.00  0.00    +0.000 A 
ATOM     19  O   UNL     1       0.253  10.435  20.906  0.00  0.00    +0.000 OA
ATOM     20  C   UNL     1       0.868   9.332  20.397  0.00  0.00    +0.000 A 
ATOM     21  C   UNL     1       0.991   8.178  21.317  0.00  0.00    +0.000 C 
ENDBRANCH  13  16
ENDBRANCH   3  12
BRANCH   1  22
ATOM     22  C   UNL     1       6.438   5.469  16.323  0.00  0.00    +0.000 C 
ATOM     23  O   UNL     1       7.504   5.218  16.877  0.00  0.00    +0.000 OA
BRANCH  22  24
ATOM     24  O   UNL     1       6.326   5.705  14.984  0.00  0.00    +0.000 OA
BRANCH  24  26
ATOM     25  C   UNL     1       6.103   3.862  13.491  0.00  0.00    +0.000 C 
ATOM     26  C   UNL     1       7.084   4.810  14.156  0.00  0.00    +0.000 C 
ENDBRANCH  24  26
ENDBRANCH  22  24
ENDBRANCH   1  22
TORSDOF 6
ENDMDL
MODEL 7
REMARK VINA RESULT:      -6.3      1.036      2.181
REMARK  Name = 
REMARK  9 active torsions:
REMARK  status: ('A' for Active; 'I' for Inactive)
REMARK    1  A    between atoms: C_1  and  C_2
REMARK    2  A    between atoms: C_2  and  O_3
REMARK    3  A    between atoms: O_3  and  C_4
REMARK    4  A    between atoms: C_4  and  C_6
REMARK    5  A    between atoms: C_8  and  N_9
REMARK    6  A    between atoms: C_10  and  C_12
REMARK    7  A    between atoms: C_16  and  C_17
REMARK    8  A    between atoms: C_18  and  C_19
REMARK    9  A    between atoms: C_22  and  C_23
REMARK                            x       y       z     vdW  Elec       q    Type
REMARK                         _______ _______ _______ _____ _____    ______ ____
ROOT
ATOM      1  C   UNL     1       5.131   5.383  16.659  0.00  0.00    +0.000 A 
ATOM      2  S   UNL     1       4.643   6.910  17.253  0.00  0.00    +0.000 S 
ATOM      3  C   UNL     1       3.151   6.312  17.792  0.00  0.00    +0.000 A 
ATOM      4  C   UNL     1       3.030   4.935  17.676  0.00  0.00    +0.000 A 
ATOM      5  C   UNL     1       4.204   4.393  16.986  0.00  0.00    +0.000 A 
ATOM      6  C   UNL     1       4.438   2.939  16.679  0.00  0.00    +0.000 C 
ENDROOT
BRANCH   4   7
ATOM      7  C   UNL     1       1.982   4.098  18.273  0.00  0.00    +0.000 C 
ATOM      8  N   UNL     1       2.109   3.763  19.587  0.00  0.00    +0.000 N 
ATOM      9  O   UNL     1       0.998   3.709  17.652  0.00  0.00    +0.000 OA
ATOM     10  H   UNL     1       2.670   4.354  20.195  0.00  0.00    +0.000 HD
ATOM     11  H   UNL     1       1.320   3.294  20.003  0.00  0.00    +0.000 HD
ENDBRANCH   4   7
BRANCH   3  12
ATOM     12  N   UNL     1       2.342   7.305  18.327  0.00  0.00    +0.000 N 
ATOM     13  C   UNL     1       2.181   7.383  19.700  0.00  0.00    +0.000 C 
ATOM     14  O   UNL     1       2.727   6.617  20.495  0.00  0.00    +0.000 OA
ATOM     15  H   UNL     1       1.515   7.542  17.791  0.00  0.00    +0.000 HD
BRANCH  13  16
ATOM     16  C   UNL     1       1.306   8.449  20.162  0.00  0.00    +0.000 A 
ATOM     17  C   UNL     1       0.481   8.523  21.324  0.00  0.00    +0.000 A 
ATOM     18  C   UNL     1      -0.220   9.703  21.236  0.00  0.00    +0.000 A 
ATOM     19  O   UNL     1       0.137  10.382  20.119  0.00  0.00    +0.000 OA
ATOM     20  C   UNL     1       1.056   9.621  19.463  0.00  0.00    +0.000 A 
ATOM     21  C   UNL     1       1.568  10.181  18.192  0.00  0.00    +0.000 C 
ENDBRANCH  13  16
ENDBRANCH   3  12
BRANCH   1  22
ATOM     22  C   UNL     1       6.406   5.179  15.976  0.00  0.00    +0.000 C 
ATOM     23  O   UNL     1       6.533   4.637  14.882  0.00  0.00    +0.000 OA
BRANCH  22  24
ATOM     24  O   UNL     1       7.462   5.566  16.749  0.00  0.00    +0.000 OA
BRANCH  24  26
ATOM     25  C   UNL     1       7.806   5.711  19.102  0.00  0.00    +0.000 C 
ATOM     26  C   UNL     1       7.666   4.766  17.922  0.00  0.00    +0.000 C 
ENDBRANCH  24  26
ENDBRANCH  22  24
ENDBRANCH   1  22
TORSDOF 6
ENDMDL
MODEL 8
REMARK VINA RESULT:      -6.3      1.710      2.500
REMARK  Name = 
REMARK  9 active torsions:
REMARK  status: ('A' for Active; 'I' for Inactive)
REMARK    1  A    between atoms: C_1  and  C_2
REMARK    2  A    between atoms: C_2  and  O_3
REMARK    3  A    between atoms: O_3  and  C_4
REMARK    4  A    between atoms: C_4  and  C_6
REMARK    5  A    between atoms: C_8  and  N_9
REMARK    6  A    between atoms: C_10  and  C_12
REMARK    7  A    between atoms: C_16  and  C_17
REMARK    8  A    between atoms: C_18  and  C_19
REMARK    9  A    between atoms: C_22  and  C_23
REMARK                            x       y       z     vdW  Elec       q    Type
REMARK                         _______ _______ _______ _____ _____    ______ ____
ROOT
ATOM      1  C   UNL     1       4.356   5.827  17.071  0.00  0.00    +0.000 A 
ATOM      2  S   UNL     1       3.992   7.424  17.560  0.00  0.00    +0.000 S 
ATOM      3  C   UNL     1       2.792   6.905  18.639  0.00  0.00    +0.000 A 
ATOM      4  C   UNL     1       2.724   5.526  18.773  0.00  0.00    +0.000 A 
ATOM      5  C   UNL     1       3.644   4.893  17.825  0.00  0.00    +0.000 A 
ATOM      6  C   UNL     1       3.855   3.411  17.675  0.00  0.00    +0.000 C 
ENDROOT
BRANCH   4   7
ATOM      7  C   UNL     1       1.977   4.785  19.796  0.00  0.00    +0.000 C 
ATOM      8  N   UNL     1       2.351   4.944  21.096  0.00  0.00    +0.000 N 
ATOM      9  O   UNL     1       1.027   4.052  19.535  0.00  0.00    +0.000 OA
ATOM     10  H   UNL     1       2.844   5.791  21.366  0.00  0.00    +0.000 HD
ATOM     11  H   UNL     1       1.747   4.525  21.786  0.00  0.00    +0.000 HD
ENDBRANCH   4   7
BRANCH   3  12
ATOM     12  N   UNL     1       2.139   7.963  19.257  0.00  0.00    +0.000 N 
ATOM     13  C   UNL     1       1.513   8.922  18.481  0.00  0.00    +0.000 C 
ATOM     14  O   UNL     1       1.490   8.895  17.249  0.00  0.00    +0.000 OA
ATOM     15  H   UNL     1       2.572   8.320  20.101  0.00  0.00    +0.000 HD
BRANCH  13  16
ATOM     16  C   UNL     1       0.867   9.995  19.221  0.00  0.00    +0.000 A 
ATOM     17  C   UNL     1      -0.241   9.954  20.120  0.00  0.00    +0.000 A 
ATOM     18  C   UNL     1      -0.516  11.258  20.465  0.00  0.00    +0.000 A 
ATOM     19  O   UNL     1       0.363  12.099  19.871  0.00  0.00    +0.000 OA
ATOM     20  C   UNL     1       1.198  11.338  19.111  0.00  0.00    +0.000 A 
ATOM     21  C   UNL     1       2.237  12.074  18.356  0.00  0.00    +0.000 C 
ENDBRANCH  13  16
ENDBRANCH   3  12
BRANCH   1  22
ATOM     22  C   UNL     1       5.353   5.528  16.047  0.00  0.00    +0.000 C 
ATOM     23  O   UNL     1       5.187   4.745  15.117  0.00  0.00    +0.000 OA
BRANCH  22  24
ATOM     24  O   UNL     1       6.543   6.145  16.304  0.00  0.00    +0.000 OA
BRANCH  24  26
ATOM     25  C   UNL     1       7.751   6.660  18.292  0.00  0.00    +0.000 C 
ATOM     26  C   UNL     1       7.308   5.546  17.360  0.00  0.00    +0.000 C 
ENDBRANCH  24  26
ENDBRANCH  22  24
ENDBRANCH   1  22
TORSDOF 6
ENDMDL
MODEL 9
REMARK VINA RESULT:      -6.2      1.815      7.050
REMARK  Name = 
REMARK  9 active torsions:
REMARK  status: ('A' for Active; 'I' for Inactive)
REMARK    1  A    between atoms: C_1  and  C_2
REMARK    2  A    between atoms: C_2  and  O_3
REMARK    3  A    between atoms: O_3  and  C_4
REMARK    4  A    between atoms: C_4  and  C_6
REMARK    5  A    between atoms: C_8  and  N_9
REMARK    6  A    between atoms: C_10  and  C_12
REMARK    7  A    between atoms: C_16  and  C_17
REMARK    8  A    between atoms: C_18  and  C_19
REMARK    9  A    between atoms: C_22  and  C_23
REMARK                            x       y       z     vdW  Elec       q    Type
REMARK                         _______ _______ _______ _____ _____    ______ ____
ROOT
ATOM      1  C   UNL     1       1.232   9.086  19.630  0.00  0.00    +0.000 A 
ATOM      2  S   UNL     1       2.072   8.701  18.192  0.00  0.00    +0.000 S 
ATOM      3  C   UNL     1       2.432   7.134  18.727  0.00  0.00    +0.000 A 
ATOM      4  C   UNL     1       1.819   6.802  19.927  0.00  0.00    +0.000 A 
ATOM      5  C   UNL     1       1.122   7.973  20.464  0.00  0.00    +0.000 A 
ATOM      6  C   UNL     1       0.337   8.005  21.747  0.00  0.00    +0.000 C 
ENDROOT
BRANCH   4   7
ATOM      7  C   UNL     1       1.728   5.462  20.518  0.00  0.00    +0.000 C 
ATOM      8  N   UNL     1       2.730   5.065  21.351  0.00  0.00    +0.000 N 
ATOM      9  O   UNL     1       0.788   4.700  20.313  0.00  0.00    +0.000 OA
ATOM     10  H   UNL     1       3.287   5.772  21.823  0.00  0.00    +0.000 HD
ATOM     11  H   UNL     1       2.583   4.196  21.838  0.00  0.00    +0.000 HD
ENDBRANCH   4   7
BRANCH   3  12
ATOM     12  N   UNL     1       3.219   6.432  17.825  0.00  0.00    +0.000 N 
ATOM     13  C   UNL     1       4.419   5.889  18.249  0.00  0.00    +0.000 C 
ATOM     14  O   UNL     1       4.841   5.985  19.403  0.00  0.00    +0.000 OA
ATOM     15  H   UNL     1       3.227   6.783  16.874  0.00  0.00    +0.000 HD
BRANCH  13  16
ATOM     16  C   UNL     1       5.176   5.182  17.228  0.00  0.00    +0.000 A 
ATOM     17  C   UNL     1       4.839   4.015  16.477  0.00  0.00    +0.000 A 
ATOM     18  C   UNL     1       5.945   3.701  15.720  0.00  0.00    +0.000 A 
ATOM     19  O   UNL     1       6.929   4.609  15.924  0.00  0.00    +0.000 OA
ATOM     20  C   UNL     1       6.469   5.502  16.842  0.00  0.00    +0.000 A 
ATOM     21  C   UNL     1       7.410   6.580  17.222  0.00  0.00    +0.000 C 
ENDBRANCH  13  16
ENDBRANCH   3  12
BRANCH   1  22
ATOM     22  C   UNL     1       0.650  10.404  19.870  0.00  0.00    +0.000 C 
ATOM     23  O   UNL     1       1.281  11.389  20.241  0.00  0.00    +0.000 OA
BRANCH  22  24
ATOM     24  O   UNL     1      -0.708  10.390  19.736  0.00  0.00    +0.000 OA
BRANCH  24  26
ATOM     25  C   UNL     1      -1.632  10.081  17.562  0.00  0.00    +0.000 C 
ATOM     26  C   UNL     1      -1.201  11.107  18.595  0.00  0.00    +0.000 C 
ENDBRANCH  24  26
ENDBRANCH  22  24
ENDBRANCH   1  22
TORSDOF 6
ENDMDL
