MODEL 1
REMARK VINA RESULT:      -6.4      0.000      0.000
REMARK  Name = 
REMARK  3 active torsions:
REMARK  status: ('A' for Active; 'I' for Inactive)
REMARK    1  A    between atoms: N_6  and  C_7
REMARK    2  A    between atoms: C_7  and  C_8
REMARK    3  A    between atoms: C_10  and  C_11
REMARK                            x       y       z     vdW  Elec       q    Type
REMARK                         _______ _______ _______ _____ _____    ______ ____
ROOT
ATOM      1  C   UNL     1       3.928   3.541  17.762  0.00  0.00    +0.000 A 
ATOM      2  N   UNL     1       3.280   4.424  18.493  0.00  0.00    +0.000 NA
ATOM      3  C   UNL     1       2.563   3.794  19.515  0.00  0.00    +0.000 A 
ATOM      4  C   UNL     1       2.639   2.412  19.477  0.00  0.00    +0.000 A 
ATOM      5  S   UNL     1       3.625   1.898  18.173  0.00  0.00    +0.000 S 
ENDROOT
BRANCH   3   6
ATOM      6  C   UNL     1       1.835   4.595  20.555  0.00  0.00    +0.000 C 
ATOM      7  F   UNL     1       1.982   5.937  20.407  0.00  0.00    +0.000 F 
ATOM      8  F   UNL     1       0.499   4.342  20.543  0.00  0.00    +0.000 F 
ATOM      9  F   UNL     1       2.273   4.287  21.806  0.00  0.00    +0.000 F 
ENDBRANCH   3   6
BRANCH   1  10
ATOM     10  C   UNL     1       4.888   3.893  16.664  0.00  0.00    +0.000 C 
BRANCH  10  16
ATOM     11  O   UNL     1       5.470   6.608  15.719  0.00  0.00    +0.000 OA
ATOM     12  C   UNL     1       6.052   6.085  16.653  0.00  0.00    +0.000 A 
ATOM     13  S   UNL     1       7.307   6.891  17.569  0.00  0.00    +0.000 S 
ATOM     14  C   UNL     1       7.437   5.464  18.554  0.00  0.00    +0.000 A 
ATOM     15  N   UNL     1       6.664   4.470  18.253  0.00  0.00    +0.000 NA
ATOM     16  N   UNL     1       5.889   4.817  17.168  0.00  0.00    +0.000 N 
ENDBRANCH  10  16
ENDBRANCH   1  10
TORSDOF 3
ENDMDL
MODEL 2
REMARK VINA RESULT:      -6.4      1.785      2.310
REMARK  Name = 
REMARK  3 active torsions:
REMARK  status: ('A' for Active; 'I' for Inactive)
REMARK    1  A    between atoms: N_6  and  C_7
REMARK    2  A    between atoms: C_7  and  C_8
REMARK    3  A    between atoms: C_10  and  C_11
REMARK                            x       y       z     vdW  Elec       q    Type
REMARK                         _______ _______ _______ _____ _____    ______ ____
ROOT
ATOM      1  C   UNL     1       4.328   3.862  18.856  0.00  0.00    +0.000 A 
ATOM      2  N   UNL     1       3.313   4.259  19.597  0.00  0.00    +0.000 NA
ATOM      3  C   UNL     1       2.312   3.285  19.632  0.00  0.00    +0.000 A 
ATOM      4  C   UNL     1       2.579   2.184  18.837  0.00  0.00    +0.000 A 
ATOM      5  S   UNL     1       4.095   2.356  18.058  0.00  0.00    +0.000 S 
ENDROOT
BRANCH   3   6
ATOM      6  C   UNL     1       1.102   3.453  20.505  0.00  0.00    +0.000 C 
ATOM      7  F   UNL     1       1.217   2.845  21.714  0.00  0.00    +0.000 F 
ATOM      8  F   UNL     1       0.830   4.762  20.746  0.00  0.00    +0.000 F 
ATOM      9  F   UNL     1      -0.008   2.935  19.908  0.00  0.00    +0.000 F 
ENDBRANCH   3   6
BRANCH   1  10
ATOM     10  C   UNL     1       5.616   4.617  18.711  0.00  0.00    +0.000 C 
BRANCH  10  16
ATOM     11  O   UNL     1       8.136   4.179  17.276  0.00  0.00    +0.000 OA
ATOM     12  C   UNL     1       7.119   4.577  16.736  0.00  0.00    +0.000 A 
ATOM     13  S   UNL     1       7.019   4.930  15.025  0.00  0.00    +0.000 S 
ATOM     14  C   UNL     1       5.349   5.352  15.258  0.00  0.00    +0.000 A 
ATOM     15  N   UNL     1       4.885   5.273  16.464  0.00  0.00    +0.000 NA
ATOM     16  N   UNL     1       5.892   4.847  17.304  0.00  0.00    +0.000 N 
ENDBRANCH  10  16
ENDBRANCH   1  10
TORSDOF 3
ENDMDL
MODEL 3
REMARK VINA RESULT:      -6.3      1.764      2.117
REMARK  Name = 
REMARK  3 active torsions:
REMARK  status: ('A' for Active; 'I' for Inactive)
REMARK    1  A    between atoms: N_6  and  C_7
REMARK    2  A    between atoms: C_7  and  C_8
REMARK    3  A    between atoms: C_10  and  C_11
REMARK                            x       y       z     vdW  Elec       q    Type
REMARK                         _______ _______ _______ _____ _____    ______ ____
ROOT
ATOM      1  C   UNL     1       4.505   4.254  18.889  0.00  0.00    +0.000 A 
ATOM      2  N   UNL     1       3.587   4.593  19.771  0.00  0.00    +0.000 NA
ATOM      3  C   UNL     1       2.605   3.605  19.874  0.00  0.00    +0.000 A 
ATOM      4  C   UNL     1       2.779   2.554  18.989  0.00  0.00    +0.000 A 
ATOM      5  S   UNL     1       4.186   2.791  18.040  0.00  0.00    +0.000 S 
ENDROOT
BRANCH   3   6
ATOM      6  C   UNL     1       1.511   3.706  20.897  0.00  0.00    +0.000 C 
ATOM      7  F   UNL     1       0.760   4.830  20.778  0.00  0.00    +0.000 F 
ATOM      8  F   UNL     1       0.656   2.652  20.827  0.00  0.00    +0.000 F 
ATOM      9  F   UNL     1       2.020   3.705  22.160  0.00  0.00    +0.000 F 
ENDBRANCH   3   6
BRANCH   1  10
ATOM     10  C   UNL     1       5.760   5.034  18.630  0.00  0.00    +0.000 C 
BRANCH  10  16
ATOM     11  O   UNL     1       8.116   4.158  17.118  0.00  0.00    +0.000 OA
ATOM     12  C   UNL     1       7.134   4.657  16.598  0.00  0.00    +0.000 A 
ATOM     13  S   UNL     1       6.991   4.908  14.871  0.00  0.00    +0.000 S 
ATOM     14  C   UNL     1       5.408   5.572  15.148  0.00  0.00    +0.000 A 
ATOM     15  N   UNL     1       5.004   5.636  16.376  0.00  0.00    +0.000 NA
ATOM     16  N   UNL     1       5.987   5.131  17.198  0.00  0.00    +0.000 N 
ENDBRANCH  10  16
ENDBRANCH   1  10
TORSDOF 3
ENDMDL
MODEL 4
REMARK VINA RESULT:      -6.3      2.409      2.887
REMARK  Name = 
REMARK  3 active torsions:
REMARK  status: ('A' for Active; 'I' for Inactive)
REMARK    1  A    between atoms: N_6  and  C_7
REMARK    2  A    between atoms: C_7  and  C_8
REMARK    3  A    between atoms: C_10  and  C_11
REMARK                            x       y       z     vdW  Elec       q    Type
REMARK                         _______ _______ _______ _____ _____    ______ ____
ROOT
ATOM      1  C   UNL     1       4.362   4.907  19.207  0.00  0.00    +0.000 A 
ATOM      2  N   UNL     1       3.887   3.690  19.370  0.00  0.00    +0.000 NA
ATOM      3  C   UNL     1       2.500   3.715  19.537  0.00  0.00    +0.000 A 
ATOM      4  C   UNL     1       1.967   4.992  19.567  0.00  0.00    +0.000 A 
ATOM      5  S   UNL     1       3.199   6.165  19.365  0.00  0.00    +0.000 S 
ENDROOT
BRANCH   3   6
ATOM      6  C   UNL     1       1.709   2.442  19.626  0.00  0.00    +0.000 C 
ATOM      7  F   UNL     1       0.463   2.541  19.096  0.00  0.00    +0.000 F 
ATOM      8  F   UNL     1       2.329   1.416  18.986  0.00  0.00    +0.000 F 
ATOM      9  F   UNL     1       1.556   2.050  20.921  0.00  0.00    +0.000 F 
ENDBRANCH   3   6
BRANCH   1  10
ATOM     10  C   UNL     1       5.792   5.221  18.880  0.00  0.00    +0.000 C 
BRANCH  10  16
ATOM     11  O   UNL     1       8.127   4.210  17.421  0.00  0.00    +0.000 OA
ATOM     12  C   UNL     1       7.128   4.638  16.871  0.00  0.00    +0.000 A 
ATOM     13  S   UNL     1       6.945   4.696  15.131  0.00  0.00    +0.000 S 
ATOM     14  C   UNL     1       5.360   5.369  15.369  0.00  0.00    +0.000 A 
ATOM     15  N   UNL     1       4.981   5.564  16.591  0.00  0.00    +0.000 NA
ATOM     16  N   UNL     1       5.988   5.162  17.441  0.00  0.00    +0.000 N 
ENDBRANCH  10  16
ENDBRANCH   1  10
TORSDOF 3
ENDMDL
MODEL 5
REMARK VINA RESULT:      -6.3      1.823      2.328
REMARK  Name = 
REMARK  3 active torsions:
REMARK  status: ('A' for Active; 'I' for Inactive)
REMARK    1  A    between atoms: N_6  and  C_7
REMARK    2  A    between atoms: C_7  and  C_8
REMARK    3  A    between atoms: C_10  and  C_11
REMARK                            x       y       z     vdW  Elec       q    Type
REMARK                         _______ _______ _______ _____ _____    ______ ____
ROOT
ATOM      1  C   UNL     1       4.459   4.312  19.331  0.00  0.00    +0.000 A 
ATOM      2  N   UNL     1       3.221   4.630  19.648  0.00  0.00    +0.000 NA
ATOM      3  C   UNL     1       2.495   3.496  20.020  0.00  0.00    +0.000 A 
ATOM      4  C   UNL     1       3.209   2.315  19.899  0.00  0.00    +0.000 A 
ATOM      5  S   UNL     1       4.798   2.625  19.339  0.00  0.00    +0.000 S 
ENDROOT
BRANCH   3   6
ATOM      6  C   UNL     1       1.091   3.612  20.536  0.00  0.00    +0.000 C 
ATOM      7  F   UNL     1       0.160   3.083  19.700  0.00  0.00    +0.000 F 
ATOM      8  F   UNL     1       0.941   2.990  21.735  0.00  0.00    +0.000 F 
ATOM      9  F   UNL     1       0.747   4.914  20.734  0.00  0.00    +0.000 F 
ENDBRANCH   3   6
BRANCH   1  10
ATOM     10  C   UNL     1       5.533   5.309  19.007  0.00  0.00    +0.000 C 
BRANCH  10  16
ATOM     11  O   UNL     1       8.019   4.340  17.790  0.00  0.00    +0.000 OA
ATOM     12  C   UNL     1       7.064   4.730  17.142  0.00  0.00    +0.000 A 
ATOM     13  S   UNL     1       7.041   4.751  15.392  0.00  0.00    +0.000 S 
ATOM     14  C   UNL     1       5.424   5.383  15.469  0.00  0.00    +0.000 A 
ATOM     15  N   UNL     1       4.928   5.588  16.647  0.00  0.00    +0.000 NA
ATOM     16  N   UNL     1       5.863   5.231  17.595  0.00  0.00    +0.000 N 
ENDBRANCH  10  16
ENDBRANCH   1  10
TORSDOF 3
ENDMDL
MODEL 6
REMARK VINA RESULT:      -6.2      2.564      3.103
REMARK  Name = 
REMARK  3 active torsions:
REMARK  status: ('A' for Active; 'I' for Inactive)
REMARK    1  A    between atoms: N_6  and  C_7
REMARK    2  A    between atoms: C_7  and  C_8
REMARK    3  A    between atoms: C_10  and  C_11
REMARK                            x       y       z     vdW  Elec       q    Type
REMARK                         _______ _______ _______ _____ _____    ______ ____
ROOT
ATOM      1  C   UNL     1       4.311   4.923  18.902  0.00  0.00    +0.000 A 
ATOM      2  N   UNL     1       3.883   3.697  18.681  0.00  0.00    +0.000 NA
ATOM      3  C   UNL     1       2.506   3.603  18.901  0.00  0.00    +0.000 A 
ATOM      4  C   UNL     1       1.936   4.777  19.362  0.00  0.00    +0.000 A 
ATOM      5  S   UNL     1       3.118   6.008  19.503  0.00  0.00    +0.000 S 
ENDROOT
BRANCH   3   6
ATOM      6  C   UNL     1       1.761   2.334  18.604  0.00  0.00    +0.000 C 
ATOM      7  F   UNL     1       2.202   1.694  17.491  0.00  0.00    +0.000 F 
ATOM      8  F   UNL     1       1.849   1.445  19.629  0.00  0.00    +0.000 F 
ATOM      9  F   UNL     1       0.435   2.576  18.419  0.00  0.00    +0.000 F 
ENDBRANCH   3   6
BRANCH   1  10
ATOM     10  C   UNL     1       5.712   5.391  18.639  0.00  0.00    +0.000 C 
BRANCH  10  16
ATOM     11  O   UNL     1       8.052   4.215  17.318  0.00  0.00    +0.000 OA
ATOM     12  C   UNL     1       7.122   4.716  16.711  0.00  0.00    +0.000 A 
ATOM     13  S   UNL     1       7.050   4.790  14.964  0.00  0.00    +0.000 S 
ATOM     14  C   UNL     1       5.507   5.576  15.109  0.00  0.00    +0.000 A 
ATOM     15  N   UNL     1       5.069   5.796  16.308  0.00  0.00    +0.000 NA
ATOM     16  N   UNL     1       5.991   5.320  17.215  0.00  0.00    +0.000 N 
ENDBRANCH  10  16
ENDBRANCH   1  10
TORSDOF 3
ENDMDL
MODEL 7
REMARK VINA RESULT:      -6.2      1.509      1.728
REMARK  Name = 
REMARK  3 active torsions:
REMARK  status: ('A' for Active; 'I' for Inactive)
REMARK    1  A    between atoms: N_6  and  C_7
REMARK    2  A    between atoms: C_7  and  C_8
REMARK    3  A    between atoms: C_10  and  C_11
REMARK                            x       y       z     vdW  Elec       q    Type
REMARK                         _______ _______ _______ _____ _____    ______ ____
ROOT
ATOM      1  C   UNL     1       4.044   4.246  18.240  0.00  0.00    +0.000 A 
ATOM      2  N   UNL     1       4.003   3.536  19.349  0.00  0.00    +0.000 NA
ATOM      3  C   UNL     1       2.785   3.714  20.010  0.00  0.00    +0.000 A 
ATOM      4  C   UNL     1       1.950   4.635  19.399  0.00  0.00    +0.000 A 
ATOM      5  S   UNL     1       2.681   5.264  17.983  0.00  0.00    +0.000 S 
ENDROOT
BRANCH   3   6
ATOM      6  C   UNL     1       2.449   2.921  21.239  0.00  0.00    +0.000 C 
ATOM      7  F   UNL     1       2.167   3.691  22.321  0.00  0.00    +0.000 F 
ATOM      8  F   UNL     1       1.375   2.112  21.041  0.00  0.00    +0.000 F 
ATOM      9  F   UNL     1       3.482   2.107  21.595  0.00  0.00    +0.000 F 
ENDBRANCH   3   6
BRANCH   1  10
ATOM     10  C   UNL     1       5.157   4.186  17.237  0.00  0.00    +0.000 C 
BRANCH  10  16
ATOM     11  O   UNL     1       5.600   6.776  15.934  0.00  0.00    +0.000 OA
ATOM     12  C   UNL     1       6.254   6.384  16.885  0.00  0.00    +0.000 A 
ATOM     13  S   UNL     1       7.540   7.322  17.613  0.00  0.00    +0.000 S 
ATOM     14  C   UNL     1       7.772   6.030  18.752  0.00  0.00    +0.000 A 
ATOM     15  N   UNL     1       7.011   4.990  18.625  0.00  0.00    +0.000 NA
ATOM     16  N   UNL     1       6.160   5.186  17.559  0.00  0.00    +0.000 N 
ENDBRANCH  10  16
ENDBRANCH   1  10
TORSDOF 3
ENDMDL
MODEL 8
REMARK VINA RESULT:      -6.1      2.026      2.560
REMARK  Name = 
REMARK  3 active torsions:
REMARK  status: ('A' for Active; 'I' for Inactive)
REMARK    1  A    between atoms: N_6  and  C_7
REMARK    2  A    between atoms: C_7  and  C_8
REMARK    3  A    between atoms: C_10  and  C_11
REMARK                            x       y       z     vdW  Elec       q    Type
REMARK                         _______ _______ _______ _____ _____    ______ ____
ROOT
ATOM      1  C   UNL     1       4.599   4.729  18.794  0.00  0.00    +0.000 A 
ATOM      2  N   UNL     1       4.055   3.781  19.529  0.00  0.00    +0.000 NA
ATOM      3  C   UNL     1       2.669   3.941  19.600  0.00  0.00    +0.000 A 
ATOM      4  C   UNL     1       2.206   5.077  18.957  0.00  0.00    +0.000 A 
ATOM      5  S   UNL     1       3.504   5.937  18.244  0.00  0.00    +0.000 S 
ENDROOT
BRANCH   3   6
ATOM      6  C   UNL     1       1.807   2.921  20.286  0.00  0.00    +0.000 C 
ATOM      7  F   UNL     1       2.199   2.646  21.556  0.00  0.00    +0.000 F 
ATOM      8  F   UNL     1       0.509   3.318  20.352  0.00  0.00    +0.000 F 
ATOM      9  F   UNL     1       1.813   1.740  19.608  0.00  0.00    +0.000 F 
ENDBRANCH   3   6
BRANCH   1  10
ATOM     10  C   UNL     1       6.050   4.778  18.415  0.00  0.00    +0.000 C 
BRANCH  10  16
ATOM     11  O   UNL     1       7.579   6.498  16.597  0.00  0.00    +0.000 OA
ATOM     12  C   UNL     1       6.956   5.519  16.226  0.00  0.00    +0.000 A 
ATOM     13  S   UNL     1       6.900   4.996  14.556  0.00  0.00    +0.000 S 
ATOM     14  C   UNL     1       5.892   3.671  15.056  0.00  0.00    +0.000 A 
ATOM     15  N   UNL     1       5.591   3.602  16.313  0.00  0.00    +0.000 NA
ATOM     16  N   UNL     1       6.183   4.656  16.973  0.00  0.00    +0.000 N 
ENDBRANCH  10  16
ENDBRANCH   1  10
TORSDOF 3
ENDMDL
MODEL 9
REMARK VINA RESULT:      -6.1      3.970      5.701
REMARK  Name = 
REMARK  3 active torsions:
REMARK  status: ('A' for Active; 'I' for Inactive)
REMARK    1  A    between atoms: N_6  and  C_7
REMARK    2  A    between atoms: C_7  and  C_8
REMARK    3  A    between atoms: C_10  and  C_11
REMARK                            x       y       z     vdW  Elec       q    Type
REMARK                         _______ _______ _______ _____ _____    ______ ____
ROOT
ATOM      1  C   UNL     1       4.275   5.660  18.087  0.00  0.00    +0.000 A 
ATOM      2  N   UNL     1       4.483   5.525  16.793  0.00  0.00    +0.000 NA
ATOM      3  C   UNL     1       5.717   4.917  16.548  0.00  0.00    +0.000 A 
ATOM      4  C   UNL     1       6.453   4.672  17.695  0.00  0.00    +0.000 A 
ATOM      5  S   UNL     1       5.592   5.183  19.085  0.00  0.00    +0.000 S 
ENDROOT
BRANCH   3   6
ATOM      6  C   UNL     1       6.134   4.548  15.155  0.00  0.00    +0.000 C 
ATOM      7  F   UNL     1       6.259   3.209  14.963  0.00  0.00    +0.000 F 
ATOM      8  F   UNL     1       5.249   4.997  14.227  0.00  0.00    +0.000 F 
ATOM      9  F   UNL     1       7.337   5.103  14.839  0.00  0.00    +0.000 F 
ENDBRANCH   3   6
BRANCH   1  10
ATOM     10  C   UNL     1       2.996   6.161  18.690  0.00  0.00    +0.000 C 
BRANCH  10  16
ATOM     11  O   UNL     1       1.367   4.066  17.442  0.00  0.00    +0.000 OA
ATOM     12  C   UNL     1       1.582   4.122  18.639  0.00  0.00    +0.000 A 
ATOM     13  S   UNL     1       0.959   2.948  19.779  0.00  0.00    +0.000 S 
ATOM     14  C   UNL     1       1.763   3.824  21.047  0.00  0.00    +0.000 A 
ATOM     15  N   UNL     1       2.415   4.889  20.704  0.00  0.00    +0.000 NA
ATOM     16  N   UNL     1       2.301   5.064  19.342  0.00  0.00    +0.000 N 
ENDBRANCH  10  16
ENDBRANCH   1  10
TORSDOF 3
ENDMDL
