MODEL 1
REMARK VINA RESULT:      -7.1      0.000      0.000
REMARK  Name = 
REMARK  9 active torsions:
REMARK  status: ('A' for Active; 'I' for Inactive)
REMARK    1  A    between atoms: C_1  and  N_2
REMARK    2  A    between atoms: N_2  and  C_3
REMARK    3  A    between atoms: N_2  and  C_14
REMARK    4  A    between atoms: C_3  and  C_4
REMARK    5  A    between atoms: C_4  and  C_5
REMARK    6  A    between atoms: C_5  and  N_6
REMARK    7  A    between atoms: C_7  and  C_9
REMARK    8  A    between atoms: C_9  and  C_10
REMARK    9  A    between atoms: N_12  and  O_13
REMARK                            x       y       z     vdW  Elec       q    Type
REMARK                         _______ _______ _______ _____ _____    ______ ____
ROOT
ATOM      1  C   UNL     1       5.515   4.543  16.257  0.00  0.00    +0.000 C 
ENDROOT
BRANCH   1   2
ATOM      2  N   UNL     1       5.692   4.257  14.849  0.00  0.00    +0.000 N 
ATOM      3  C   UNL     1       6.811   4.669  14.168  0.00  0.00    +0.000 C 
ATOM      4  O   UNL     1       7.752   5.230  14.730  0.00  0.00    +0.000 OA
ATOM      5  H   UNL     1       4.869   3.997  14.304  0.00  0.00    +0.000 HD
BRANCH   3   6
ATOM      6  C   UNL     1       6.871   4.387  12.685  0.00  0.00    +0.000 C 
BRANCH   6   7
ATOM      7  C   UNL     1       5.993   3.286  12.157  0.00  0.00    +0.000 C 
ATOM      8  O   UNL     1       4.773   3.383  12.014  0.00  0.00    +0.000 OA
ATOM      9  N   UNL     1       6.654   2.134  11.813  0.00  0.00    +0.000 N 
ATOM     10  H   UNL     1       7.631   1.931  12.001  0.00  0.00    +0.000 HD
BRANCH   9  11
ATOM     11  O   UNL     1       5.844   1.067  11.365  0.00  0.00    +0.000 OA
ATOM     12  H   UNL     1       5.463   1.419  10.533  0.00  0.00    +0.000 HD
ENDBRANCH   9  11
ENDBRANCH   6   7
ENDBRANCH   3   6
ENDBRANCH   1   2
BRANCH   1  13
ATOM     13  C   UNL     1       4.823   5.883  16.483  0.00  0.00    +0.000 C 
BRANCH  13  14
ATOM     14  C   UNL     1       4.605   6.130  17.977  0.00  0.00    +0.000 C 
BRANCH  14  16
ATOM     15  C   UNL     1       2.533   7.524  17.946  0.00  0.00    +0.000 C 
ATOM     16  N   UNL     1       3.177   6.260  18.292  0.00  0.00    +0.000 N 
BRANCH  16  17
ATOM     17  C   UNL     1       2.424   5.200  18.790  0.00  0.00    +0.000 A 
ATOM     18  C   UNL     1       1.903   4.194  17.953  0.00  0.00    +0.000 A 
ATOM     19  C   UNL     1       1.138   3.128  18.445  0.00  0.00    +0.000 A 
ATOM     20  C   UNL     1       0.865   3.034  19.801  0.00  0.00    +0.000 A 
ATOM     21  C   UNL     1       1.357   4.005  20.660  0.00  0.00    +0.000 A 
ATOM     22  C   UNL     1       2.124   5.067  20.158  0.00  0.00    +0.000 A 
ENDBRANCH  16  17
ENDBRANCH  14  16
ENDBRANCH  13  14
ENDBRANCH   1  13
TORSDOF 8
ENDMDL
MODEL 2
REMARK VINA RESULT:      -6.9      3.235      4.879
REMARK  Name = 
REMARK  9 active torsions:
REMARK  status: ('A' for Active; 'I' for Inactive)
REMARK    1  A    between atoms: C_1  and  N_2
REMARK    2  A    between atoms: N_2  and  C_3
REMARK    3  A    between atoms: N_2  and  C_14
REMARK    4  A    between atoms: C_3  and  C_4
REMARK    5  A    between atoms: C_4  and  C_5
REMARK    6  A    between atoms: C_5  and  N_6
REMARK    7  A    between atoms: C_7  and  C_9
REMARK    8  A    between atoms: C_9  and  C_10
REMARK    9  A    between atoms: N_12  and  O_13
REMARK                            x       y       z     vdW  Elec       q    Type
REMARK                         _______ _______ _______ _____ _____    ______ ____
ROOT
ATOM      1  C   UNL     1       6.543   5.100  15.305  0.00  0.00    +0.000 C 
ENDROOT
BRANCH   1   2
ATOM      2  N   UNL     1       7.198   5.320  16.578  0.00  0.00    +0.000 N 
ATOM      3  C   UNL     1       7.279   6.571  17.137  0.00  0.00    +0.000 C 
ATOM      4  O   UNL     1       6.736   7.553  16.630  0.00  0.00    +0.000 OA
ATOM      5  H   UNL     1       7.835   4.600  16.921  0.00  0.00    +0.000 HD
BRANCH   3   6
ATOM      6  C   UNL     1       8.045   6.710  18.431  0.00  0.00    +0.000 C 
BRANCH   6   7
ATOM      7  C   UNL     1       7.651   5.807  19.567  0.00  0.00    +0.000 C 
ATOM      8  O   UNL     1       6.518   5.349  19.725  0.00  0.00    +0.000 OA
ATOM      9  N   UNL     1       8.664   5.495  20.437  0.00  0.00    +0.000 N 
ATOM     10  H   UNL     1       9.589   5.914  20.446  0.00  0.00    +0.000 HD
BRANCH   9  11
ATOM     11  O   UNL     1       8.306   4.692  21.542  0.00  0.00    +0.000 OA
ATOM     12  H   UNL     1       8.337   3.785  21.169  0.00  0.00    +0.000 HD
ENDBRANCH   9  11
ENDBRANCH   6   7
ENDBRANCH   3   6
ENDBRANCH   1   2
BRANCH   1  13
ATOM     13  C   UNL     1       5.032   4.976  15.457  0.00  0.00    +0.000 C 
BRANCH  13  14
ATOM     14  C   UNL     1       4.683   4.129  16.684  0.00  0.00    +0.000 C 
BRANCH  14  16
ATOM     15  C   UNL     1       3.789   6.292  17.557  0.00  0.00    +0.000 C 
ATOM     16  N   UNL     1       3.743   4.832  17.566  0.00  0.00    +0.000 N 
BRANCH  16  17
ATOM     17  C   UNL     1       2.765   4.164  18.297  0.00  0.00    +0.000 A 
ATOM     18  C   UNL     1       2.132   4.750  19.411  0.00  0.00    +0.000 A 
ATOM     19  C   UNL     1       1.152   4.082  20.157  0.00  0.00    +0.000 A 
ATOM     20  C   UNL     1       0.772   2.794  19.813  0.00  0.00    +0.000 A 
ATOM     21  C   UNL     1       1.372   2.179  18.725  0.00  0.00    +0.000 A 
ATOM     22  C   UNL     1       2.350   2.857  17.982  0.00  0.00    +0.000 A 
ENDBRANCH  16  17
ENDBRANCH  14  16
ENDBRANCH  13  14
ENDBRANCH   1  13
TORSDOF 8
ENDMDL
MODEL 3
REMARK VINA RESULT:      -6.7      0.964      1.508
REMARK  Name = 
REMARK  9 active torsions:
REMARK  status: ('A' for Active; 'I' for Inactive)
REMARK    1  A    between atoms: C_1  and  N_2
REMARK    2  A    between atoms: N_2  and  C_3
REMARK    3  A    between atoms: N_2  and  C_14
REMARK    4  A    between atoms: C_3  and  C_4
REMARK    5  A    between atoms: C_4  and  C_5
REMARK    6  A    between atoms: C_5  and  N_6
REMARK    7  A    between atoms: C_7  and  C_9
REMARK    8  A    between atoms: C_9  and  C_10
REMARK    9  A    between atoms: N_12  and  O_13
REMARK                            x       y       z     vdW  Elec       q    Type
REMARK                         _______ _______ _______ _____ _____    ______ ____
ROOT
ATOM      1  C   UNL     1       6.295   4.621  17.302  0.00  0.00    +0.000 C 
ENDROOT
BRANCH   1   2
ATOM      2  N   UNL     1       5.724   4.232  16.029  0.00  0.00    +0.000 N 
ATOM      3  C   UNL     1       6.303   4.601  14.840  0.00  0.00    +0.000 C 
ATOM      4  O   UNL     1       7.371   5.210  14.791  0.00  0.00    +0.000 OA
ATOM      5  H   UNL     1       4.750   3.925  16.013  0.00  0.00    +0.000 HD
BRANCH   3   6
ATOM      6  C   UNL     1       5.592   4.209  13.566  0.00  0.00    +0.000 C 
BRANCH   6   7
ATOM      7  C   UNL     1       6.421   3.582  12.479  0.00  0.00    +0.000 C 
ATOM      8  O   UNL     1       7.306   4.172  11.856  0.00  0.00    +0.000 OA
ATOM      9  N   UNL     1       6.140   2.264  12.224  0.00  0.00    +0.000 N 
ATOM     10  H   UNL     1       5.360   1.739  12.607  0.00  0.00    +0.000 HD
BRANCH   9  11
ATOM     11  O   UNL     1       6.868   1.668  11.171  0.00  0.00    +0.000 OA
ATOM     12  H   UNL     1       6.167   1.450  10.520  0.00  0.00    +0.000 HD
ENDBRANCH   9  11
ENDBRANCH   6   7
ENDBRANCH   3   6
ENDBRANCH   1   2
BRANCH   1  13
ATOM     13  C   UNL     1       5.241   5.179  18.251  0.00  0.00    +0.000 C 
BRANCH  13  14
ATOM     14  C   UNL     1       4.519   6.369  17.613  0.00  0.00    +0.000 C 
BRANCH  14  16
ATOM     15  C   UNL     1       2.572   7.865  18.068  0.00  0.00    +0.000 C 
ATOM     16  N   UNL     1       3.174   6.539  18.175  0.00  0.00    +0.000 N 
BRANCH  16  17
ATOM     17  C   UNL     1       2.439   5.473  18.687  0.00  0.00    +0.000 A 
ATOM     18  C   UNL     1       2.106   5.380  20.052  0.00  0.00    +0.000 A 
ATOM     19  C   UNL     1       1.373   4.307  20.576  0.00  0.00    +0.000 A 
ATOM     20  C   UNL     1       0.949   3.281  19.746  0.00  0.00    +0.000 A 
ATOM     21  C   UNL     1       1.258   3.332  18.395  0.00  0.00    +0.000 A 
ATOM     22  C   UNL     1       1.990   4.412  17.879  0.00  0.00    +0.000 A 
ENDBRANCH  16  17
ENDBRANCH  14  16
ENDBRANCH  13  14
ENDBRANCH   1  13
TORSDOF 8
ENDMDL
MODEL 4
REMARK VINA RESULT:      -6.7      1.287      1.612
REMARK  Name = 
REMARK  9 active torsions:
REMARK  status: ('A' for Active; 'I' for Inactive)
REMARK    1  A    between atoms: C_1  and  N_2
REMARK    2  A    between atoms: N_2  and  C_3
REMARK    3  A    between atoms: N_2  and  C_14
REMARK    4  A    between atoms: C_3  and  C_4
REMARK    5  A    between atoms: C_4  and  C_5
REMARK    6  A    between atoms: C_5  and  N_6
REMARK    7  A    between atoms: C_7  and  C_9
REMARK    8  A    between atoms: C_9  and  C_10
REMARK    9  A    between atoms: N_12  and  O_13
REMARK                            x       y       z     vdW  Elec       q    Type
REMARK                         _______ _______ _______ _____ _____    ______ ____
ROOT
ATOM      1  C   UNL     1       5.591   4.028  18.277  0.00  0.00    +0.000 C 
ENDROOT
BRANCH   1   2
ATOM      2  N   UNL     1       5.849   4.079  16.853  0.00  0.00    +0.000 N 
ATOM      3  C   UNL     1       7.098   4.362  16.359  0.00  0.00    +0.000 C 
ATOM      4  O   UNL     1       8.076   4.509  17.093  0.00  0.00    +0.000 OA
ATOM      5  H   UNL     1       5.051   4.179  16.223  0.00  0.00    +0.000 HD
BRANCH   3   6
ATOM      6  C   UNL     1       7.251   4.465  14.860  0.00  0.00    +0.000 C 
BRANCH   6   7
ATOM      7  C   UNL     1       6.059   4.102  14.018  0.00  0.00    +0.000 C 
ATOM      8  O   UNL     1       4.901   4.432  14.281  0.00  0.00    +0.000 OA
ATOM      9  N   UNL     1       6.346   3.374  12.892  0.00  0.00    +0.000 N 
ATOM     10  H   UNL     1       7.247   2.968  12.661  0.00  0.00    +0.000 HD
BRANCH   9  11
ATOM     11  O   UNL     1       5.236   2.975  12.114  0.00  0.00    +0.000 OA
ATOM     12  H   UNL     1       4.496   3.473  12.522  0.00  0.00    +0.000 HD
ENDBRANCH   9  11
ENDBRANCH   6   7
ENDBRANCH   3   6
ENDBRANCH   1   2
BRANCH   1  13
ATOM     13  C   UNL     1       5.312   5.411  18.854  0.00  0.00    +0.000 C 
BRANCH  13  14
ATOM     14  C   UNL     1       4.332   6.177  17.962  0.00  0.00    +0.000 C 
BRANCH  14  16
ATOM     15  C   UNL     1       2.382   7.581  18.644  0.00  0.00    +0.000 C 
ATOM     16  N   UNL     1       3.003   6.261  18.581  0.00  0.00    +0.000 N 
BRANCH  16  17
ATOM     17  C   UNL     1       2.298   5.132  18.989  0.00  0.00    +0.000 A 
ATOM     18  C   UNL     1       1.895   4.133  18.083  0.00  0.00    +0.000 A 
ATOM     19  C   UNL     1       1.179   2.997  18.484  0.00  0.00    +0.000 A 
ATOM     20  C   UNL     1       0.838   2.824  19.817  0.00  0.00    +0.000 A 
ATOM     21  C   UNL     1       1.214   3.785  20.742  0.00  0.00    +0.000 A 
ATOM     22  C   UNL     1       1.932   4.917  20.330  0.00  0.00    +0.000 A 
ENDBRANCH  16  17
ENDBRANCH  14  16
ENDBRANCH  13  14
ENDBRANCH   1  13
TORSDOF 8
ENDMDL
MODEL 5
REMARK VINA RESULT:      -6.7      1.012      1.512
REMARK  Name = 
REMARK  9 active torsions:
REMARK  status: ('A' for Active; 'I' for Inactive)
REMARK    1  A    between atoms: C_1  and  N_2
REMARK    2  A    between atoms: N_2  and  C_3
REMARK    3  A    between atoms: N_2  and  C_14
REMARK    4  A    between atoms: C_3  and  C_4
REMARK    5  A    between atoms: C_4  and  C_5
REMARK    6  A    between atoms: C_5  and  N_6
REMARK    7  A    between atoms: C_7  and  C_9
REMARK    8  A    between atoms: C_9  and  C_10
REMARK    9  A    between atoms: N_12  and  O_13
REMARK                            x       y       z     vdW  Elec       q    Type
REMARK                         _______ _______ _______ _____ _____    ______ ____
ROOT
ATOM      1  C   UNL     1       6.085   4.242  17.393  0.00  0.00    +0.000 C 
ENDROOT
BRANCH   1   2
ATOM      2  N   UNL     1       6.382   3.979  16.000  0.00  0.00    +0.000 N 
ATOM      3  C   UNL     1       6.994   4.918  15.207  0.00  0.00    +0.000 C 
ATOM      4  O   UNL     1       7.390   5.995  15.652  0.00  0.00    +0.000 OA
ATOM      5  H   UNL     1       5.891   3.210  15.541  0.00  0.00    +0.000 HD
BRANCH   3   6
ATOM      6  C   UNL     1       7.195   4.577  13.749  0.00  0.00    +0.000 C 
BRANCH   6   7
ATOM      7  C   UNL     1       6.157   3.708  13.094  0.00  0.00    +0.000 C 
ATOM      8  O   UNL     1       4.943   3.830  13.267  0.00  0.00    +0.000 OA
ATOM      9  N   UNL     1       6.655   2.750  12.248  0.00  0.00    +0.000 N 
ATOM     10  H   UNL     1       7.635   2.508  12.135  0.00  0.00    +0.000 HD
BRANCH   9  11
ATOM     11  O   UNL     1       5.703   1.886  11.662  0.00  0.00    +0.000 OA
ATOM     12  H   UNL     1       6.081   0.998  11.836  0.00  0.00    +0.000 HD
ENDBRANCH   9  11
ENDBRANCH   6   7
ENDBRANCH   3   6
ENDBRANCH   1   2
BRANCH   1  13
ATOM     13  C   UNL     1       4.586   4.216  17.669  0.00  0.00    +0.000 C 
BRANCH  13  14
ATOM     14  C   UNL     1       3.973   5.600  17.445  0.00  0.00    +0.000 C 
BRANCH  14  16
ATOM     15  C   UNL     1       2.436   7.261  18.500  0.00  0.00    +0.000 C 
ATOM     16  N   UNL     1       2.934   5.890  18.441  0.00  0.00    +0.000 N 
BRANCH  16  17
ATOM     17  C   UNL     1       2.353   4.896  19.223  0.00  0.00    +0.000 A 
ATOM     18  C   UNL     1       2.638   4.761  20.595  0.00  0.00    +0.000 A 
ATOM     19  C   UNL     1       2.062   3.759  21.388  0.00  0.00    +0.000 A 
ATOM     20  C   UNL     1       1.178   2.849  20.829  0.00  0.00    +0.000 A 
ATOM     21  C   UNL     1       0.872   2.946  19.480  0.00  0.00    +0.000 A 
ATOM     22  C   UNL     1       1.451   3.954  18.695  0.00  0.00    +0.000 A 
ENDBRANCH  16  17
ENDBRANCH  14  16
ENDBRANCH  13  14
ENDBRANCH   1  13
TORSDOF 8
ENDMDL
MODEL 6
REMARK VINA RESULT:      -6.6      1.148      1.626
REMARK  Name = 
REMARK  9 active torsions:
REMARK  status: ('A' for Active; 'I' for Inactive)
REMARK    1  A    between atoms: C_1  and  N_2
REMARK    2  A    between atoms: N_2  and  C_3
REMARK    3  A    between atoms: N_2  and  C_14
REMARK    4  A    between atoms: C_3  and  C_4
REMARK    5  A    between atoms: C_4  and  C_5
REMARK    6  A    between atoms: C_5  and  N_6
REMARK    7  A    between atoms: C_7  and  C_9
REMARK    8  A    between atoms: C_9  and  C_10
REMARK    9  A    between atoms: N_12  and  O_13
REMARK                            x       y       z     vdW  Elec       q    Type
REMARK                         _______ _______ _______ _____ _____    ______ ____
ROOT
ATOM      1  C   UNL     1       7.114   4.424  16.954  0.00  0.00    +0.000 C 
ENDROOT
BRANCH   1   2
ATOM      2  N   UNL     1       6.163   4.164  15.893  0.00  0.00    +0.000 N 
ATOM      3  C   UNL     1       6.383   4.598  14.609  0.00  0.00    +0.000 C 
ATOM      4  O   UNL     1       7.428   5.157  14.276  0.00  0.00    +0.000 OA
ATOM      5  H   UNL     1       5.210   3.905  16.154  0.00  0.00    +0.000 HD
BRANCH   3   6
ATOM      6  C   UNL     1       5.299   4.342  13.589  0.00  0.00    +0.000 C 
BRANCH   6   7
ATOM      7  C   UNL     1       5.609   3.373  12.481  0.00  0.00    +0.000 C 
ATOM      8  O   UNL     1       4.790   2.999  11.640  0.00  0.00    +0.000 OA
ATOM      9  N   UNL     1       6.907   2.929  12.447  0.00  0.00    +0.000 N 
ATOM     10  H   UNL     1       7.610   3.096  13.160  0.00  0.00    +0.000 HD
BRANCH   9  11
ATOM     11  O   UNL     1       7.208   1.976  11.449  0.00  0.00    +0.000 OA
ATOM     12  H   UNL     1       8.022   2.341  11.041  0.00  0.00    +0.000 HD
ENDBRANCH   9  11
ENDBRANCH   6   7
ENDBRANCH   3   6
ENDBRANCH   1   2
BRANCH   1  13
ATOM     13  C   UNL     1       6.698   5.613  17.812  0.00  0.00    +0.000 C 
BRANCH  13  14
ATOM     14  C   UNL     1       5.709   5.174  18.895  0.00  0.00    +0.000 C 
BRANCH  14  16
ATOM     15  C   UNL     1       4.204   6.774  17.706  0.00  0.00    +0.000 C 
ATOM     16  N   UNL     1       4.344   5.611  18.578  0.00  0.00    +0.000 N 
BRANCH  16  17
ATOM     17  C   UNL     1       3.219   4.896  18.981  0.00  0.00    +0.000 A 
ATOM     18  C   UNL     1       2.475   5.254  20.122  0.00  0.00    +0.000 A 
ATOM     19  C   UNL     1       1.346   4.536  20.539  0.00  0.00    +0.000 A 
ATOM     20  C   UNL     1       0.924   3.424  19.825  0.00  0.00    +0.000 A 
ATOM     21  C   UNL     1       1.630   3.036  18.697  0.00  0.00    +0.000 A 
ATOM     22  C   UNL     1       2.757   3.764  18.286  0.00  0.00    +0.000 A 
ENDBRANCH  16  17
ENDBRANCH  14  16
ENDBRANCH  13  14
ENDBRANCH   1  13
TORSDOF 8
ENDMDL
MODEL 7
REMARK VINA RESULT:      -6.6      1.435      1.794
REMARK  Name = 
REMARK  9 active torsions:
REMARK  status: ('A' for Active; 'I' for Inactive)
REMARK    1  A    between atoms: C_1  and  N_2
REMARK    2  A    between atoms: N_2  and  C_3
REMARK    3  A    between atoms: N_2  and  C_14
REMARK    4  A    between atoms: C_3  and  C_4
REMARK    5  A    between atoms: C_4  and  C_5
REMARK    6  A    between atoms: C_5  and  N_6
REMARK    7  A    between atoms: C_7  and  C_9
REMARK    8  A    between atoms: C_9  and  C_10
REMARK    9  A    between atoms: N_12  and  O_13
REMARK                            x       y       z     vdW  Elec       q    Type
REMARK                         _______ _______ _______ _____ _____    ______ ____
ROOT
ATOM      1  C   UNL     1       6.379   4.291  15.429  0.00  0.00    +0.000 C 
ENDROOT
BRANCH   1   2
ATOM      2  N   UNL     1       6.454   3.736  14.094  0.00  0.00    +0.000 N 
ATOM      3  C   UNL     1       7.090   4.401  13.074  0.00  0.00    +0.000 C 
ATOM      4  O   UNL     1       7.693   5.459  13.257  0.00  0.00    +0.000 OA
ATOM      5  H   UNL     1       5.802   2.991  13.845  0.00  0.00    +0.000 HD
BRANCH   3   6
ATOM      6  C   UNL     1       7.051   3.776  11.700  0.00  0.00    +0.000 C 
BRANCH   6   7
ATOM      7  C   UNL     1       6.261   2.506  11.541  0.00  0.00    +0.000 C 
ATOM      8  O   UNL     1       5.032   2.443  11.614  0.00  0.00    +0.000 OA
ATOM      9  N   UNL     1       7.010   1.387  11.284  0.00  0.00    +0.000 N 
ATOM     10  H   UNL     1       8.023   1.329  11.319  0.00  0.00    +0.000 HD
BRANCH   9  11
ATOM     11  O   UNL     1       6.294   0.173  11.185  0.00  0.00    +0.000 OA
ATOM     12  H   UNL     1       6.827  -0.340  10.541  0.00  0.00    +0.000 HD
ENDBRANCH   9  11
ENDBRANCH   6   7
ENDBRANCH   3   6
ENDBRANCH   1   2
BRANCH   1  13
ATOM     13  C   UNL     1       4.946   4.619  15.828  0.00  0.00    +0.000 C 
BRANCH  13  14
ATOM     14  C   UNL     1       4.926   5.572  17.026  0.00  0.00    +0.000 C 
BRANCH  14  16
ATOM     15  C   UNL     1       5.546   5.095  19.398  0.00  0.00    +0.000 C 
ATOM     16  N   UNL     1       4.645   4.852  18.274  0.00  0.00    +0.000 N 
BRANCH  16  17
ATOM     17  C   UNL     1       3.513   4.060  18.440  0.00  0.00    +0.000 A 
ATOM     18  C   UNL     1       3.579   2.767  18.992  0.00  0.00    +0.000 A 
ATOM     19  C   UNL     1       2.444   1.959  19.156  0.00  0.00    +0.000 A 
ATOM     20  C   UNL     1       1.197   2.423  18.766  0.00  0.00    +0.000 A 
ATOM     21  C   UNL     1       1.089   3.691  18.215  0.00  0.00    +0.000 A 
ATOM     22  C   UNL     1       2.230   4.492  18.058  0.00  0.00    +0.000 A 
ENDBRANCH  16  17
ENDBRANCH  14  16
ENDBRANCH  13  14
ENDBRANCH   1  13
TORSDOF 8
ENDMDL
MODEL 8
REMARK VINA RESULT:      -6.5      1.091      1.525
REMARK  Name = 
REMARK  9 active torsions:
REMARK  status: ('A' for Active; 'I' for Inactive)
REMARK    1  A    between atoms: C_1  and  N_2
REMARK    2  A    between atoms: N_2  and  C_3
REMARK    3  A    between atoms: N_2  and  C_14
REMARK    4  A    between atoms: C_3  and  C_4
REMARK    5  A    between atoms: C_4  and  C_5
REMARK    6  A    between atoms: C_5  and  N_6
REMARK    7  A    between atoms: C_7  and  C_9
REMARK    8  A    between atoms: C_9  and  C_10
REMARK    9  A    between atoms: N_12  and  O_13
REMARK                            x       y       z     vdW  Elec       q    Type
REMARK                         _______ _______ _______ _____ _____    ______ ____
ROOT
ATOM      1  C   UNL     1       5.082   4.427  16.133  0.00  0.00    +0.000 C 
ENDROOT
BRANCH   1   2
ATOM      2  N   UNL     1       5.425   4.191  14.746  0.00  0.00    +0.000 N 
ATOM      3  C   UNL     1       6.626   4.602  14.224  0.00  0.00    +0.000 C 
ATOM      4  O   UNL     1       7.501   5.119  14.919  0.00  0.00    +0.000 OA
ATOM      5  H   UNL     1       4.670   3.971  14.095  0.00  0.00    +0.000 HD
BRANCH   3   6
ATOM      6  C   UNL     1       6.861   4.376  12.749  0.00  0.00    +0.000 C 
BRANCH   6   7
ATOM      7  C   UNL     1       6.118   3.243  12.097  0.00  0.00    +0.000 C 
ATOM      8  O   UNL     1       4.908   3.253  11.864  0.00  0.00    +0.000 OA
ATOM      9  N   UNL     1       6.893   2.167  11.749  0.00  0.00    +0.000 N 
ATOM     10  H   UNL     1       7.867   2.029  12.003  0.00  0.00    +0.000 HD
BRANCH   9  11
ATOM     11  O   UNL     1       6.209   1.067  11.185  0.00  0.00    +0.000 OA
ATOM     12  H   UNL     1       5.435   0.968  11.778  0.00  0.00    +0.000 HD
ENDBRANCH   9  11
ENDBRANCH   6   7
ENDBRANCH   3   6
ENDBRANCH   1   2
BRANCH   1  13
ATOM     13  C   UNL     1       5.081   5.912  16.474  0.00  0.00    +0.000 C 
BRANCH  13  14
ATOM     14  C   UNL     1       4.124   6.197  17.634  0.00  0.00    +0.000 C 
BRANCH  14  16
ATOM     15  C   UNL     1       5.805   5.327  19.264  0.00  0.00    +0.000 C 
ATOM     16  N   UNL     1       4.423   5.346  18.792  0.00  0.00    +0.000 N 
BRANCH  16  17
ATOM     17  C   UNL     1       3.430   4.671  19.497  0.00  0.00    +0.000 A 
ATOM     18  C   UNL     1       2.192   5.267  19.803  0.00  0.00    +0.000 A 
ATOM     19  C   UNL     1       1.190   4.597  20.518  0.00  0.00    +0.000 A 
ATOM     20  C   UNL     1       1.397   3.298  20.957  0.00  0.00    +0.000 A 
ATOM     21  C   UNL     1       2.604   2.675  20.678  0.00  0.00    +0.000 A 
ATOM     22  C   UNL     1       3.600   3.353  19.960  0.00  0.00    +0.000 A 
ENDBRANCH  16  17
ENDBRANCH  14  16
ENDBRANCH  13  14
ENDBRANCH   1  13
TORSDOF 8
ENDMDL
MODEL 9
REMARK VINA RESULT:      -6.5      1.127      1.550
REMARK  Name = 
REMARK  9 active torsions:
REMARK  status: ('A' for Active; 'I' for Inactive)
REMARK    1  A    between atoms: C_1  and  N_2
REMARK    2  A    between atoms: N_2  and  C_3
REMARK    3  A    between atoms: N_2  and  C_14
REMARK    4  A    between atoms: C_3  and  C_4
REMARK    5  A    between atoms: C_4  and  C_5
REMARK    6  A    between atoms: C_5  and  N_6
REMARK    7  A    between atoms: C_7  and  C_9
REMARK    8  A    between atoms: C_9  and  C_10
REMARK    9  A    between atoms: N_12  and  O_13
REMARK                            x       y       z     vdW  Elec       q    Type
REMARK                         _______ _______ _______ _____ _____    ______ ____
ROOT
ATOM      1  C   UNL     1       7.059   5.448  16.743  0.00  0.00    +0.000 C 
ENDROOT
BRANCH   1   2
ATOM      2  N   UNL     1       7.081   5.428  15.296  0.00  0.00    +0.000 N 
ATOM      3  C   UNL     1       6.501   4.407  14.584  0.00  0.00    +0.000 C 
ATOM      4  O   UNL     1       5.870   3.502  15.130  0.00  0.00    +0.000 OA
ATOM      5  H   UNL     1       7.760   6.020  14.816  0.00  0.00    +0.000 HD
BRANCH   3   6
ATOM      6  C   UNL     1       6.639   4.436  13.080  0.00  0.00    +0.000 C 
BRANCH   6   7
ATOM      7  C   UNL     1       5.942   3.355  12.301  0.00  0.00    +0.000 C 
ATOM      8  O   UNL     1       4.745   3.379  12.005  0.00  0.00    +0.000 OA
ATOM      9  N   UNL     1       6.744   2.314  11.911  0.00  0.00    +0.000 N 
ATOM     10  H   UNL     1       7.704   2.160  12.205  0.00  0.00    +0.000 HD
BRANCH   9  11
ATOM     11  O   UNL     1       6.100   1.260  11.225  0.00  0.00    +0.000 OA
ATOM     12  H   UNL     1       6.360   0.472  11.747  0.00  0.00    +0.000 HD
ENDBRANCH   9  11
ENDBRANCH   6   7
ENDBRANCH   3   6
ENDBRANCH   1   2
BRANCH   1  13
ATOM     13  C   UNL     1       5.769   6.052  17.284  0.00  0.00    +0.000 C 
BRANCH  13  14
ATOM     14  C   UNL     1       5.087   5.083  18.253  0.00  0.00    +0.000 C 
BRANCH  14  16
ATOM     15  C   UNL     1       3.183   6.622  17.759  0.00  0.00    +0.000 C 
ATOM     16  N   UNL     1       3.681   5.447  18.469  0.00  0.00    +0.000 N 
BRANCH  16  17
ATOM     17  C   UNL     1       2.813   4.658  19.219  0.00  0.00    +0.000 A 
ATOM     18  C   UNL     1       2.932   4.536  20.616  0.00  0.00    +0.000 A 
ATOM     19  C   UNL     1       2.066   3.739  21.378  0.00  0.00    +0.000 A 
ATOM     20  C   UNL     1       1.048   3.029  20.760  0.00  0.00    +0.000 A 
ATOM     21  C   UNL     1       0.898   3.120  19.385  0.00  0.00    +0.000 A 
ATOM     22  C   UNL     1       1.767   3.923  18.632  0.00  0.00    +0.000 A 
ENDBRANCH  16  17
ENDBRANCH  14  16
ENDBRANCH  13  14
ENDBRANCH   1  13
TORSDOF 8
ENDMDL
