MODEL 1
REMARK VINA RESULT:      -7.1      0.000      0.000
REMARK  Name = 
REMARK  4 active torsions:
REMARK  status: ('A' for Active; 'I' for Inactive)
REMARK    1  A    between atoms: C_2  and  O_3
REMARK    2  A    between atoms: C_2  and  C_4
REMARK    3  A    between atoms: C_8  and  S_9
REMARK    4  A    between atoms: S_9  and  C_12
REMARK                            x       y       z     vdW  Elec       q    Type
REMARK                         _______ _______ _______ _____ _____    ______ ____
ROOT
ATOM      1  C   UNL     1       5.595   4.991  15.947  0.00  0.00    +0.000 A 
ATOM      2  C   UNL     1       5.285   6.334  16.208  0.00  0.00    +0.000 A 
ATOM      3  C   UNL     1       4.358   6.660  17.201  0.00  0.00    +0.000 A 
ATOM      4  C   UNL     1       3.726   5.651  17.927  0.00  0.00    +0.000 A 
ATOM      5  C   UNL     1       4.034   4.312  17.664  0.00  0.00    +0.000 A 
ATOM      6  C   UNL     1       4.955   3.973  16.667  0.00  0.00    +0.000 A 
ENDROOT
BRANCH   5   7
ATOM      7  S   UNL     1       3.176   3.031  18.571  0.00  0.00    +0.000 S 
ATOM      8  O   UNL     1       3.385   1.819  17.790  0.00  0.00    +0.000 OA
ATOM      9  O   UNL     1       3.670   3.100  19.938  0.00  0.00    +0.000 OA
BRANCH   7  10
ATOM     10  C   UNL     1       1.424   3.553  18.507  0.00  0.00    +0.000 C 
ATOM     11  F   UNL     1       1.115   4.233  17.364  0.00  0.00    +0.000 F 
ATOM     12  F   UNL     1       0.565   2.494  18.555  0.00  0.00    +0.000 F 
ATOM     13  F   UNL     1       1.080   4.375  19.538  0.00  0.00    +0.000 F 
ENDBRANCH   7  10
ENDBRANCH   5   7
BRANCH   1  15
ATOM     14  O   UNL     1       7.517   5.288  14.583  0.00  0.00    +0.000 OA
ATOM     15  C   UNL     1       6.550   4.607  14.878  0.00  0.00    +0.000 C 
BRANCH  15  16
ATOM     16  O   UNL     1       6.225   3.468  14.236  0.00  0.00    +0.000 OA
ATOM     17  H   UNL     1       5.347   3.457  13.812  0.00  0.00    +0.000 HD
ENDBRANCH  15  16
ENDBRANCH   1  15
TORSDOF 4
ENDMDL
MODEL 2
REMARK VINA RESULT:      -7.1      0.158      1.231
REMARK  Name = 
REMARK  4 active torsions:
REMARK  status: ('A' for Active; 'I' for Inactive)
REMARK    1  A    between atoms: C_2  and  O_3
REMARK    2  A    between atoms: C_2  and  C_4
REMARK    3  A    between atoms: C_8  and  S_9
REMARK    4  A    between atoms: S_9  and  C_12
REMARK                            x       y       z     vdW  Elec       q    Type
REMARK                         _______ _______ _______ _____ _____    ______ ____
ROOT
ATOM      1  C   UNL     1       5.470   5.056  15.870  0.00  0.00    +0.000 A 
ATOM      2  C   UNL     1       5.197   6.398  16.171  0.00  0.00    +0.000 A 
ATOM      3  C   UNL     1       4.324   6.720  17.214  0.00  0.00    +0.000 A 
ATOM      4  C   UNL     1       3.709   5.708  17.949  0.00  0.00    +0.000 A 
ATOM      5  C   UNL     1       3.979   4.369  17.645  0.00  0.00    +0.000 A 
ATOM      6  C   UNL     1       4.847   4.034  16.600  0.00  0.00    +0.000 A 
ENDROOT
BRANCH   5   7
ATOM      7  S   UNL     1       3.142   3.084  18.568  0.00  0.00    +0.000 S 
ATOM      8  O   UNL     1       3.370   1.868  17.800  0.00  0.00    +0.000 OA
ATOM      9  O   UNL     1       3.637   3.176  19.933  0.00  0.00    +0.000 OA
BRANCH   7  10
ATOM     10  C   UNL     1       1.383   3.579  18.500  0.00  0.00    +0.000 C 
ATOM     11  F   UNL     1       0.531   2.511  18.505  0.00  0.00    +0.000 F 
ATOM     12  F   UNL     1       1.019   4.351  19.563  0.00  0.00    +0.000 F 
ATOM     13  F   UNL     1       1.079   4.296  17.381  0.00  0.00    +0.000 F 
ENDBRANCH   7  10
ENDBRANCH   5   7
BRANCH   1  15
ATOM     14  O   UNL     1       6.088   3.801  13.950  0.00  0.00    +0.000 OA
ATOM     15  C   UNL     1       6.367   4.678  14.750  0.00  0.00    +0.000 C 
BRANCH  15  16
ATOM     16  O   UNL     1       7.531   5.356  14.727  0.00  0.00    +0.000 OA
ATOM     17  H   UNL     1       8.186   5.095  15.402  0.00  0.00    +0.000 HD
ENDBRANCH  15  16
ENDBRANCH   1  15
TORSDOF 4
ENDMDL
MODEL 3
REMARK VINA RESULT:      -7.0      1.369      1.765
REMARK  Name = 
REMARK  4 active torsions:
REMARK  status: ('A' for Active; 'I' for Inactive)
REMARK    1  A    between atoms: C_2  and  O_3
REMARK    2  A    between atoms: C_2  and  C_4
REMARK    3  A    between atoms: C_8  and  S_9
REMARK    4  A    between atoms: S_9  and  C_12
REMARK                            x       y       z     vdW  Elec       q    Type
REMARK                         _______ _______ _______ _____ _____    ______ ____
ROOT
ATOM      1  C   UNL     1       5.720   5.147  16.117  0.00  0.00    +0.000 A 
ATOM      2  C   UNL     1       5.212   6.454  16.126  0.00  0.00    +0.000 A 
ATOM      3  C   UNL     1       4.316   6.851  17.122  0.00  0.00    +0.000 A 
ATOM      4  C   UNL     1       3.912   5.945  18.102  0.00  0.00    +0.000 A 
ATOM      5  C   UNL     1       4.419   4.641  18.090  0.00  0.00    +0.000 A 
ATOM      6  C   UNL     1       5.311   4.230  17.094  0.00  0.00    +0.000 A 
ENDROOT
BRANCH   5   7
ATOM      7  S   UNL     1       3.852   3.479  19.327  0.00  0.00    +0.000 S 
ATOM      8  O   UNL     1       5.066   2.860  19.839  0.00  0.00    +0.000 OA
ATOM      9  O   UNL     1       2.994   4.232  20.229  0.00  0.00    +0.000 OA
BRANCH   7  10
ATOM     10  C   UNL     1       2.860   2.277  18.370  0.00  0.00    +0.000 C 
ATOM     11  F   UNL     1       1.979   1.579  19.145  0.00  0.00    +0.000 F 
ATOM     12  F   UNL     1       2.110   2.877  17.402  0.00  0.00    +0.000 F 
ATOM     13  F   UNL     1       3.627   1.343  17.739  0.00  0.00    +0.000 F 
ENDBRANCH   7  10
ENDBRANCH   5   7
BRANCH   1  15
ATOM     14  O   UNL     1       7.622   5.325  14.704  0.00  0.00    +0.000 OA
ATOM     15  C   UNL     1       6.648   4.682  15.056  0.00  0.00    +0.000 C 
BRANCH  15  16
ATOM     16  O   UNL     1       6.289   3.514  14.488  0.00  0.00    +0.000 OA
ATOM     17  H   UNL     1       6.852   2.747  14.704  0.00  0.00    +0.000 HD
ENDBRANCH  15  16
ENDBRANCH   1  15
TORSDOF 4
ENDMDL
MODEL 4
REMARK VINA RESULT:      -7.0      3.316      5.211
REMARK  Name = 
REMARK  4 active torsions:
REMARK  status: ('A' for Active; 'I' for Inactive)
REMARK    1  A    between atoms: C_2  and  O_3
REMARK    2  A    between atoms: C_2  and  C_4
REMARK    3  A    between atoms: C_8  and  S_9
REMARK    4  A    between atoms: S_9  and  C_12
REMARK                            x       y       z     vdW  Elec       q    Type
REMARK                         _______ _______ _______ _____ _____    ______ ____
ROOT
ATOM      1  C   UNL     1       2.520   3.740  18.024  0.00  0.00    +0.000 A 
ATOM      2  C   UNL     1       1.967   4.957  18.448  0.00  0.00    +0.000 A 
ATOM      3  C   UNL     1       2.627   6.159  18.178  0.00  0.00    +0.000 A 
ATOM      4  C   UNL     1       3.845   6.152  17.498  0.00  0.00    +0.000 A 
ATOM      5  C   UNL     1       4.396   4.936  17.078  0.00  0.00    +0.000 A 
ATOM      6  C   UNL     1       3.748   3.726  17.349  0.00  0.00    +0.000 A 
ENDROOT
BRANCH   5   7
ATOM      7  S   UNL     1       5.982   4.943  16.251  0.00  0.00    +0.000 S 
ATOM      8  O   UNL     1       6.070   3.640  15.605  0.00  0.00    +0.000 OA
ATOM      9  O   UNL     1       6.013   6.151  15.440  0.00  0.00    +0.000 OA
BRANCH   7  10
ATOM     10  C   UNL     1       7.185   5.073  17.622  0.00  0.00    +0.000 C 
ATOM     11  F   UNL     1       6.615   4.880  18.848  0.00  0.00    +0.000 F 
ATOM     12  F   UNL     1       8.184   4.149  17.526  0.00  0.00    +0.000 F 
ATOM     13  F   UNL     1       7.792   6.292  17.679  0.00  0.00    +0.000 F 
ENDBRANCH   7  10
ENDBRANCH   5   7
BRANCH   1  15
ATOM     14  O   UNL     1       0.684   2.354  18.619  0.00  0.00    +0.000 OA
ATOM     15  C   UNL     1       1.862   2.443  18.322  0.00  0.00    +0.000 C 
BRANCH  15  16
ATOM     16  O   UNL     1       2.696   1.385  18.281  0.00  0.00    +0.000 OA
ATOM     17  H   UNL     1       2.475   0.697  17.625  0.00  0.00    +0.000 HD
ENDBRANCH  15  16
ENDBRANCH   1  15
TORSDOF 4
ENDMDL
MODEL 5
REMARK VINA RESULT:      -7.0      1.814      2.251
REMARK  Name = 
REMARK  4 active torsions:
REMARK  status: ('A' for Active; 'I' for Inactive)
REMARK    1  A    between atoms: C_2  and  O_3
REMARK    2  A    between atoms: C_2  and  C_4
REMARK    3  A    between atoms: C_8  and  S_9
REMARK    4  A    between atoms: S_9  and  C_12
REMARK                            x       y       z     vdW  Elec       q    Type
REMARK                         _______ _______ _______ _____ _____    ______ ____
ROOT
ATOM      1  C   UNL     1       5.477   5.199  17.566  0.00  0.00    +0.000 A 
ATOM      2  C   UNL     1       4.978   6.497  17.394  0.00  0.00    +0.000 A 
ATOM      3  C   UNL     1       3.648   6.785  17.710  0.00  0.00    +0.000 A 
ATOM      4  C   UNL     1       2.807   5.777  18.182  0.00  0.00    +0.000 A 
ATOM      5  C   UNL     1       3.306   4.481  18.350  0.00  0.00    +0.000 A 
ATOM      6  C   UNL     1       4.635   4.180  18.031  0.00  0.00    +0.000 A 
ENDROOT
BRANCH   5   7
ATOM      7  S   UNL     1       2.199   3.192  18.910  0.00  0.00    +0.000 S 
ATOM      8  O   UNL     1       1.105   3.198  17.949  0.00  0.00    +0.000 OA
ATOM      9  O   UNL     1       3.014   1.996  19.065  0.00  0.00    +0.000 OA
BRANCH   7  10
ATOM     10  C   UNL     1       1.634   3.786  20.545  0.00  0.00    +0.000 C 
ATOM     11  F   UNL     1       2.610   4.445  21.236  0.00  0.00    +0.000 F 
ATOM     12  F   UNL     1       0.592   4.660  20.447  0.00  0.00    +0.000 F 
ATOM     13  F   UNL     1       1.215   2.776  21.358  0.00  0.00    +0.000 F 
ENDBRANCH   7  10
ENDBRANCH   5   7
BRANCH   1  15
ATOM     14  O   UNL     1       7.365   5.114  16.126  0.00  0.00    +0.000 OA
ATOM     15  C   UNL     1       6.876   4.851  17.211  0.00  0.00    +0.000 C 
BRANCH  15  16
ATOM     16  O   UNL     1       7.535   4.178  18.175  0.00  0.00    +0.000 OA
ATOM     17  H   UNL     1       8.470   3.975  17.987  0.00  0.00    +0.000 HD
ENDBRANCH  15  16
ENDBRANCH   1  15
TORSDOF 4
ENDMDL
MODEL 6
REMARK VINA RESULT:      -7.0      2.185      2.795
REMARK  Name = 
REMARK  4 active torsions:
REMARK  status: ('A' for Active; 'I' for Inactive)
REMARK    1  A    between atoms: C_2  and  O_3
REMARK    2  A    between atoms: C_2  and  C_4
REMARK    3  A    between atoms: C_8  and  S_9
REMARK    4  A    between atoms: S_9  and  C_12
REMARK                            x       y       z     vdW  Elec       q    Type
REMARK                         _______ _______ _______ _____ _____    ______ ____
ROOT
ATOM      1  C   UNL     1       6.679   5.245  18.247  0.00  0.00    +0.000 A 
ATOM      2  C   UNL     1       6.875   5.124  16.864  0.00  0.00    +0.000 A 
ATOM      3  C   UNL     1       5.958   4.414  16.085  0.00  0.00    +0.000 A 
ATOM      4  C   UNL     1       4.852   3.809  16.682  0.00  0.00    +0.000 A 
ATOM      5  C   UNL     1       4.661   3.928  18.063  0.00  0.00    +0.000 A 
ATOM      6  C   UNL     1       5.576   4.631  18.854  0.00  0.00    +0.000 A 
ENDROOT
BRANCH   5   7
ATOM      7  S   UNL     1       3.263   3.104  18.818  0.00  0.00    +0.000 S 
ATOM      8  O   UNL     1       3.059   1.907  18.014  0.00  0.00    +0.000 OA
ATOM      9  O   UNL     1       3.583   2.974  20.232  0.00  0.00    +0.000 OA
BRANCH   7  10
ATOM     10  C   UNL     1       1.887   4.286  18.588  0.00  0.00    +0.000 C 
ATOM     11  F   UNL     1       1.353   4.241  17.333  0.00  0.00    +0.000 F 
ATOM     12  F   UNL     1       0.851   4.049  19.443  0.00  0.00    +0.000 F 
ATOM     13  F   UNL     1       2.264   5.580  18.790  0.00  0.00    +0.000 F 
ENDBRANCH   7  10
ENDBRANCH   5   7
BRANCH   1  15
ATOM     14  O   UNL     1       8.254   6.955  18.736  0.00  0.00    +0.000 OA
ATOM     15  C   UNL     1       7.650   5.964  19.109  0.00  0.00    +0.000 C 
BRANCH  15  16
ATOM     16  O   UNL     1       7.837   5.395  20.316  0.00  0.00    +0.000 OA
ATOM     17  H   UNL     1       8.745   5.096  20.507  0.00  0.00    +0.000 HD
ENDBRANCH  15  16
ENDBRANCH   1  15
TORSDOF 4
ENDMDL
MODEL 7
REMARK VINA RESULT:      -6.9      3.505      5.183
REMARK  Name = 
REMARK  4 active torsions:
REMARK  status: ('A' for Active; 'I' for Inactive)
REMARK    1  A    between atoms: C_2  and  O_3
REMARK    2  A    between atoms: C_2  and  C_4
REMARK    3  A    between atoms: C_8  and  S_9
REMARK    4  A    between atoms: S_9  and  C_12
REMARK                            x       y       z     vdW  Elec       q    Type
REMARK                         _______ _______ _______ _____ _____    ______ ____
ROOT
ATOM      1  C   UNL     1       3.115   3.595  17.931  0.00  0.00    +0.000 A 
ATOM      2  C   UNL     1       2.201   4.605  18.262  0.00  0.00    +0.000 A 
ATOM      3  C   UNL     1       2.562   5.949  18.132  0.00  0.00    +0.000 A 
ATOM      4  C   UNL     1       3.840   6.290  17.688  0.00  0.00    +0.000 A 
ATOM      5  C   UNL     1       4.752   5.281  17.361  0.00  0.00    +0.000 A 
ATOM      6  C   UNL     1       4.403   3.932  17.493  0.00  0.00    +0.000 A 
ENDROOT
BRANCH   5   7
ATOM      7  S   UNL     1       6.401   5.738  16.840  0.00  0.00    +0.000 S 
ATOM      8  O   UNL     1       6.776   4.725  15.862  0.00  0.00    +0.000 OA
ATOM      9  O   UNL     1       6.327   7.134  16.437  0.00  0.00    +0.000 OA
BRANCH   7  10
ATOM     10  C   UNL     1       7.398   5.573  18.364  0.00  0.00    +0.000 C 
ATOM     11  F   UNL     1       8.241   4.499  18.333  0.00  0.00    +0.000 F 
ATOM     12  F   UNL     1       8.190   6.661  18.586  0.00  0.00    +0.000 F 
ATOM     13  F   UNL     1       6.633   5.418  19.481  0.00  0.00    +0.000 F 
ENDBRANCH   7  10
ENDBRANCH   5   7
BRANCH   1  15
ATOM     14  O   UNL     1       3.623   1.293  18.227  0.00  0.00    +0.000 OA
ATOM     15  C   UNL     1       2.776   2.158  18.087  0.00  0.00    +0.000 C 
BRANCH  15  16
ATOM     16  O   UNL     1       1.456   1.896  18.012  0.00  0.00    +0.000 OA
ATOM     17  H   UNL     1       0.868   2.673  18.047  0.00  0.00    +0.000 HD
ENDBRANCH  15  16
ENDBRANCH   1  15
TORSDOF 4
ENDMDL
MODEL 8
REMARK VINA RESULT:      -6.9      1.309      1.618
REMARK  Name = 
REMARK  4 active torsions:
REMARK  status: ('A' for Active; 'I' for Inactive)
REMARK    1  A    between atoms: C_2  and  O_3
REMARK    2  A    between atoms: C_2  and  C_4
REMARK    3  A    between atoms: C_8  and  S_9
REMARK    4  A    between atoms: S_9  and  C_12
REMARK                            x       y       z     vdW  Elec       q    Type
REMARK                         _______ _______ _______ _____ _____    ______ ____
ROOT
ATOM      1  C   UNL     1       5.482   5.144  16.140  0.00  0.00    +0.000 A 
ATOM      2  C   UNL     1       5.381   6.484  16.543  0.00  0.00    +0.000 A 
ATOM      3  C   UNL     1       4.341   6.886  17.385  0.00  0.00    +0.000 A 
ATOM      4  C   UNL     1       3.391   5.960  17.816  0.00  0.00    +0.000 A 
ATOM      5  C   UNL     1       3.493   4.625  17.411  0.00  0.00    +0.000 A 
ATOM      6  C   UNL     1       4.525   4.212  16.562  0.00  0.00    +0.000 A 
ENDROOT
BRANCH   5   7
ATOM      7  S   UNL     1       2.237   3.462  17.934  0.00  0.00    +0.000 S 
ATOM      8  O   UNL     1       1.007   3.944  17.321  0.00  0.00    +0.000 OA
ATOM      9  O   UNL     1       2.741   2.140  17.595  0.00  0.00    +0.000 OA
BRANCH   7  10
ATOM     10  C   UNL     1       2.184   3.671  19.751  0.00  0.00    +0.000 C 
ATOM     11  F   UNL     1       1.433   4.743  20.140  0.00  0.00    +0.000 F 
ATOM     12  F   UNL     1       1.646   2.588  20.381  0.00  0.00    +0.000 F 
ATOM     13  F   UNL     1       3.419   3.860  20.296  0.00  0.00    +0.000 F 
ENDBRANCH   7  10
ENDBRANCH   5   7
BRANCH   1  15
ATOM     14  O   UNL     1       7.527   5.373  14.951  0.00  0.00    +0.000 OA
ATOM     15  C   UNL     1       6.555   4.689  15.220  0.00  0.00    +0.000 C 
BRANCH  15  16
ATOM     16  O   UNL     1       6.330   3.477  14.675  0.00  0.00    +0.000 OA
ATOM     17  H   UNL     1       6.498   2.713  15.258  0.00  0.00    +0.000 HD
ENDBRANCH  15  16
ENDBRANCH   1  15
TORSDOF 4
ENDMDL
MODEL 9
REMARK VINA RESULT:      -6.9      1.337      1.591
REMARK  Name = 
REMARK  4 active torsions:
REMARK  status: ('A' for Active; 'I' for Inactive)
REMARK    1  A    between atoms: C_2  and  O_3
REMARK    2  A    between atoms: C_2  and  C_4
REMARK    3  A    between atoms: C_8  and  S_9
REMARK    4  A    between atoms: S_9  and  C_12
REMARK                            x       y       z     vdW  Elec       q    Type
REMARK                         _______ _______ _______ _____ _____    ______ ____
ROOT
ATOM      1  C   UNL     1       6.474   4.631  16.406  0.00  0.00    +0.000 A 
ATOM      2  C   UNL     1       7.219   5.345  17.355  0.00  0.00    +0.000 A 
ATOM      3  C   UNL     1       6.781   5.417  18.681  0.00  0.00    +0.000 A 
ATOM      4  C   UNL     1       5.593   4.792  19.060  0.00  0.00    +0.000 A 
ATOM      5  C   UNL     1       4.850   4.083  18.111  0.00  0.00    +0.000 A 
ATOM      6  C   UNL     1       5.275   4.010  16.780  0.00  0.00    +0.000 A 
ENDROOT
BRANCH   5   7
ATOM      7  S   UNL     1       3.304   3.330  18.606  0.00  0.00    +0.000 S 
ATOM      8  O   UNL     1       3.092   2.254  17.647  0.00  0.00    +0.000 OA
ATOM      9  O   UNL     1       3.440   3.017  20.020  0.00  0.00    +0.000 OA
BRANCH   7  10
ATOM     10  C   UNL     1       2.077   4.665  18.370  0.00  0.00    +0.000 C 
ATOM     11  F   UNL     1       1.117   4.347  17.452  0.00  0.00    +0.000 F 
ATOM     12  F   UNL     1       1.408   4.965  19.520  0.00  0.00    +0.000 F 
ATOM     13  F   UNL     1       2.639   5.829  17.937  0.00  0.00    +0.000 F 
ENDBRANCH   7  10
ENDBRANCH   5   7
BRANCH   1  15
ATOM     14  O   UNL     1       7.628   5.387  14.471  0.00  0.00    +0.000 OA
ATOM     15  C   UNL     1       6.893   4.561  14.984  0.00  0.00    +0.000 C 
BRANCH  15  16
ATOM     16  O   UNL     1       6.349   3.532  14.303  0.00  0.00    +0.000 OA
ATOM     17  H   UNL     1       6.705   2.650  14.515  0.00  0.00    +0.000 HD
ENDBRANCH  15  16
ENDBRANCH   1  15
TORSDOF 4
ENDMDL
