MODEL 1
REMARK VINA RESULT:      -7.4      0.000      0.000
REMARK  Name = 
REMARK  5 active torsions:
REMARK  status: ('A' for Active; 'I' for Inactive)
REMARK    1  A    between atoms: C_1  and  N_2
REMARK    2  A    between atoms: C_6  and  S_7
REMARK    3  A    between atoms: S_7  and  C_8
REMARK    4  A    between atoms: C_8  and  C_9
REMARK    5  A    between atoms: N_11  and  C_12
REMARK                            x       y       z     vdW  Elec       q    Type
REMARK                         _______ _______ _______ _____ _____    ______ ____
ROOT
ATOM      1  C   UNL     1      -1.290  11.347  22.891  0.00  0.00    +0.000 C 
ATOM      2  N   UNL     1      -0.490  10.571  21.957  0.00  0.00    +0.000 N 
ATOM      3  C   UNL     1       0.460   9.706  22.472  0.00  0.00    +0.000 A 
ATOM      4  O   UNL     1       0.679   9.540  23.667  0.00  0.00    +0.000 OA
ATOM      5  C   UNL     1       1.268   8.930  21.502  0.00  0.00    +0.000 A 
ATOM      6  C   UNL     1       1.107   9.026  20.182  0.00  0.00    +0.000 A 
ATOM      7  C   UNL     1       0.060   9.943  19.648  0.00  0.00    +0.000 A 
ATOM      8  C   UNL     1      -0.199  10.094  18.269  0.00  0.00    +0.000 A 
ATOM      9  C   UNL     1      -1.162  10.983  17.791  0.00  0.00    +0.000 A 
ATOM     10  C   UNL     1      -1.896  11.745  18.684  0.00  0.00    +0.000 A 
ATOM     11  C   UNL     1      -1.672  11.610  20.053  0.00  0.00    +0.000 A 
ATOM     12  C   UNL     1      -0.706  10.713  20.552  0.00  0.00    +0.000 A 
ENDROOT
BRANCH   6  13
ATOM     13  S   UNL     1       1.977   8.042  19.039  0.00  0.00    +0.000 S 
BRANCH  13  14
ATOM     14  C   UNL     1       2.320   6.461  19.850  0.00  0.00    +0.000 C 
BRANCH  14  15
ATOM     15  C   UNL     1       3.511   5.807  19.165  0.00  0.00    +0.000 C 
ATOM     16  O   UNL     1       4.166   4.955  19.760  0.00  0.00    +0.000 OA
ATOM     17  N   UNL     1       3.768   6.254  17.870  0.00  0.00    +0.000 N 
ATOM     18  H   UNL     1       3.321   7.122  17.593  0.00  0.00    +0.000 HD
BRANCH  17  19
ATOM     19  C   UNL     1       4.838   5.786  17.071  0.00  0.00    +0.000 A 
ATOM     20  C   UNL     1       4.799   4.572  16.389  0.00  0.00    +0.000 A 
ATOM     21  C   UNL     1       5.911   4.115  15.688  0.00  0.00    +0.000 A 
ATOM     22  C   UNL     1       7.038   4.913  15.668  0.00  0.00    +0.000 A 
ATOM     23  N   UNL     1       7.114   6.121  16.271  0.00  0.00    +0.000 NA
ATOM     24  C   UNL     1       6.014   6.531  16.952  0.00  0.00    +0.000 A 
ENDBRANCH  17  19
ENDBRANCH  14  15
ENDBRANCH  13  14
ENDBRANCH   6  13
TORSDOF 4
ENDMDL
MODEL 2
REMARK VINA RESULT:      -7.3      2.564      8.543
REMARK  Name = 
REMARK  5 active torsions:
REMARK  status: ('A' for Active; 'I' for Inactive)
REMARK    1  A    between atoms: C_1  and  N_2
REMARK    2  A    between atoms: C_6  and  S_7
REMARK    3  A    between atoms: S_7  and  C_8
REMARK    4  A    between atoms: C_8  and  C_9
REMARK    5  A    between atoms: N_11  and  C_12
REMARK                            x       y       z     vdW  Elec       q    Type
REMARK                         _______ _______ _______ _____ _____    ______ ____
ROOT
ATOM      1  C   UNL     1       5.697   3.801  15.893  0.00  0.00    +0.000 C 
ATOM      2  N   UNL     1       4.852   4.723  16.636  0.00  0.00    +0.000 N 
ATOM      3  C   UNL     1       5.185   6.066  16.626  0.00  0.00    +0.000 A 
ATOM      4  O   UNL     1       6.145   6.544  16.031  0.00  0.00    +0.000 OA
ATOM      5  C   UNL     1       4.314   6.986  17.394  0.00  0.00    +0.000 A 
ATOM      6  C   UNL     1       3.240   6.575  18.068  0.00  0.00    +0.000 A 
ATOM      7  C   UNL     1       2.883   5.128  18.044  0.00  0.00    +0.000 A 
ATOM      8  C   UNL     1       1.754   4.604  18.708  0.00  0.00    +0.000 A 
ATOM      9  C   UNL     1       1.458   3.240  18.699  0.00  0.00    +0.000 A 
ATOM     10  C   UNL     1       2.286   2.363  18.019  0.00  0.00    +0.000 A 
ATOM     11  C   UNL     1       3.403   2.852  17.343  0.00  0.00    +0.000 A 
ATOM     12  C   UNL     1       3.713   4.227  17.340  0.00  0.00    +0.000 A 
ENDROOT
BRANCH   6  13
ATOM     13  S   UNL     1       2.151   7.661  18.886  0.00  0.00    +0.000 S 
BRANCH  13  14
ATOM     14  C   UNL     1       2.068   9.176  17.899  0.00  0.00    +0.000 C 
BRANCH  14  15
ATOM     15  C   UNL     1       0.819   9.950  18.292  0.00  0.00    +0.000 C 
ATOM     16  O   UNL     1       0.859  10.733  19.239  0.00  0.00    +0.000 OA
ATOM     17  N   UNL     1      -0.309   9.688  17.518  0.00  0.00    +0.000 N 
ATOM     18  H   UNL     1      -0.280   8.851  16.942  0.00  0.00    +0.000 HD
BRANCH  17  19
ATOM     19  C   UNL     1      -1.572  10.289  17.733  0.00  0.00    +0.000 A 
ATOM     20  C   UNL     1      -2.671  10.057  16.909  0.00  0.00    +0.000 A 
ATOM     21  C   UNL     1      -3.866  10.740  17.111  0.00  0.00    +0.000 A 
ATOM     22  C   UNL     1      -3.936  11.629  18.165  0.00  0.00    +0.000 A 
ATOM     23  N   UNL     1      -2.917  11.856  19.024  0.00  0.00    +0.000 NA
ATOM     24  C   UNL     1      -1.764  11.179  18.793  0.00  0.00    +0.000 A 
ENDBRANCH  17  19
ENDBRANCH  14  15
ENDBRANCH  13  14
ENDBRANCH   6  13
TORSDOF 4
ENDMDL
MODEL 3
REMARK VINA RESULT:      -7.2      2.323      8.640
REMARK  Name = 
REMARK  5 active torsions:
REMARK  status: ('A' for Active; 'I' for Inactive)
REMARK    1  A    between atoms: C_1  and  N_2
REMARK    2  A    between atoms: C_6  and  S_7
REMARK    3  A    between atoms: S_7  and  C_8
REMARK    4  A    between atoms: C_8  and  C_9
REMARK    5  A    between atoms: N_11  and  C_12
REMARK                            x       y       z     vdW  Elec       q    Type
REMARK                         _______ _______ _______ _____ _____    ______ ____
ROOT
ATOM      1  C   UNL     1       5.791   3.976  15.771  0.00  0.00    +0.000 C 
ATOM      2  N   UNL     1       4.919   4.798  16.595  0.00  0.00    +0.000 N 
ATOM      3  C   UNL     1       5.171   6.158  16.658  0.00  0.00    +0.000 A 
ATOM      4  O   UNL     1       6.080   6.728  16.065  0.00  0.00    +0.000 OA
ATOM      5  C   UNL     1       4.273   6.975  17.508  0.00  0.00    +0.000 A 
ATOM      6  C   UNL     1       3.249   6.459  18.187  0.00  0.00    +0.000 A 
ATOM      7  C   UNL     1       2.977   4.997  18.085  0.00  0.00    +0.000 A 
ATOM      8  C   UNL     1       1.905   4.366  18.749  0.00  0.00    +0.000 A 
ATOM      9  C   UNL     1       1.690   2.989  18.663  0.00  0.00    +0.000 A 
ATOM     10  C   UNL     1       2.546   2.207  17.906  0.00  0.00    +0.000 A 
ATOM     11  C   UNL     1       3.607   2.803  17.228  0.00  0.00    +0.000 A 
ATOM     12  C   UNL     1       3.835   4.192  17.301  0.00  0.00    +0.000 A 
ENDROOT
BRANCH   6  13
ATOM     13  S   UNL     1       2.126   7.425  19.103  0.00  0.00    +0.000 S 
BRANCH  13  14
ATOM     14  C   UNL     1       1.767   8.901  18.119  0.00  0.00    +0.000 C 
BRANCH  14  15
ATOM     15  C   UNL     1       0.776   9.769  18.881  0.00  0.00    +0.000 C 
ATOM     16  O   UNL     1      -0.274  10.113  18.343  0.00  0.00    +0.000 OA
ATOM     17  N   UNL     1       1.165  10.117  20.173  0.00  0.00    +0.000 N 
ATOM     18  H   UNL     1       2.145   9.985  20.403  0.00  0.00    +0.000 HD
BRANCH  17  19
ATOM     19  C   UNL     1       0.396  10.932  21.036  0.00  0.00    +0.000 A 
ATOM     20  C   UNL     1       0.298  12.313  20.885  0.00  0.00    +0.000 A 
ATOM     21  C   UNL     1      -0.400  13.081  21.812  0.00  0.00    +0.000 A 
ATOM     22  C   UNL     1      -1.012  12.431  22.865  0.00  0.00    +0.000 A 
ATOM     23  N   UNL     1      -0.991  11.089  23.033  0.00  0.00    +0.000 NA
ATOM     24  C   UNL     1      -0.294  10.372  22.115  0.00  0.00    +0.000 A 
ENDBRANCH  17  19
ENDBRANCH  14  15
ENDBRANCH  13  14
ENDBRANCH   6  13
TORSDOF 4
ENDMDL
MODEL 4
REMARK VINA RESULT:      -7.2      2.416      8.600
REMARK  Name = 
REMARK  5 active torsions:
REMARK  status: ('A' for Active; 'I' for Inactive)
REMARK    1  A    between atoms: C_1  and  N_2
REMARK    2  A    between atoms: C_6  and  S_7
REMARK    3  A    between atoms: S_7  and  C_8
REMARK    4  A    between atoms: C_8  and  C_9
REMARK    5  A    between atoms: N_11  and  C_12
REMARK                            x       y       z     vdW  Elec       q    Type
REMARK                         _______ _______ _______ _____ _____    ______ ____
ROOT
ATOM      1  C   UNL     1       5.658   3.737  15.797  0.00  0.00    +0.000 C 
ATOM      2  N   UNL     1       4.844   4.662  16.570  0.00  0.00    +0.000 N 
ATOM      3  C   UNL     1       5.193   6.002  16.562  0.00  0.00    +0.000 A 
ATOM      4  O   UNL     1       6.142   6.473  15.945  0.00  0.00    +0.000 OA
ATOM      5  C   UNL     1       4.354   6.926  17.361  0.00  0.00    +0.000 A 
ATOM      6  C   UNL     1       3.293   6.522  18.061  0.00  0.00    +0.000 A 
ATOM      7  C   UNL     1       2.918   5.080  18.034  0.00  0.00    +0.000 A 
ATOM      8  C   UNL     1       1.801   4.563  18.724  0.00  0.00    +0.000 A 
ATOM      9  C   UNL     1       1.488   3.203  18.712  0.00  0.00    +0.000 A 
ATOM     10  C   UNL     1       2.288   2.322  18.003  0.00  0.00    +0.000 A 
ATOM     11  C   UNL     1       3.391   2.803  17.301  0.00  0.00    +0.000 A 
ATOM     12  C   UNL     1       3.718   4.174  17.300  0.00  0.00    +0.000 A 
ENDROOT
BRANCH   6  13
ATOM     13  S   UNL     1       2.241   7.613  18.916  0.00  0.00    +0.000 S 
BRANCH  13  14
ATOM     14  C   UNL     1       1.618   8.810  17.708  0.00  0.00    +0.000 C 
BRANCH  14  15
ATOM     15  C   UNL     1       1.290  10.109  18.429  0.00  0.00    +0.000 C 
ATOM     16  O   UNL     1       2.011  11.092  18.274  0.00  0.00    +0.000 OA
ATOM     17  N   UNL     1       0.158  10.067  19.240  0.00  0.00    +0.000 N 
ATOM     18  H   UNL     1      -0.196   9.145  19.477  0.00  0.00    +0.000 HD
BRANCH  17  19
ATOM     19  C   UNL     1      -0.304  11.161  20.008  0.00  0.00    +0.000 A 
ATOM     20  C   UNL     1      -1.256  12.065  19.541  0.00  0.00    +0.000 A 
ATOM     21  C   UNL     1      -1.613  13.176  20.300  0.00  0.00    +0.000 A 
ATOM     22  C   UNL     1      -1.016  13.337  21.535  0.00  0.00    +0.000 A 
ATOM     23  N   UNL     1      -0.125  12.466  22.057  0.00  0.00    +0.000 NA
ATOM     24  C   UNL     1       0.206  11.398  21.287  0.00  0.00    +0.000 A 
ENDBRANCH  17  19
ENDBRANCH  14  15
ENDBRANCH  13  14
ENDBRANCH   6  13
TORSDOF 4
ENDMDL
MODEL 5
REMARK VINA RESULT:      -7.1      2.386      8.578
REMARK  Name = 
REMARK  5 active torsions:
REMARK  status: ('A' for Active; 'I' for Inactive)
REMARK    1  A    between atoms: C_1  and  N_2
REMARK    2  A    between atoms: C_6  and  S_7
REMARK    3  A    between atoms: S_7  and  C_8
REMARK    4  A    between atoms: C_8  and  C_9
REMARK    5  A    between atoms: N_11  and  C_12
REMARK                            x       y       z     vdW  Elec       q    Type
REMARK                         _______ _______ _______ _____ _____    ______ ____
ROOT
ATOM      1  C   UNL     1       5.273   3.662  15.772  0.00  0.00    +0.000 C 
ATOM      2  N   UNL     1       4.531   4.564  16.640  0.00  0.00    +0.000 N 
ATOM      3  C   UNL     1       4.854   5.909  16.612  0.00  0.00    +0.000 A 
ATOM      4  O   UNL     1       5.722   6.405  15.903  0.00  0.00    +0.000 OA
ATOM      5  C   UNL     1       4.089   6.808  17.508  0.00  0.00    +0.000 A 
ATOM      6  C   UNL     1       3.117   6.376  18.313  0.00  0.00    +0.000 A 
ATOM      7  C   UNL     1       2.767   4.928  18.308  0.00  0.00    +0.000 A 
ATOM      8  C   UNL     1       1.740   4.383  19.107  0.00  0.00    +0.000 A 
ATOM      9  C   UNL     1       1.452   3.017  19.111  0.00  0.00    +0.000 A 
ATOM     10  C   UNL     1       2.186   2.159  18.308  0.00  0.00    +0.000 A 
ATOM     11  C   UNL     1       3.199   2.669  17.499  0.00  0.00    +0.000 A 
ATOM     12  C   UNL     1       3.499   4.046  17.481  0.00  0.00    +0.000 A 
ENDROOT
BRANCH   6  13
ATOM     13  S   UNL     1       2.144   7.438  19.290  0.00  0.00    +0.000 S 
BRANCH  13  14
ATOM     14  C   UNL     1       1.756   8.888  18.278  0.00  0.00    +0.000 C 
BRANCH  14  15
ATOM     15  C   UNL     1       0.811   9.791  19.057  0.00  0.00    +0.000 C 
ATOM     16  O   UNL     1      -0.248  10.151  18.548  0.00  0.00    +0.000 OA
ATOM     17  N   UNL     1       1.251  10.152  20.330  0.00  0.00    +0.000 N 
ATOM     18  H   UNL     1       2.235  10.002  20.529  0.00  0.00    +0.000 HD
BRANCH  17  19
ATOM     19  C   UNL     1       0.529  10.999  21.203  0.00  0.00    +0.000 A 
ATOM     20  C   UNL     1      -0.389  10.520  22.135  0.00  0.00    +0.000 A 
ATOM     21  C   UNL     1      -1.138  11.399  22.911  0.00  0.00    +0.000 A 
ATOM     22  C   UNL     1      -0.923  12.753  22.748  0.00  0.00    +0.000 A 
ATOM     23  N   UNL     1      -0.011  13.271  21.895  0.00  0.00    +0.000 NA
ATOM     24  C   UNL     1       0.696  12.385  21.149  0.00  0.00    +0.000 A 
ENDBRANCH  17  19
ENDBRANCH  14  15
ENDBRANCH  13  14
ENDBRANCH   6  13
TORSDOF 4
ENDMDL
MODEL 6
REMARK VINA RESULT:      -7.1      2.392      8.587
REMARK  Name = 
REMARK  5 active torsions:
REMARK  status: ('A' for Active; 'I' for Inactive)
REMARK    1  A    between atoms: C_1  and  N_2
REMARK    2  A    between atoms: C_6  and  S_7
REMARK    3  A    between atoms: S_7  and  C_8
REMARK    4  A    between atoms: C_8  and  C_9
REMARK    5  A    between atoms: N_11  and  C_12
REMARK                            x       y       z     vdW  Elec       q    Type
REMARK                         _______ _______ _______ _____ _____    ______ ____
ROOT
ATOM      1  C   UNL     1       5.658   3.769  16.025  0.00  0.00    +0.000 C 
ATOM      2  N   UNL     1       4.796   4.722  16.707  0.00  0.00    +0.000 N 
ATOM      3  C   UNL     1       5.101   6.068  16.602  0.00  0.00    +0.000 A 
ATOM      4  O   UNL     1       6.047   6.524  15.970  0.00  0.00    +0.000 OA
ATOM      5  C   UNL     1       4.213   7.021  17.310  0.00  0.00    +0.000 A 
ATOM      6  C   UNL     1       3.151   6.635  18.017  0.00  0.00    +0.000 A 
ATOM      7  C   UNL     1       2.825   5.183  18.095  0.00  0.00    +0.000 A 
ATOM      8  C   UNL     1       1.710   4.683  18.801  0.00  0.00    +0.000 A 
ATOM      9  C   UNL     1       1.443   3.315  18.887  0.00  0.00    +0.000 A 
ATOM     10  C   UNL     1       2.287   2.411  18.265  0.00  0.00    +0.000 A 
ATOM     11  C   UNL     1       3.390   2.875  17.551  0.00  0.00    +0.000 A 
ATOM     12  C   UNL     1       3.671   4.253  17.450  0.00  0.00    +0.000 A 
ENDROOT
BRANCH   6  13
ATOM     13  S   UNL     1       2.043   7.752  18.764  0.00  0.00    +0.000 S 
BRANCH  13  14
ATOM     14  C   UNL     1       2.151   9.306  17.842  0.00  0.00    +0.000 C 
BRANCH  14  15
ATOM     15  C   UNL     1       1.407  10.386  18.613  0.00  0.00    +0.000 C 
ATOM     16  O   UNL     1       1.640  11.571  18.384  0.00  0.00    +0.000 OA
ATOM     17  N   UNL     1       0.491   9.918  19.554  0.00  0.00    +0.000 N 
ATOM     18  H   UNL     1       0.574   8.942  19.821  0.00  0.00    +0.000 HD
BRANCH  17  19
ATOM     19  C   UNL     1      -0.286  10.759  20.385  0.00  0.00    +0.000 A 
ATOM     20  C   UNL     1      -0.088  10.856  21.761  0.00  0.00    +0.000 A 
ATOM     21  C   UNL     1      -0.935  11.630  22.547  0.00  0.00    +0.000 A 
ATOM     22  C   UNL     1      -1.956  12.316  21.920  0.00  0.00    +0.000 A 
ATOM     23  N   UNL     1      -2.164  12.297  20.585  0.00  0.00    +0.000 NA
ATOM     24  C   UNL     1      -1.323  11.526  19.849  0.00  0.00    +0.000 A 
ENDBRANCH  17  19
ENDBRANCH  14  15
ENDBRANCH  13  14
ENDBRANCH   6  13
TORSDOF 4
ENDMDL
MODEL 7
REMARK VINA RESULT:      -6.9      4.453      6.307
REMARK  Name = 
REMARK  5 active torsions:
REMARK  status: ('A' for Active; 'I' for Inactive)
REMARK    1  A    between atoms: C_1  and  N_2
REMARK    2  A    between atoms: C_6  and  S_7
REMARK    3  A    between atoms: S_7  and  C_8
REMARK    4  A    between atoms: C_8  and  C_9
REMARK    5  A    between atoms: N_11  and  C_12
REMARK                            x       y       z     vdW  Elec       q    Type
REMARK                         _______ _______ _______ _____ _____    ______ ____
ROOT
ATOM      1  C   UNL     1       1.842   1.917  19.249  0.00  0.00    +0.000 C 
ATOM      2  N   UNL     1       2.634   3.062  18.829  0.00  0.00    +0.000 N 
ATOM      3  C   UNL     1       3.649   2.852  17.911  0.00  0.00    +0.000 A 
ATOM      4  O   UNL     1       3.932   1.766  17.418  0.00  0.00    +0.000 OA
ATOM      5  C   UNL     1       4.447   4.032  17.501  0.00  0.00    +0.000 A 
ATOM      6  C   UNL     1       4.218   5.260  17.967  0.00  0.00    +0.000 A 
ATOM      7  C   UNL     1       3.104   5.470  18.934  0.00  0.00    +0.000 A 
ATOM      8  C   UNL     1       2.773   6.735  19.463  0.00  0.00    +0.000 A 
ATOM      9  C   UNL     1       1.745   6.901  20.393  0.00  0.00    +0.000 A 
ATOM     10  C   UNL     1       1.018   5.802  20.816  0.00  0.00    +0.000 A 
ATOM     11  C   UNL     1       1.313   4.540  20.303  0.00  0.00    +0.000 A 
ATOM     12  C   UNL     1       2.345   4.356  19.359  0.00  0.00    +0.000 A 
ENDROOT
BRANCH   6  13
ATOM     13  S   UNL     1       5.080   6.668  17.413  0.00  0.00    +0.000 S 
BRANCH  13  14
ATOM     14  C   UNL     1       6.845   6.269  17.469  0.00  0.00    +0.000 C 
BRANCH  14  15
ATOM     15  C   UNL     1       7.174   5.335  16.313  0.00  0.00    +0.000 C 
ATOM     16  O   UNL     1       7.999   4.438  16.468  0.00  0.00    +0.000 OA
ATOM     17  N   UNL     1       6.487   5.595  15.128  0.00  0.00    +0.000 N 
ATOM     18  H   UNL     1       6.034   6.501  15.056  0.00  0.00    +0.000 HD
BRANCH  17  19
ATOM     19  C   UNL     1       6.664   4.856  13.935  0.00  0.00    +0.000 A 
ATOM     20  C   UNL     1       7.609   5.193  12.969  0.00  0.00    +0.000 A 
ATOM     21  C   UNL     1       7.685   4.486  11.772  0.00  0.00    +0.000 A 
ATOM     22  C   UNL     1       6.817   3.429  11.587  0.00  0.00    +0.000 A 
ATOM     23  N   UNL     1       5.914   3.028  12.510  0.00  0.00    +0.000 NA
ATOM     24  C   UNL     1       5.862   3.744  13.662  0.00  0.00    +0.000 A 
ENDBRANCH  17  19
ENDBRANCH  14  15
ENDBRANCH  13  14
ENDBRANCH   6  13
TORSDOF 4
ENDMDL
MODEL 8
REMARK VINA RESULT:      -6.9      2.597      3.272
REMARK  Name = 
REMARK  5 active torsions:
REMARK  status: ('A' for Active; 'I' for Inactive)
REMARK    1  A    between atoms: C_1  and  N_2
REMARK    2  A    between atoms: C_6  and  S_7
REMARK    3  A    between atoms: S_7  and  C_8
REMARK    4  A    between atoms: C_8  and  C_9
REMARK    5  A    between atoms: N_11  and  C_12
REMARK                            x       y       z     vdW  Elec       q    Type
REMARK                         _______ _______ _______ _____ _____    ______ ____
ROOT
ATOM      1  C   UNL     1      -3.711  12.854  20.583  0.00  0.00    +0.000 C 
ATOM      2  N   UNL     1      -2.553  12.125  20.087  0.00  0.00    +0.000 N 
ATOM      3  C   UNL     1      -1.390  12.160  20.836  0.00  0.00    +0.000 A 
ATOM      4  O   UNL     1      -1.260  12.759  21.898  0.00  0.00    +0.000 OA
ATOM      5  C   UNL     1      -0.222  11.416  20.310  0.00  0.00    +0.000 A 
ATOM      6  C   UNL     1      -0.257  10.723  19.171  0.00  0.00    +0.000 A 
ATOM      7  C   UNL     1      -1.526  10.676  18.392  0.00  0.00    +0.000 A 
ATOM      8  C   UNL     1      -1.665   9.951  17.190  0.00  0.00    +0.000 A 
ATOM      9  C   UNL     1      -2.855   9.949  16.461  0.00  0.00    +0.000 A 
ATOM     10  C   UNL     1      -3.942  10.673  16.920  0.00  0.00    +0.000 A 
ATOM     11  C   UNL     1      -3.841  11.389  18.111  0.00  0.00    +0.000 A 
ATOM     12  C   UNL     1      -2.647  11.398  18.862  0.00  0.00    +0.000 A 
ENDROOT
BRANCH   6  13
ATOM     13  S   UNL     1       1.077   9.761  18.598  0.00  0.00    +0.000 S 
BRANCH  13  14
ATOM     14  C   UNL     1       1.548   8.647  19.944  0.00  0.00    +0.000 C 
BRANCH  14  15
ATOM     15  C   UNL     1       2.199   7.407  19.350  0.00  0.00    +0.000 C 
ATOM     16  O   UNL     1       2.357   7.323  18.134  0.00  0.00    +0.000 OA
ATOM     17  N   UNL     1       2.568   6.430  20.274  0.00  0.00    +0.000 N 
ATOM     18  H   UNL     1       2.161   6.507  21.201  0.00  0.00    +0.000 HD
BRANCH  17  19
ATOM     19  C   UNL     1       3.168   5.198  19.923  0.00  0.00    +0.000 A 
ATOM     20  C   UNL     1       2.505   3.977  20.025  0.00  0.00    +0.000 A 
ATOM     21  C   UNL     1       3.168   2.785  19.752  0.00  0.00    +0.000 A 
ATOM     22  C   UNL     1       4.488   2.852  19.352  0.00  0.00    +0.000 A 
ATOM     23  N   UNL     1       5.165   4.011  19.189  0.00  0.00    +0.000 NA
ATOM     24  C   UNL     1       4.490   5.155  19.472  0.00  0.00    +0.000 A 
ENDBRANCH  17  19
ENDBRANCH  14  15
ENDBRANCH  13  14
ENDBRANCH   6  13
TORSDOF 4
ENDMDL
MODEL 9
REMARK VINA RESULT:      -6.9      2.320      8.729
REMARK  Name = 
REMARK  5 active torsions:
REMARK  status: ('A' for Active; 'I' for Inactive)
REMARK    1  A    between atoms: C_1  and  N_2
REMARK    2  A    between atoms: C_6  and  S_7
REMARK    3  A    between atoms: S_7  and  C_8
REMARK    4  A    between atoms: C_8  and  C_9
REMARK    5  A    between atoms: N_11  and  C_12
REMARK                            x       y       z     vdW  Elec       q    Type
REMARK                         _______ _______ _______ _____ _____    ______ ____
ROOT
ATOM      1  C   UNL     1       4.277   4.204  16.822  0.00  0.00    +0.000 C 
ATOM      2  N   UNL     1       3.582   5.010  17.815  0.00  0.00    +0.000 N 
ATOM      3  C   UNL     1       3.720   6.386  17.750  0.00  0.00    +0.000 A 
ATOM      4  O   UNL     1       4.384   6.983  16.911  0.00  0.00    +0.000 OA
ATOM      5  C   UNL     1       3.009   7.187  18.774  0.00  0.00    +0.000 A 
ATOM      6  C   UNL     1       2.251   6.641  19.725  0.00  0.00    +0.000 A 
ATOM      7  C   UNL     1       2.094   5.159  19.762  0.00  0.00    +0.000 A 
ATOM      8  C   UNL     1       1.297   4.493  20.716  0.00  0.00    +0.000 A 
ATOM      9  C   UNL     1       1.192   3.102  20.750  0.00  0.00    +0.000 A 
ATOM     10  C   UNL     1       1.883   2.339  19.825  0.00  0.00    +0.000 A 
ATOM     11  C   UNL     1       2.670   2.967  18.862  0.00  0.00    +0.000 A 
ATOM     12  C   UNL     1       2.783   4.372  18.811  0.00  0.00    +0.000 A 
ENDROOT
BRANCH   6  13
ATOM     13  S   UNL     1       1.329   7.577  20.867  0.00  0.00    +0.000 S 
BRANCH  13  14
ATOM     14  C   UNL     1       1.033   9.196  20.113  0.00  0.00    +0.000 C 
BRANCH  14  15
ATOM     15  C   UNL     1       0.832  10.222  21.218  0.00  0.00    +0.000 C 
ATOM     16  O   UNL     1       1.320  10.027  22.329  0.00  0.00    +0.000 OA
ATOM     17  N   UNL     1       0.076  11.337  20.861  0.00  0.00    +0.000 N 
ATOM     18  H   UNL     1      -0.472  11.260  20.009  0.00  0.00    +0.000 HD
BRANCH  17  19
ATOM     19  C   UNL     1      -0.241  12.393  21.747  0.00  0.00    +0.000 A 
ATOM     20  C   UNL     1      -1.284  12.322  22.669  0.00  0.00    +0.000 A 
ATOM     21  C   UNL     1      -1.610  13.421  23.458  0.00  0.00    +0.000 A 
ATOM     22  C   UNL     1      -0.855  14.568  23.318  0.00  0.00    +0.000 A 
ATOM     23  N   UNL     1       0.198  14.676  22.477  0.00  0.00    +0.000 NA
ATOM     24  C   UNL     1       0.484  13.588  21.717  0.00  0.00    +0.000 A 
ENDBRANCH  17  19
ENDBRANCH  14  15
ENDBRANCH  13  14
ENDBRANCH   6  13
TORSDOF 4
ENDMDL
