MODEL 1
REMARK VINA RESULT:      -7.7      0.000      0.000
REMARK  Name = 
REMARK  8 active torsions:
REMARK  status: ('A' for Active; 'I' for Inactive)
REMARK    1  A    between atoms: N_1  and  C_2
REMARK    2  A    between atoms: C_2  and  C_3
REMARK    3  A    between atoms: C_2  and  C_14
REMARK    4  A    between atoms: C_2  and  C_17
REMARK    5  A    between atoms: C_3  and  C_4
REMARK    6  A    between atoms: C_14  and  O_16
REMARK    7  A    between atoms: C_19  and  C_20
REMARK    8  A    between atoms: C_20  and  O_22
REMARK                            x       y       z     vdW  Elec       q    Type
REMARK                         _______ _______ _______ _____ _____    ______ ____
ROOT
ATOM      1  C   UNL     1       5.682   5.400  15.708  0.00  0.00    +0.000 C 
ENDROOT
BRANCH   1   2
ATOM      2  N   UNL     1       5.240   6.779  15.439  0.00  0.00    +0.000 NA
ATOM      3  H   UNL     1       4.742   6.877  14.556  0.00  0.00    +0.000 HD
ATOM      4  H   UNL     1       5.916   7.515  15.596  0.00  0.00    +0.000 HD
ENDBRANCH   1   2
BRANCH   1   5
ATOM      5  C   UNL     1       6.775   5.547  16.784  0.00  0.00    +0.000 C 
ATOM      6  C   UNL     1       7.457   6.866  17.070  0.00  0.00    +0.000 C 
ATOM      7  C   UNL     1       6.578   6.241  18.131  0.00  0.00    +0.000 C 
BRANCH   7   8
ATOM      8  C   UNL     1       7.232   5.742  19.368  0.00  0.00    +0.000 C 
ATOM      9  O   UNL     1       6.718   4.906  20.099  0.00  0.00    +0.000 OA
BRANCH   8  10
ATOM     10  O   UNL     1       8.470   6.247  19.568  0.00  0.00    +0.000 OA
ATOM     11  H   UNL     1       8.798   6.784  18.819  0.00  0.00    +0.000 HD
ENDBRANCH   8  10
ENDBRANCH   7   8
ENDBRANCH   1   5
BRANCH   1  12
ATOM     12  C   UNL     1       6.379   4.744  14.472  0.00  0.00    +0.000 C 
ATOM     13  O   UNL     1       5.958   3.760  13.879  0.00  0.00    +0.000 OA
BRANCH  12  14
ATOM     14  O   UNL     1       7.568   5.309  14.143  0.00  0.00    +0.000 OA
ATOM     15  H   UNL     1       8.191   5.277  14.891  0.00  0.00    +0.000 HD
ENDBRANCH  12  14
ENDBRANCH   1  12
BRANCH   1  16
ATOM     16  C   UNL     1       4.455   4.563  16.169  0.00  0.00    +0.000 C 
BRANCH  16  17
ATOM     17  C   UNL     1       4.292   4.030  17.633  0.00  0.00    +0.000 C 
ATOM     18  C   UNL     1       4.253   2.498  17.766  0.00  0.00    +0.000 C 
ATOM     19  C   UNL     1       2.828   1.960  17.813  0.00  0.00    +0.000 C 
ATOM     20  C   UNL     1       2.132   2.469  19.063  0.00  0.00    +0.000 C 
ATOM     21  C   UNL     1       2.282   3.961  19.230  0.00  0.00    +0.000 A 
ATOM     22  C   UNL     1       1.460   4.593  20.179  0.00  0.00    +0.000 A 
ATOM     23  C   UNL     1       1.583   5.956  20.431  0.00  0.00    +0.000 A 
ATOM     24  C   UNL     1       2.521   6.703  19.728  0.00  0.00    +0.000 A 
ATOM     25  C   UNL     1       3.352   6.085  18.788  0.00  0.00    +0.000 A 
ATOM     26  C   UNL     1       3.261   4.706  18.536  0.00  0.00    +0.000 A 
ENDBRANCH  16  17
ENDBRANCH   1  16
TORSDOF 8
ENDMDL
MODEL 2
REMARK VINA RESULT:      -7.7      1.057      1.560
REMARK  Name = 
REMARK  8 active torsions:
REMARK  status: ('A' for Active; 'I' for Inactive)
REMARK    1  A    between atoms: N_1  and  C_2
REMARK    2  A    between atoms: C_2  and  C_3
REMARK    3  A    between atoms: C_2  and  C_14
REMARK    4  A    between atoms: C_2  and  C_17
REMARK    5  A    between atoms: C_3  and  C_4
REMARK    6  A    between atoms: C_14  and  O_16
REMARK    7  A    between atoms: C_19  and  C_20
REMARK    8  A    between atoms: C_20  and  O_22
REMARK                            x       y       z     vdW  Elec       q    Type
REMARK                         _______ _______ _______ _____ _____    ______ ____
ROOT
ATOM      1  C   UNL     1       5.541   5.552  16.057  0.00  0.00    +0.000 C 
ENDROOT
BRANCH   1   2
ATOM      2  N   UNL     1       5.106   6.707  15.254  0.00  0.00    +0.000 NA
ATOM      3  H   UNL     1       5.828   7.418  15.148  0.00  0.00    +0.000 HD
ATOM      4  H   UNL     1       4.197   7.096  15.469  0.00  0.00    +0.000 HD
ENDBRANCH   1   2
BRANCH   1   5
ATOM      5  C   UNL     1       6.258   6.171  17.271  0.00  0.00    +0.000 C 
ATOM      6  C   UNL     1       7.410   5.483  17.967  0.00  0.00    +0.000 C 
ATOM      7  C   UNL     1       7.659   6.782  17.232  0.00  0.00    +0.000 C 
BRANCH   7   8
ATOM      8  C   UNL     1       8.010   7.979  18.038  0.00  0.00    +0.000 C 
ATOM      9  O   UNL     1       7.639   9.108  17.744  0.00  0.00    +0.000 OA
BRANCH   8  10
ATOM     10  O   UNL     1       8.716   7.692  19.155  0.00  0.00    +0.000 OA
ATOM     11  H   UNL     1       9.528   8.228  19.251  0.00  0.00    +0.000 HD
ENDBRANCH   8  10
ENDBRANCH   7   8
ENDBRANCH   1   5
BRANCH   1  12
ATOM     12  C   UNL     1       6.611   4.681  15.321  0.00  0.00    +0.000 C 
ATOM     13  O   UNL     1       7.501   5.130  14.612  0.00  0.00    +0.000 OA
BRANCH  12  14
ATOM     14  O   UNL     1       6.427   3.345  15.460  0.00  0.00    +0.000 OA
ATOM     15  H   UNL     1       6.999   2.982  16.159  0.00  0.00    +0.000 HD
ENDBRANCH  12  14
ENDBRANCH   1  12
BRANCH   1  16
ATOM     16  C   UNL     1       4.290   4.704  16.431  0.00  0.00    +0.000 C 
BRANCH  16  17
ATOM     17  C   UNL     1       4.079   4.086  17.855  0.00  0.00    +0.000 C 
ATOM     18  C   UNL     1       3.988   2.550  17.889  0.00  0.00    +0.000 C 
ATOM     19  C   UNL     1       2.546   2.059  17.874  0.00  0.00    +0.000 C 
ATOM     20  C   UNL     1       1.840   2.512  19.139  0.00  0.00    +0.000 C 
ATOM     21  C   UNL     1       2.034   3.984  19.405  0.00  0.00    +0.000 A 
ATOM     22  C   UNL     1       1.212   4.582  20.375  0.00  0.00    +0.000 A 
ATOM     23  C   UNL     1       1.374   5.921  20.716  0.00  0.00    +0.000 A 
ATOM     24  C   UNL     1       2.350   6.680  20.081  0.00  0.00    +0.000 A 
ATOM     25  C   UNL     1       3.182   6.095  19.120  0.00  0.00    +0.000 A 
ATOM     26  C   UNL     1       3.051   4.738  18.778  0.00  0.00    +0.000 A 
ENDBRANCH  16  17
ENDBRANCH   1  16
TORSDOF 8
ENDMDL
MODEL 3
REMARK VINA RESULT:      -7.6      1.750      3.412
REMARK  Name = 
REMARK  8 active torsions:
REMARK  status: ('A' for Active; 'I' for Inactive)
REMARK    1  A    between atoms: N_1  and  C_2
REMARK    2  A    between atoms: C_2  and  C_3
REMARK    3  A    between atoms: C_2  and  C_14
REMARK    4  A    between atoms: C_2  and  C_17
REMARK    5  A    between atoms: C_3  and  C_4
REMARK    6  A    between atoms: C_14  and  O_16
REMARK    7  A    between atoms: C_19  and  C_20
REMARK    8  A    between atoms: C_20  and  O_22
REMARK                            x       y       z     vdW  Elec       q    Type
REMARK                         _______ _______ _______ _____ _____    ______ ____
ROOT
ATOM      1  C   UNL     1       6.245   4.789  16.707  0.00  0.00    +0.000 C 
ENDROOT
BRANCH   1   2
ATOM      2  N   UNL     1       7.024   4.055  17.719  0.00  0.00    +0.000 NA
ATOM      3  H   UNL     1       6.443   3.548  18.384  0.00  0.00    +0.000 HD
ATOM      4  H   UNL     1       7.786   4.554  18.159  0.00  0.00    +0.000 HD
ENDBRANCH   1   2
BRANCH   1   5
ATOM      5  C   UNL     1       6.822   4.319  15.358  0.00  0.00    +0.000 C 
ATOM      6  C   UNL     1       5.967   3.668  14.295  0.00  0.00    +0.000 C 
ATOM      7  C   UNL     1       6.584   5.022  14.022  0.00  0.00    +0.000 C 
BRANCH   7   8
ATOM      8  C   UNL     1       7.645   5.104  12.985  0.00  0.00    +0.000 C 
ATOM      9  O   UNL     1       7.569   4.519  11.912  0.00  0.00    +0.000 OA
BRANCH   8  10
ATOM     10  O   UNL     1       8.659   5.936  13.310  0.00  0.00    +0.000 OA
ATOM     11  H   UNL     1       9.390   5.931  12.662  0.00  0.00    +0.000 HD
ENDBRANCH   8  10
ENDBRANCH   7   8
ENDBRANCH   1   5
BRANCH   1  12
ATOM     12  C   UNL     1       6.489   6.332  16.767  0.00  0.00    +0.000 C 
ATOM     13  O   UNL     1       7.594   6.860  16.763  0.00  0.00    +0.000 OA
BRANCH  12  14
ATOM     14  O   UNL     1       5.358   7.065  16.915  0.00  0.00    +0.000 OA
ATOM     15  H   UNL     1       5.447   7.707  17.641  0.00  0.00    +0.000 HD
ENDBRANCH  12  14
ENDBRANCH   1  12
BRANCH   1  16
ATOM     16  C   UNL     1       4.738   4.453  16.897  0.00  0.00    +0.000 C 
BRANCH  16  17
ATOM     17  C   UNL     1       4.180   3.752  18.182  0.00  0.00    +0.000 C 
ATOM     18  C   UNL     1       3.861   2.256  18.020  0.00  0.00    +0.000 C 
ATOM     19  C   UNL     1       2.390   2.012  17.705  0.00  0.00    +0.000 C 
ATOM     20  C   UNL     1       1.537   2.459  18.879  0.00  0.00    +0.000 C 
ATOM     21  C   UNL     1       1.891   3.850  19.345  0.00  0.00    +0.000 A 
ATOM     22  C   UNL     1       1.002   4.485  20.227  0.00  0.00    +0.000 A 
ATOM     23  C   UNL     1       1.291   5.743  20.745  0.00  0.00    +0.000 A 
ATOM     24  C   UNL     1       2.468   6.384  20.377  0.00  0.00    +0.000 A 
ATOM     25  C   UNL     1       3.368   5.759  19.507  0.00  0.00    +0.000 A 
ATOM     26  C   UNL     1       3.106   4.479  18.991  0.00  0.00    +0.000 A 
ENDBRANCH  16  17
ENDBRANCH   1  16
TORSDOF 8
ENDMDL
MODEL 4
REMARK VINA RESULT:      -7.4      1.852      3.785
REMARK  Name = 
REMARK  8 active torsions:
REMARK  status: ('A' for Active; 'I' for Inactive)
REMARK    1  A    between atoms: N_1  and  C_2
REMARK    2  A    between atoms: C_2  and  C_3
REMARK    3  A    between atoms: C_2  and  C_14
REMARK    4  A    between atoms: C_2  and  C_17
REMARK    5  A    between atoms: C_3  and  C_4
REMARK    6  A    between atoms: C_14  and  O_16
REMARK    7  A    between atoms: C_19  and  C_20
REMARK    8  A    between atoms: C_20  and  O_22
REMARK                            x       y       z     vdW  Elec       q    Type
REMARK                         _______ _______ _______ _____ _____    ______ ____
ROOT
ATOM      1  C   UNL     1       5.499   4.784  15.986  0.00  0.00    +0.000 C 
ENDROOT
BRANCH   1   2
ATOM      2  N   UNL     1       6.603   3.971  16.522  0.00  0.00    +0.000 NA
ATOM      3  H   UNL     1       7.511   4.216  16.131  0.00  0.00    +0.000 HD
ATOM      4  H   UNL     1       6.451   2.972  16.574  0.00  0.00    +0.000 HD
ENDBRANCH   1   2
BRANCH   1   5
ATOM      5  C   UNL     1       5.673   4.712  14.457  0.00  0.00    +0.000 C 
ATOM      6  C   UNL     1       7.025   4.828  13.790  0.00  0.00    +0.000 C 
ATOM      7  C   UNL     1       6.268   3.521  13.707  0.00  0.00    +0.000 C 
BRANCH   7   8
ATOM      8  C   UNL     1       5.754   3.101  12.378  0.00  0.00    +0.000 C 
ATOM      9  O   UNL     1       4.703   3.520  11.911  0.00  0.00    +0.000 OA
BRANCH   8  10
ATOM     10  O   UNL     1       6.588   2.271  11.712  0.00  0.00    +0.000 OA
ATOM     11  H   UNL     1       7.465   2.179  12.133  0.00  0.00    +0.000 HD
ENDBRANCH   8  10
ENDBRANCH   7   8
ENDBRANCH   1   5
BRANCH   1  12
ATOM     12  C   UNL     1       5.630   6.296  16.364  0.00  0.00    +0.000 C 
ATOM     13  O   UNL     1       6.157   6.711  17.387  0.00  0.00    +0.000 OA
BRANCH  12  14
ATOM     14  O   UNL     1       5.024   7.138  15.491  0.00  0.00    +0.000 OA
ATOM     15  H   UNL     1       5.665   7.755  15.095  0.00  0.00    +0.000 HD
ENDBRANCH  12  14
ENDBRANCH   1  12
BRANCH   1  16
ATOM     16  C   UNL     1       4.151   4.195  16.494  0.00  0.00    +0.000 C 
BRANCH  16  17
ATOM     17  C   UNL     1       3.940   3.709  17.968  0.00  0.00    +0.000 C 
ATOM     18  C   UNL     1       3.755   2.190  18.130  0.00  0.00    +0.000 C 
ATOM     19  C   UNL     1       2.285   1.792  18.187  0.00  0.00    +0.000 C 
ATOM     20  C   UNL     1       1.642   2.390  19.426  0.00  0.00    +0.000 C 
ATOM     21  C   UNL     1       1.934   3.864  19.565  0.00  0.00    +0.000 A 
ATOM     22  C   UNL     1       1.177   4.589  20.500  0.00  0.00    +0.000 A 
ATOM     23  C   UNL     1       1.431   5.939  20.726  0.00  0.00    +0.000 A 
ATOM     24  C   UNL     1       2.435   6.579  20.009  0.00  0.00    +0.000 A 
ATOM     25  C   UNL     1       3.203   5.866  19.083  0.00  0.00    +0.000 A 
ATOM     26  C   UNL     1       2.979   4.498  18.857  0.00  0.00    +0.000 A 
ENDBRANCH  16  17
ENDBRANCH   1  16
TORSDOF 8
ENDMDL
MODEL 5
REMARK VINA RESULT:      -7.3      0.957      2.391
REMARK  Name = 
REMARK  8 active torsions:
REMARK  status: ('A' for Active; 'I' for Inactive)
REMARK    1  A    between atoms: N_1  and  C_2
REMARK    2  A    between atoms: C_2  and  C_3
REMARK    3  A    between atoms: C_2  and  C_14
REMARK    4  A    between atoms: C_2  and  C_17
REMARK    5  A    between atoms: C_3  and  C_4
REMARK    6  A    between atoms: C_14  and  O_16
REMARK    7  A    between atoms: C_19  and  C_20
REMARK    8  A    between atoms: C_20  and  O_22
REMARK                            x       y       z     vdW  Elec       q    Type
REMARK                         _______ _______ _______ _____ _____    ______ ____
ROOT
ATOM      1  C   UNL     1       5.810   5.469  15.926  0.00  0.00    +0.000 C 
ENDROOT
BRANCH   1   2
ATOM      2  N   UNL     1       5.084   6.634  15.394  0.00  0.00    +0.000 NA
ATOM      3  H   UNL     1       4.982   6.616  14.380  0.00  0.00    +0.000 HD
ATOM      4  H   UNL     1       5.356   7.542  15.747  0.00  0.00    +0.000 HD
ENDBRANCH   1   2
BRANCH   1   5
ATOM      5  C   UNL     1       6.961   6.073  16.752  0.00  0.00    +0.000 C 
ATOM      6  C   UNL     1       6.956   7.514  17.212  0.00  0.00    +0.000 C 
ATOM      7  C   UNL     1       6.876   6.408  18.241  0.00  0.00    +0.000 C 
BRANCH   7   8
ATOM      8  C   UNL     1       8.037   6.221  19.149  0.00  0.00    +0.000 C 
ATOM      9  O   UNL     1       8.306   5.145  19.668  0.00  0.00    +0.000 OA
BRANCH   8  10
ATOM     10  O   UNL     1       8.800   7.328  19.290  0.00  0.00    +0.000 OA
ATOM     11  H   UNL     1       8.536   7.889  20.045  0.00  0.00    +0.000 HD
ENDBRANCH   8  10
ENDBRANCH   7   8
ENDBRANCH   1   5
BRANCH   1  12
ATOM     12  C   UNL     1       6.487   4.620  14.800  0.00  0.00    +0.000 C 
ATOM     13  O   UNL     1       7.189   5.083  13.911  0.00  0.00    +0.000 OA
BRANCH  12  14
ATOM     14  O   UNL     1       6.162   3.304  14.830  0.00  0.00    +0.000 OA
ATOM     15  H   UNL     1       6.642   2.839  15.538  0.00  0.00    +0.000 HD
ENDBRANCH  12  14
ENDBRANCH   1  12
BRANCH   1  16
ATOM     16  C   UNL     1       4.823   4.604  16.762  0.00  0.00    +0.000 C 
BRANCH  16  17
ATOM     17  C   UNL     1       3.416   5.123  17.216  0.00  0.00    +0.000 C 
ATOM     18  C   UNL     1       3.378   6.596  17.658  0.00  0.00    +0.000 C 
ATOM     19  C   UNL     1       3.505   6.746  19.169  0.00  0.00    +0.000 C 
ATOM     20  C   UNL     1       2.302   6.114  19.847  0.00  0.00    +0.000 C 
ATOM     21  C   UNL     1       2.032   4.718  19.342  0.00  0.00    +0.000 A 
ATOM     22  C   UNL     1       1.134   3.925  20.076  0.00  0.00    +0.000 A 
ATOM     23  C   UNL     1       0.791   2.650  19.638  0.00  0.00    +0.000 A 
ATOM     24  C   UNL     1       1.352   2.149  18.469  0.00  0.00    +0.000 A 
ATOM     25  C   UNL     1       2.239   2.932  17.723  0.00  0.00    +0.000 A 
ATOM     26  C   UNL     1       2.581   4.231  18.134  0.00  0.00    +0.000 A 
ENDBRANCH  16  17
ENDBRANCH   1  16
TORSDOF 8
ENDMDL
MODEL 6
REMARK VINA RESULT:      -7.3      1.538      2.899
REMARK  Name = 
REMARK  8 active torsions:
REMARK  status: ('A' for Active; 'I' for Inactive)
REMARK    1  A    between atoms: N_1  and  C_2
REMARK    2  A    between atoms: C_2  and  C_3
REMARK    3  A    between atoms: C_2  and  C_14
REMARK    4  A    between atoms: C_2  and  C_17
REMARK    5  A    between atoms: C_3  and  C_4
REMARK    6  A    between atoms: C_14  and  O_16
REMARK    7  A    between atoms: C_19  and  C_20
REMARK    8  A    between atoms: C_20  and  O_22
REMARK                            x       y       z     vdW  Elec       q    Type
REMARK                         _______ _______ _______ _____ _____    ______ ____
ROOT
ATOM      1  C   UNL     1       5.942   5.772  16.557  0.00  0.00    +0.000 C 
ENDROOT
BRANCH   1   2
ATOM      2  N   UNL     1       5.297   6.662  15.577  0.00  0.00    +0.000 NA
ATOM      3  H   UNL     1       5.808   6.729  14.697  0.00  0.00    +0.000 HD
ATOM      4  H   UNL     1       4.975   7.559  15.916  0.00  0.00    +0.000 HD
ENDBRANCH   1   2
BRANCH   1   5
ATOM      5  C   UNL     1       6.518   6.724  17.623  0.00  0.00    +0.000 C 
ATOM      6  C   UNL     1       7.602   6.295  18.587  0.00  0.00    +0.000 C 
ATOM      7  C   UNL     1       7.906   7.361  17.556  0.00  0.00    +0.000 C 
BRANCH   7   8
ATOM      8  C   UNL     1       8.153   8.743  18.040  0.00  0.00    +0.000 C 
ATOM      9  O   UNL     1       7.619   9.725  17.541  0.00  0.00    +0.000 OA
BRANCH   8  10
ATOM     10  O   UNL     1       8.963   8.803  19.121  0.00  0.00    +0.000 OA
ATOM     11  H   UNL     1       8.519   8.555  19.955  0.00  0.00    +0.000 HD
ENDBRANCH   8  10
ENDBRANCH   7   8
ENDBRANCH   1   5
BRANCH   1  12
ATOM     12  C   UNL     1       7.165   5.006  15.956  0.00  0.00    +0.000 C 
ATOM     13  O   UNL     1       7.772   4.111  16.530  0.00  0.00    +0.000 OA
BRANCH  12  14
ATOM     14  O   UNL     1       7.572   5.474  14.751  0.00  0.00    +0.000 OA
ATOM     15  H   UNL     1       8.506   5.750  14.778  0.00  0.00    +0.000 HD
ENDBRANCH  12  14
ENDBRANCH   1  12
BRANCH   1  16
ATOM     16  C   UNL     1       4.876   4.782  17.109  0.00  0.00    +0.000 C 
BRANCH  16  17
ATOM     17  C   UNL     1       3.414   5.219  17.464  0.00  0.00    +0.000 C 
ATOM     18  C   UNL     1       3.269   6.676  17.939  0.00  0.00    +0.000 C 
ATOM     19  C   UNL     1       3.271   6.789  19.458  0.00  0.00    +0.000 C 
ATOM     20  C   UNL     1       2.052   6.080  20.023  0.00  0.00    +0.000 C 
ATOM     21  C   UNL     1       1.892   4.688  19.464  0.00  0.00    +0.000 A 
ATOM     22  C   UNL     1       0.981   3.833  20.105  0.00  0.00    +0.000 A 
ATOM     23  C   UNL     1       0.736   2.555  19.610  0.00  0.00    +0.000 A 
ATOM     24  C   UNL     1       1.410   2.116  18.477  0.00  0.00    +0.000 A 
ATOM     25  C   UNL     1       2.313   2.961  17.823  0.00  0.00    +0.000 A 
ATOM     26  C   UNL     1       2.556   4.263  18.292  0.00  0.00    +0.000 A 
ENDBRANCH  16  17
ENDBRANCH   1  16
TORSDOF 8
ENDMDL
MODEL 7
REMARK VINA RESULT:      -7.2      3.441      5.939
REMARK  Name = 
REMARK  8 active torsions:
REMARK  status: ('A' for Active; 'I' for Inactive)
REMARK    1  A    between atoms: N_1  and  C_2
REMARK    2  A    between atoms: C_2  and  C_3
REMARK    3  A    between atoms: C_2  and  C_14
REMARK    4  A    between atoms: C_2  and  C_17
REMARK    5  A    between atoms: C_3  and  C_4
REMARK    6  A    between atoms: C_14  and  O_16
REMARK    7  A    between atoms: C_19  and  C_20
REMARK    8  A    between atoms: C_20  and  O_22
REMARK                            x       y       z     vdW  Elec       q    Type
REMARK                         _______ _______ _______ _____ _____    ______ ____
ROOT
ATOM      1  C   UNL     1       1.442   2.927  19.083  0.00  0.00    +0.000 C 
ENDROOT
BRANCH   1   2
ATOM      2  N   UNL     1       0.294   2.204  18.510  0.00  0.00    +0.000 NA
ATOM      3  H   UNL     1      -0.073   2.638  17.665  0.00  0.00    +0.000 HD
ATOM      4  H   UNL     1      -0.431   1.914  19.153  0.00  0.00    +0.000 HD
ENDBRANCH   1   2
BRANCH   1   5
ATOM      5  C   UNL     1       2.518   1.844  19.290  0.00  0.00    +0.000 C 
ATOM      6  C   UNL     1       3.445   1.403  18.180  0.00  0.00    +0.000 C 
ATOM      7  C   UNL     1       4.018   2.119  19.383  0.00  0.00    +0.000 C 
BRANCH   7   8
ATOM      8  C   UNL     1       4.898   1.346  20.297  0.00  0.00    +0.000 C 
ATOM      9  O   UNL     1       5.145   1.705  21.440  0.00  0.00    +0.000 OA
BRANCH   8  10
ATOM     10  O   UNL     1       5.338   0.181  19.769  0.00  0.00    +0.000 OA
ATOM     11  H   UNL     1       4.691  -0.246  19.174  0.00  0.00    +0.000 HD
ENDBRANCH   8  10
ENDBRANCH   7   8
ENDBRANCH   1   5
BRANCH   1  12
ATOM     12  C   UNL     1       1.135   3.506  20.503  0.00  0.00    +0.000 C 
ATOM     13  O   UNL     1       0.753   4.649  20.717  0.00  0.00    +0.000 OA
BRANCH  12  14
ATOM     14  O   UNL     1       1.413   2.653  21.520  0.00  0.00    +0.000 OA
ATOM     15  H   UNL     1       2.096   2.009  21.261  0.00  0.00    +0.000 HD
ENDBRANCH  12  14
ENDBRANCH   1  12
BRANCH   1  16
ATOM     16  C   UNL     1       1.866   4.054  18.098  0.00  0.00    +0.000 C 
BRANCH  16  17
ATOM     17  C   UNL     1       3.160   4.913  18.297  0.00  0.00    +0.000 C 
ATOM     18  C   UNL     1       2.956   6.224  19.075  0.00  0.00    +0.000 C 
ATOM     19  C   UNL     1       2.759   7.418  18.150  0.00  0.00    +0.000 C 
ATOM     20  C   UNL     1       4.023   7.648  17.339  0.00  0.00    +0.000 C 
ATOM     21  C   UNL     1       4.520   6.382  16.688  0.00  0.00    +0.000 A 
ATOM     22  C   UNL     1       5.505   6.508  15.694  0.00  0.00    +0.000 A 
ATOM     23  C   UNL     1       6.055   5.380  15.091  0.00  0.00    +0.000 A 
ATOM     24  C   UNL     1       5.616   4.116  15.467  0.00  0.00    +0.000 A 
ATOM     25  C   UNL     1       4.643   3.976  16.462  0.00  0.00    +0.000 A 
ATOM     26  C   UNL     1       4.092   5.100  17.100  0.00  0.00    +0.000 A 
ENDBRANCH  16  17
ENDBRANCH   1  16
TORSDOF 8
ENDMDL
MODEL 8
REMARK VINA RESULT:      -7.2      1.246      2.714
REMARK  Name = 
REMARK  8 active torsions:
REMARK  status: ('A' for Active; 'I' for Inactive)
REMARK    1  A    between atoms: N_1  and  C_2
REMARK    2  A    between atoms: C_2  and  C_3
REMARK    3  A    between atoms: C_2  and  C_14
REMARK    4  A    between atoms: C_2  and  C_17
REMARK    5  A    between atoms: C_3  and  C_4
REMARK    6  A    between atoms: C_14  and  O_16
REMARK    7  A    between atoms: C_19  and  C_20
REMARK    8  A    between atoms: C_20  and  O_22
REMARK                            x       y       z     vdW  Elec       q    Type
REMARK                         _______ _______ _______ _____ _____    ______ ____
ROOT
ATOM      1  C   UNL     1       5.121   5.387  16.685  0.00  0.00    +0.000 C 
ENDROOT
BRANCH   1   2
ATOM      2  N   UNL     1       4.751   6.710  16.157  0.00  0.00    +0.000 NA
ATOM      3  H   UNL     1       5.240   6.951  15.296  0.00  0.00    +0.000 HD
ATOM      4  H   UNL     1       4.717   7.474  16.819  0.00  0.00    +0.000 HD
ENDBRANCH   1   2
BRANCH   1   5
ATOM      5  C   UNL     1       5.738   5.680  18.066  0.00  0.00    +0.000 C 
ATOM      6  C   UNL     1       5.816   4.633  19.155  0.00  0.00    +0.000 C 
ATOM      7  C   UNL     1       7.094   5.157  18.538  0.00  0.00    +0.000 C 
BRANCH   7   8
ATOM      8  C   UNL     1       7.991   5.978  19.393  0.00  0.00    +0.000 C 
ATOM      9  O   UNL     1       8.487   7.031  19.014  0.00  0.00    +0.000 OA
BRANCH   8  10
ATOM     10  O   UNL     1       8.148   5.487  20.642  0.00  0.00    +0.000 OA
ATOM     11  H   UNL     1       9.069   5.535  20.967  0.00  0.00    +0.000 HD
ENDBRANCH   8  10
ENDBRANCH   7   8
ENDBRANCH   1   5
BRANCH   1  12
ATOM     12  C   UNL     1       6.248   4.701  15.846  0.00  0.00    +0.000 C 
ATOM     13  O   UNL     1       7.141   5.302  15.263  0.00  0.00    +0.000 OA
BRANCH  12  14
ATOM     14  O   UNL     1       6.115   3.356  15.736  0.00  0.00    +0.000 OA
ATOM     15  H   UNL     1       6.964   2.905  15.891  0.00  0.00    +0.000 HD
ENDBRANCH  12  14
ENDBRANCH   1  12
BRANCH   1  16
ATOM     16  C   UNL     1       3.846   4.497  16.742  0.00  0.00    +0.000 C 
BRANCH  16  17
ATOM     17  C   UNL     1       2.579   4.881  17.581  0.00  0.00    +0.000 C 
ATOM     18  C   UNL     1       2.351   6.393  17.756  0.00  0.00    +0.000 C 
ATOM     19  C   UNL     1       2.916   6.911  19.072  0.00  0.00    +0.000 C 
ATOM     20  C   UNL     1       2.171   6.275  20.233  0.00  0.00    +0.000 C 
ATOM     21  C   UNL     1       2.079   4.775  20.098  0.00  0.00    +0.000 A 
ATOM     22  C   UNL     1       1.669   4.046  21.226  0.00  0.00    +0.000 A 
ATOM     23  C   UNL     1       1.504   2.666  21.160  0.00  0.00    +0.000 A 
ATOM     24  C   UNL     1       1.760   2.000  19.967  0.00  0.00    +0.000 A 
ATOM     25  C   UNL     1       2.159   2.714  18.833  0.00  0.00    +0.000 A 
ATOM     26  C   UNL     1       2.309   4.111  18.872  0.00  0.00    +0.000 A 
ENDBRANCH  16  17
ENDBRANCH   1  16
TORSDOF 8
ENDMDL
MODEL 9
REMARK VINA RESULT:      -7.0      1.601      4.109
REMARK  Name = 
REMARK  8 active torsions:
REMARK  status: ('A' for Active; 'I' for Inactive)
REMARK    1  A    between atoms: N_1  and  C_2
REMARK    2  A    between atoms: C_2  and  C_3
REMARK    3  A    between atoms: C_2  and  C_14
REMARK    4  A    between atoms: C_2  and  C_17
REMARK    5  A    between atoms: C_3  and  C_4
REMARK    6  A    between atoms: C_14  and  O_16
REMARK    7  A    between atoms: C_19  and  C_20
REMARK    8  A    between atoms: C_20  and  O_22
REMARK                            x       y       z     vdW  Elec       q    Type
REMARK                         _______ _______ _______ _____ _____    ______ ____
ROOT
ATOM      1  C   UNL     1       7.037   5.519  17.612  0.00  0.00    +0.000 C 
ENDROOT
BRANCH   1   2
ATOM      2  N   UNL     1       7.993   4.431  17.876  0.00  0.00    +0.000 NA
ATOM      3  H   UNL     1       7.580   3.643  18.372  0.00  0.00    +0.000 HD
ATOM      4  H   UNL     1       8.898   4.697  18.242  0.00  0.00    +0.000 HD
ENDBRANCH   1   2
BRANCH   1   5
ATOM      5  C   UNL     1       6.756   5.429  16.100  0.00  0.00    +0.000 C 
ATOM      6  C   UNL     1       7.846   5.142  15.091  0.00  0.00    +0.000 C 
ATOM      7  C   UNL     1       6.742   4.128  15.297  0.00  0.00    +0.000 C 
BRANCH   7   8
ATOM      8  C   UNL     1       5.783   3.911  14.183  0.00  0.00    +0.000 C 
ATOM      9  O   UNL     1       4.653   4.381  14.179  0.00  0.00    +0.000 OA
BRANCH   8  10
ATOM     10  O   UNL     1       6.301   3.208  13.151  0.00  0.00    +0.000 OA
ATOM     11  H   UNL     1       7.093   3.623  12.755  0.00  0.00    +0.000 HD
ENDBRANCH   8  10
ENDBRANCH   7   8
ENDBRANCH   1   5
BRANCH   1  12
ATOM     12  C   UNL     1       7.658   6.933  17.852  0.00  0.00    +0.000 C 
ATOM     13  O   UNL     1       7.549   7.878  17.081  0.00  0.00    +0.000 OA
BRANCH  12  14
ATOM     14  O   UNL     1       8.422   7.019  18.969  0.00  0.00    +0.000 OA
ATOM     15  H   UNL     1       8.843   6.165  19.174  0.00  0.00    +0.000 HD
ENDBRANCH  12  14
ENDBRANCH   1  12
BRANCH   1  16
ATOM     16  C   UNL     1       5.777   5.302  18.499  0.00  0.00    +0.000 C 
BRANCH  16  17
ATOM     17  C   UNL     1       4.319   5.337  17.926  0.00  0.00    +0.000 C 
ATOM     18  C   UNL     1       3.607   6.696  18.043  0.00  0.00    +0.000 C 
ATOM     19  C   UNL     1       2.720   6.776  19.279  0.00  0.00    +0.000 C 
ATOM     20  C   UNL     1       1.594   5.763  19.165  0.00  0.00    +0.000 C 
ATOM     21  C   UNL     1       2.098   4.389  18.801  0.00  0.00    +0.000 A 
ATOM     22  C   UNL     1       1.206   3.313  18.939  0.00  0.00    +0.000 A 
ATOM     23  C   UNL     1       1.580   2.025  18.567  0.00  0.00    +0.000 A 
ATOM     24  C   UNL     1       2.857   1.799  18.065  0.00  0.00    +0.000 A 
ATOM     25  C   UNL     1       3.752   2.863  17.913  0.00  0.00    +0.000 A 
ATOM     26  C   UNL     1       3.386   4.174  18.260  0.00  0.00    +0.000 A 
ENDBRANCH  16  17
ENDBRANCH   1  16
TORSDOF 8
ENDMDL
