MODEL 1
REMARK VINA RESULT:      -7.2      0.000      0.000
REMARK  Name = 
REMARK  2 active torsions:
REMARK  status: ('A' for Active; 'I' for Inactive)
REMARK    1  A    between atoms: C_1  and  C_2
REMARK    2  A    between atoms: C_5  and  C_6
REMARK                            x       y       z     vdW  Elec       q    Type
REMARK                         _______ _______ _______ _____ _____    ______ ____
ROOT
ATOM      1  C   UNL     1       4.782   3.709  16.646  0.00  0.00    +0.000 C 
ATOM      2  C   UNL     1       5.718   4.656  16.561  0.00  0.00    +0.000 C 
ATOM      3  N   UNL     1       6.009   5.641  17.462  0.00  0.00    +0.000 N 
ATOM      4  C   UNL     1       7.039   6.422  16.968  0.00  0.00    +0.000 C 
ATOM      5  S   UNL     1       7.705   7.729  17.721  0.00  0.00    +0.000 S 
ATOM      6  N   UNL     1       7.407   5.925  15.745  0.00  0.00    +0.000 N 
ATOM      7  C   UNL     1       6.654   4.833  15.407  0.00  0.00    +0.000 C 
ATOM      8  O   UNL     1       6.720   4.161  14.397  0.00  0.00    +0.000 OA
ATOM      9  H   UNL     1       5.543   5.780  18.350  0.00  0.00    +0.000 HD
ATOM     10  H   UNL     1       8.131   6.306  15.159  0.00  0.00    +0.000 HD
ENDROOT
BRANCH   1  15
ATOM     11  C   UNL     1       1.055   3.026  20.999  0.00  0.00    +0.000 C 
ATOM     12  C   UNL     1       2.025   3.243  19.874  0.00  0.00    +0.000 A 
ATOM     13  C   UNL     1       1.618   3.835  18.674  0.00  0.00    +0.000 A 
ATOM     14  C   UNL     1       2.526   4.000  17.624  0.00  0.00    +0.000 A 
ATOM     15  C   UNL     1       3.849   3.573  17.762  0.00  0.00    +0.000 A 
ATOM     16  C   UNL     1       4.267   3.002  18.968  0.00  0.00    +0.000 A 
ATOM     17  C   UNL     1       3.358   2.836  20.016  0.00  0.00    +0.000 A 
ENDBRANCH   1  15
TORSDOF 1
ENDMDL
MODEL 2
REMARK VINA RESULT:      -7.1      0.103      1.251
REMARK  Name = 
REMARK  2 active torsions:
REMARK  status: ('A' for Active; 'I' for Inactive)
REMARK    1  A    between atoms: C_1  and  C_2
REMARK    2  A    between atoms: C_5  and  C_6
REMARK                            x       y       z     vdW  Elec       q    Type
REMARK                         _______ _______ _______ _____ _____    ______ ____
ROOT
ATOM      1  C   UNL     1       4.738   3.651  16.550  0.00  0.00    +0.000 C 
ATOM      2  C   UNL     1       5.679   4.596  16.495  0.00  0.00    +0.000 C 
ATOM      3  N   UNL     1       5.972   5.555  17.423  0.00  0.00    +0.000 N 
ATOM      4  C   UNL     1       7.007   6.344  16.953  0.00  0.00    +0.000 C 
ATOM      5  S   UNL     1       7.678   7.626  17.744  0.00  0.00    +0.000 S 
ATOM      6  N   UNL     1       7.377   5.878  15.718  0.00  0.00    +0.000 N 
ATOM      7  C   UNL     1       6.619   4.799  15.348  0.00  0.00    +0.000 C 
ATOM      8  O   UNL     1       6.685   4.154  14.320  0.00  0.00    +0.000 OA
ATOM      9  H   UNL     1       5.505   5.671  18.312  0.00  0.00    +0.000 HD
ATOM     10  H   UNL     1       8.105   6.271  15.145  0.00  0.00    +0.000 HD
ENDROOT
BRANCH   1  15
ATOM     11  C   UNL     1       1.081   3.160  20.988  0.00  0.00    +0.000 C 
ATOM     12  C   UNL     1       2.030   3.248  19.828  0.00  0.00    +0.000 A 
ATOM     13  C   UNL     1       3.351   2.803  19.942  0.00  0.00    +0.000 A 
ATOM     14  C   UNL     1       4.232   2.922  18.863  0.00  0.00    +0.000 A 
ATOM     15  C   UNL     1       3.801   3.490  17.660  0.00  0.00    +0.000 A 
ATOM     16  C   UNL     1       2.476   3.914  17.535  0.00  0.00    +0.000 A 
ATOM     17  C   UNL     1       1.597   3.796  18.614  0.00  0.00    +0.000 A 
ENDBRANCH   1  15
TORSDOF 1
ENDMDL
MODEL 3
REMARK VINA RESULT:      -7.1      2.400      2.781
REMARK  Name = 
REMARK  2 active torsions:
REMARK  status: ('A' for Active; 'I' for Inactive)
REMARK    1  A    between atoms: C_1  and  C_2
REMARK    2  A    between atoms: C_5  and  C_6
REMARK                            x       y       z     vdW  Elec       q    Type
REMARK                         _______ _______ _______ _____ _____    ______ ____
ROOT
ATOM      1  C   UNL     1       5.157   5.029  17.291  0.00  0.00    +0.000 C 
ATOM      2  C   UNL     1       5.780   4.916  16.117  0.00  0.00    +0.000 C 
ATOM      3  N   UNL     1       5.434   4.141  15.045  0.00  0.00    +0.000 N 
ATOM      4  C   UNL     1       6.369   4.309  14.039  0.00  0.00    +0.000 C 
ATOM      5  S   UNL     1       6.350   3.561  12.571  0.00  0.00    +0.000 S 
ATOM      6  N   UNL     1       7.314   5.201  14.474  0.00  0.00    +0.000 N 
ATOM      7  C   UNL     1       7.038   5.637  15.743  0.00  0.00    +0.000 C 
ATOM      8  O   UNL     1       7.670   6.423  16.421  0.00  0.00    +0.000 OA
ATOM      9  H   UNL     1       4.623   3.538  14.996  0.00  0.00    +0.000 HD
ATOM     10  H   UNL     1       8.114   5.503  13.945  0.00  0.00    +0.000 HD
ENDROOT
BRANCH   1  15
ATOM     11  C   UNL     1       0.427   2.133  18.887  0.00  0.00    +0.000 C 
ATOM     12  C   UNL     1       1.655   2.868  18.436  0.00  0.00    +0.000 A 
ATOM     13  C   UNL     1       2.881   2.209  18.299  0.00  0.00    +0.000 A 
ATOM     14  C   UNL     1       4.023   2.915  17.909  0.00  0.00    +0.000 A 
ATOM     15  C   UNL     1       3.952   4.288  17.656  0.00  0.00    +0.000 A 
ATOM     16  C   UNL     1       2.724   4.946  17.770  0.00  0.00    +0.000 A 
ATOM     17  C   UNL     1       1.584   4.240  18.160  0.00  0.00    +0.000 A 
ENDBRANCH   1  15
TORSDOF 1
ENDMDL
MODEL 4
REMARK VINA RESULT:      -7.0      2.322      2.473
REMARK  Name = 
REMARK  2 active torsions:
REMARK  status: ('A' for Active; 'I' for Inactive)
REMARK    1  A    between atoms: C_1  and  C_2
REMARK    2  A    between atoms: C_5  and  C_6
REMARK                            x       y       z     vdW  Elec       q    Type
REMARK                         _______ _______ _______ _____ _____    ______ ____
ROOT
ATOM      1  C   UNL     1       5.208   5.106  17.493  0.00  0.00    +0.000 C 
ATOM      2  C   UNL     1       5.797   4.980  16.303  0.00  0.00    +0.000 C 
ATOM      3  N   UNL     1       5.423   4.193  15.251  0.00  0.00    +0.000 N 
ATOM      4  C   UNL     1       6.328   4.351  14.217  0.00  0.00    +0.000 C 
ATOM      5  S   UNL     1       6.269   3.586  12.758  0.00  0.00    +0.000 S 
ATOM      6  N   UNL     1       7.284   5.249  14.615  0.00  0.00    +0.000 N 
ATOM      7  C   UNL     1       7.043   5.699  15.886  0.00  0.00    +0.000 C 
ATOM      8  O   UNL     1       7.693   6.493  16.536  0.00  0.00    +0.000 OA
ATOM      9  H   UNL     1       4.612   3.588  15.231  0.00  0.00    +0.000 HD
ATOM     10  H   UNL     1       8.068   5.546  14.059  0.00  0.00    +0.000 HD
ENDROOT
BRANCH   1  15
ATOM     11  C   UNL     1       0.485   2.126  18.951  0.00  0.00    +0.000 C 
ATOM     12  C   UNL     1       1.707   2.925  18.604  0.00  0.00    +0.000 A 
ATOM     13  C   UNL     1       1.599   4.207  18.056  0.00  0.00    +0.000 A 
ATOM     14  C   UNL     1       2.747   4.926  17.707  0.00  0.00    +0.000 A 
ATOM     15  C   UNL     1       4.014   4.368  17.900  0.00  0.00    +0.000 A 
ATOM     16  C   UNL     1       4.127   3.096  18.468  0.00  0.00    +0.000 A 
ATOM     17  C   UNL     1       2.980   2.378  18.815  0.00  0.00    +0.000 A 
ENDBRANCH   1  15
TORSDOF 1
ENDMDL
MODEL 5
REMARK VINA RESULT:      -6.7      2.245      2.665
REMARK  Name = 
REMARK  2 active torsions:
REMARK  status: ('A' for Active; 'I' for Inactive)
REMARK    1  A    between atoms: C_1  and  C_2
REMARK    2  A    between atoms: C_5  and  C_6
REMARK                            x       y       z     vdW  Elec       q    Type
REMARK                         _______ _______ _______ _____ _____    ______ ____
ROOT
ATOM      1  C   UNL     1       5.509   5.773  18.614  0.00  0.00    +0.000 C 
ATOM      2  C   UNL     1       5.958   5.577  17.373  0.00  0.00    +0.000 C 
ATOM      3  N   UNL     1       5.518   4.675  16.445  0.00  0.00    +0.000 N 
ATOM      4  C   UNL     1       6.277   4.796  15.295  0.00  0.00    +0.000 C 
ATOM      5  S   UNL     1       6.098   3.899  13.924  0.00  0.00    +0.000 S 
ATOM      6  N   UNL     1       7.203   5.787  15.492  0.00  0.00    +0.000 N 
ATOM      7  C   UNL     1       7.085   6.334  16.742  0.00  0.00    +0.000 C 
ATOM      8  O   UNL     1       7.748   7.225  17.236  0.00  0.00    +0.000 OA
ATOM      9  H   UNL     1       4.759   4.020  16.580  0.00  0.00    +0.000 HD
ATOM     10  H   UNL     1       7.889   6.082  14.818  0.00  0.00    +0.000 HD
ENDROOT
BRANCH   1  15
ATOM     11  C   UNL     1       1.324   2.746  21.190  0.00  0.00    +0.000 C 
ATOM     12  C   UNL     1       2.403   3.516  20.485  0.00  0.00    +0.000 A 
ATOM     13  C   UNL     1       3.580   2.888  20.065  0.00  0.00    +0.000 A 
ATOM     14  C   UNL     1       4.589   3.626  19.439  0.00  0.00    +0.000 A 
ATOM     15  C   UNL     1       4.433   4.999  19.229  0.00  0.00    +0.000 A 
ATOM     16  C   UNL     1       3.249   5.626  19.627  0.00  0.00    +0.000 A 
ATOM     17  C   UNL     1       2.241   4.888  20.253  0.00  0.00    +0.000 A 
ENDBRANCH   1  15
TORSDOF 1
ENDMDL
MODEL 6
REMARK VINA RESULT:      -6.7      2.244      2.451
REMARK  Name = 
REMARK  2 active torsions:
REMARK  status: ('A' for Active; 'I' for Inactive)
REMARK    1  A    between atoms: C_1  and  C_2
REMARK    2  A    between atoms: C_5  and  C_6
REMARK                            x       y       z     vdW  Elec       q    Type
REMARK                         _______ _______ _______ _____ _____    ______ ____
ROOT
ATOM      1  C   UNL     1       5.610   5.717  18.547  0.00  0.00    +0.000 C 
ATOM      2  C   UNL     1       6.012   5.508  17.292  0.00  0.00    +0.000 C 
ATOM      3  N   UNL     1       5.510   4.625  16.378  0.00  0.00    +0.000 N 
ATOM      4  C   UNL     1       6.236   4.720  15.204  0.00  0.00    +0.000 C 
ATOM      5  S   UNL     1       5.982   3.833  13.838  0.00  0.00    +0.000 S 
ATOM      6  N   UNL     1       7.205   5.675  15.374  0.00  0.00    +0.000 N 
ATOM      7  C   UNL     1       7.147   6.223  16.627  0.00  0.00    +0.000 C 
ATOM      8  O   UNL     1       7.857   7.088  17.101  0.00  0.00    +0.000 OA
ATOM      9  H   UNL     1       4.731   3.999  16.535  0.00  0.00    +0.000 HD
ATOM     10  H   UNL     1       7.880   5.945  14.679  0.00  0.00    +0.000 HD
ENDROOT
BRANCH   1  15
ATOM     11  C   UNL     1       1.260   2.791  20.960  0.00  0.00    +0.000 C 
ATOM     12  C   UNL     1       2.400   3.568  20.368  0.00  0.00    +0.000 A 
ATOM     13  C   UNL     1       2.301   4.948  20.160  0.00  0.00    +0.000 A 
ATOM     14  C   UNL     1       3.359   5.652  19.578  0.00  0.00    +0.000 A 
ATOM     15  C   UNL     1       4.525   4.983  19.195  0.00  0.00    +0.000 A 
ATOM     16  C   UNL     1       4.637   3.609  19.422  0.00  0.00    +0.000 A 
ATOM     17  C   UNL     1       3.579   2.906  20.002  0.00  0.00    +0.000 A 
ENDBRANCH   1  15
TORSDOF 1
ENDMDL
MODEL 7
REMARK VINA RESULT:      -6.4      4.016      4.878
REMARK  Name = 
REMARK  2 active torsions:
REMARK  status: ('A' for Active; 'I' for Inactive)
REMARK    1  A    between atoms: C_1  and  C_2
REMARK    2  A    between atoms: C_5  and  C_6
REMARK                            x       y       z     vdW  Elec       q    Type
REMARK                         _______ _______ _______ _____ _____    ______ ____
ROOT
ATOM      1  C   UNL     1       2.668   5.405  19.620  0.00  0.00    +0.000 C 
ATOM      2  C   UNL     1       3.872   4.924  19.305  0.00  0.00    +0.000 C 
ATOM      3  N   UNL     1       4.934   5.589  18.761  0.00  0.00    +0.000 N 
ATOM      4  C   UNL     1       5.982   4.705  18.577  0.00  0.00    +0.000 C 
ATOM      5  S   UNL     1       7.456   5.076  17.939  0.00  0.00    +0.000 S 
ATOM      6  N   UNL     1       5.583   3.469  19.013  0.00  0.00    +0.000 N 
ATOM      7  C   UNL     1       4.297   3.500  19.485  0.00  0.00    +0.000 C 
ATOM      8  O   UNL     1       3.643   2.583  19.939  0.00  0.00    +0.000 OA
ATOM      9  H   UNL     1       4.950   6.574  18.526  0.00  0.00    +0.000 HD
ATOM     10  H   UNL     1       6.147   2.636  18.991  0.00  0.00    +0.000 HD
ENDROOT
BRANCH   1  15
ATOM     11  C   UNL     1       0.884  10.820  18.723  0.00  0.00    +0.000 C 
ATOM     12  C   UNL     1       1.386   9.424  18.953  0.00  0.00    +0.000 A 
ATOM     13  C   UNL     1       1.921   8.668  17.905  0.00  0.00    +0.000 A 
ATOM     14  C   UNL     1       2.355   7.358  18.129  0.00  0.00    +0.000 A 
ATOM     15  C   UNL     1       2.254   6.789  19.402  0.00  0.00    +0.000 A 
ATOM     16  C   UNL     1       1.741   7.549  20.457  0.00  0.00    +0.000 A 
ATOM     17  C   UNL     1       1.307   8.858  20.232  0.00  0.00    +0.000 A 
ENDBRANCH   1  15
TORSDOF 1
ENDMDL
MODEL 8
REMARK VINA RESULT:      -6.3      3.985      4.909
REMARK  Name = 
REMARK  2 active torsions:
REMARK  status: ('A' for Active; 'I' for Inactive)
REMARK    1  A    between atoms: C_1  and  C_2
REMARK    2  A    between atoms: C_5  and  C_6
REMARK                            x       y       z     vdW  Elec       q    Type
REMARK                         _______ _______ _______ _____ _____    ______ ____
ROOT
ATOM      1  C   UNL     1       2.708   5.329  19.692  0.00  0.00    +0.000 C 
ATOM      2  C   UNL     1       3.905   4.852  19.346  0.00  0.00    +0.000 C 
ATOM      3  N   UNL     1       4.929   5.506  18.720  0.00  0.00    +0.000 N 
ATOM      4  C   UNL     1       5.983   4.630  18.531  0.00  0.00    +0.000 C 
ATOM      5  S   UNL     1       7.420   4.992  17.809  0.00  0.00    +0.000 S 
ATOM      6  N   UNL     1       5.626   3.411  19.046  0.00  0.00    +0.000 N 
ATOM      7  C   UNL     1       4.363   3.446  19.574  0.00  0.00    +0.000 C 
ATOM      8  O   UNL     1       3.747   2.542  20.103  0.00  0.00    +0.000 OA
ATOM      9  H   UNL     1       4.917   6.477  18.437  0.00  0.00    +0.000 HD
ATOM     10  H   UNL     1       6.204   2.587  19.038  0.00  0.00    +0.000 HD
ENDROOT
BRANCH   1  15
ATOM     11  C   UNL     1       1.087  10.775  18.679  0.00  0.00    +0.000 C 
ATOM     12  C   UNL     1       1.470   9.348  18.945  0.00  0.00    +0.000 A 
ATOM     13  C   UNL     1       1.351   8.796  20.225  0.00  0.00    +0.000 A 
ATOM     14  C   UNL     1       1.742   7.475  20.464  0.00  0.00    +0.000 A 
ATOM     15  C   UNL     1       2.260   6.694  19.426  0.00  0.00    +0.000 A 
ATOM     16  C   UNL     1       2.359   7.235  18.141  0.00  0.00    +0.000 A 
ATOM     17  C   UNL     1       1.969   8.555  17.904  0.00  0.00    +0.000 A 
ENDBRANCH   1  15
TORSDOF 1
ENDMDL
MODEL 9
REMARK VINA RESULT:      -6.3      3.300      5.585
REMARK  Name = 
REMARK  2 active torsions:
REMARK  status: ('A' for Active; 'I' for Inactive)
REMARK    1  A    between atoms: C_1  and  C_2
REMARK    2  A    between atoms: C_5  and  C_6
REMARK                            x       y       z     vdW  Elec       q    Type
REMARK                         _______ _______ _______ _____ _____    ______ ____
ROOT
ATOM      1  C   UNL     1       4.262   3.983  17.131  0.00  0.00    +0.000 C 
ATOM      2  C   UNL     1       3.488   3.534  18.121  0.00  0.00    +0.000 C 
ATOM      3  N   UNL     1       3.448   3.953  19.421  0.00  0.00    +0.000 N 
ATOM      4  C   UNL     1       2.516   3.202  20.114  0.00  0.00    +0.000 C 
ATOM      5  S   UNL     1       2.145   3.361  21.713  0.00  0.00    +0.000 S 
ATOM      6  N   UNL     1       1.955   2.302  19.245  0.00  0.00    +0.000 N 
ATOM      7  C   UNL     1       2.486   2.430  17.989  0.00  0.00    +0.000 C 
ATOM      8  O   UNL     1       2.215   1.791  16.992  0.00  0.00    +0.000 OA
ATOM      9  H   UNL     1       4.014   4.693  19.816  0.00  0.00    +0.000 HD
ATOM     10  H   UNL     1       1.249   1.627  19.484  0.00  0.00    +0.000 HD
ENDROOT
BRANCH   1  15
ATOM     11  C   UNL     1       8.162   8.170  17.887  0.00  0.00    +0.000 C 
ATOM     12  C   UNL     1       7.155   7.083  17.651  0.00  0.00    +0.000 A 
ATOM     13  C   UNL     1       5.904   7.367  17.094  0.00  0.00    +0.000 A 
ATOM     14  C   UNL     1       4.964   6.348  16.910  0.00  0.00    +0.000 A 
ATOM     15  C   UNL     1       5.264   5.036  17.285  0.00  0.00    +0.000 A 
ATOM     16  C   UNL     1       6.521   4.743  17.821  0.00  0.00    +0.000 A 
ATOM     17  C   UNL     1       7.460   5.762  18.005  0.00  0.00    +0.000 A 
ENDBRANCH   1  15
TORSDOF 1
ENDMDL
