MODEL 1
REMARK VINA RESULT:      -7.6      0.000      0.000
REMARK  Name = 
REMARK  9 active torsions:
REMARK  status: ('A' for Active; 'I' for Inactive)
REMARK    1  A    between atoms: C_1  and  S_2
REMARK    2  A    between atoms: S_2  and  C_5
REMARK    3  A    between atoms: C_5  and  C_6
REMARK    4  A    between atoms: C_6  and  N_7
REMARK    5  A    between atoms: N_7  and  C_8
REMARK    6  A    between atoms: C_8  and  C_9
REMARK    7  A    between atoms: C_10  and  C_11
REMARK    8  A    between atoms: N_13  and  C_14
REMARK    9  A    between atoms: N_18  and  C_19
REMARK                            x       y       z     vdW  Elec       q    Type
REMARK                         _______ _______ _______ _____ _____    ______ ____
ROOT
ATOM      1  C   UNL     1      -0.225  10.469  21.080  0.00  0.00    +0.000 A 
ATOM      2  C   UNL     1       0.362   9.234  21.278  0.00  0.00    +0.000 A 
ATOM      3  C   UNL     1       1.106   8.799  20.119  0.00  0.00    +0.000 A 
ATOM      4  C   UNL     1       1.781   7.602  19.798  0.00  0.00    +0.000 A 
ATOM      5  N   UNL     1       1.822   6.496  20.662  0.00  0.00    +0.000 N 
ATOM      6  N   UNL     1       2.409   7.524  18.603  0.00  0.00    +0.000 NA
ATOM      7  C   UNL     1       2.356   8.566  17.757  0.00  0.00    +0.000 A 
ATOM      8  N   UNL     1       1.704   9.713  17.936  0.00  0.00    +0.000 NA
ATOM      9  C   UNL     1       1.089   9.777  19.128  0.00  0.00    +0.000 A 
ATOM     10  S   UNL     1       0.106  11.114  19.558  0.00  0.00    +0.000 S 
ATOM     11  H   UNL     1       1.485   6.664  21.604  0.00  0.00    +0.000 HD
ENDROOT
BRANCH   5  12
ATOM     12  C   UNL     1       1.919   5.137  20.303  0.00  0.00    +0.000 A 
ATOM     13  C   UNL     1       0.752   4.391  20.080  0.00  0.00    +0.000 A 
ATOM     14  C   UNL     1       0.824   3.025  19.789  0.00  0.00    +0.000 A 
ATOM     15  C   UNL     1       2.063   2.396  19.721  0.00  0.00    +0.000 A 
ATOM     16  F   UNL     1       2.108   1.085  19.443  0.00  0.00    +0.000 F 
ATOM     17  C   UNL     1       3.230   3.117  19.943  0.00  0.00    +0.000 A 
ATOM     18 CL   UNL     1       4.770   2.349  19.874  0.00  0.00    +0.000 Cl
ATOM     19  C   UNL     1       3.156   4.478  20.237  0.00  0.00    +0.000 A 
ENDBRANCH   5  12
BRANCH   1  22
ATOM     20  C   UNL     1      -0.582  12.449  22.384  0.00  0.00    +0.000 C 
ATOM     21  O   UNL     1       0.496  12.960  22.104  0.00  0.00    +0.000 OA
ATOM     22  N   UNL     1      -1.025  11.218  21.924  0.00  0.00    +0.000 N 
ATOM     23  H   UNL     1      -2.021  11.029  21.912  0.00  0.00    +0.000 HD
BRANCH  20  25
ATOM     24  C   UNL     1      -2.706  12.528  23.638  0.00  0.00    +0.000 C 
ATOM     25  C   UNL     1      -1.586  13.160  23.232  0.00  0.00    +0.000 C 
BRANCH  24  26
ATOM     26  C   UNL     1      -3.816  13.155  24.422  0.00  0.00    +0.000 C 
BRANCH  26  27
ATOM     27  N   UNL     1      -4.725  12.152  24.965  0.00  0.00    +0.000 NA
ATOM     28  H   UNL     1      -4.408  11.215  24.718  0.00  0.00    +0.000 HD
BRANCH  27  29
ATOM     29  C   UNL     1      -6.113  12.345  24.504  0.00  0.00    +0.000 C 
BRANCH  29  30
ATOM     30  C   UNL     1      -6.241  13.268  23.292  0.00  0.00    +0.000 C 
BRANCH  30  32
ATOM     31  C   UNL     1      -5.889  11.904  20.878  0.00  0.00    +0.000 C 
ATOM     32  S   UNL     1      -7.152  12.471  21.988  0.00  0.00    +0.000 S 
ATOM     33  O   UNL     1      -7.917  13.487  21.295  0.00  0.00    +0.000 OA
ATOM     34  O   UNL     1      -7.801  11.299  22.544  0.00  0.00    +0.000 OA
ENDBRANCH  30  32
ENDBRANCH  29  30
ENDBRANCH  27  29
ENDBRANCH  26  27
ENDBRANCH  24  26
ENDBRANCH  20  25
ENDBRANCH   1  22
TORSDOF 8
ENDMDL
MODEL 2
REMARK VINA RESULT:      -7.4      1.164      1.252
REMARK  Name = 
REMARK  9 active torsions:
REMARK  status: ('A' for Active; 'I' for Inactive)
REMARK    1  A    between atoms: C_1  and  S_2
REMARK    2  A    between atoms: S_2  and  C_5
REMARK    3  A    between atoms: C_5  and  C_6
REMARK    4  A    between atoms: C_6  and  N_7
REMARK    5  A    between atoms: N_7  and  C_8
REMARK    6  A    between atoms: C_8  and  C_9
REMARK    7  A    between atoms: C_10  and  C_11
REMARK    8  A    between atoms: N_13  and  C_14
REMARK    9  A    between atoms: N_18  and  C_19
REMARK                            x       y       z     vdW  Elec       q    Type
REMARK                         _______ _______ _______ _____ _____    ______ ____
ROOT
ATOM      1  C   UNL     1      -0.380  10.522  21.243  0.00  0.00    +0.000 A 
ATOM      2  C   UNL     1       0.275   9.312  21.361  0.00  0.00    +0.000 A 
ATOM      3  C   UNL     1       1.044   8.997  20.180  0.00  0.00    +0.000 A 
ATOM      4  C   UNL     1       1.786   7.863  19.783  0.00  0.00    +0.000 A 
ATOM      5  N   UNL     1       1.886   6.706  20.571  0.00  0.00    +0.000 N 
ATOM      6  N   UNL     1       2.419   7.900  18.589  0.00  0.00    +0.000 NA
ATOM      7  C   UNL     1       2.310   8.993  17.814  0.00  0.00    +0.000 A 
ATOM      8  N   UNL     1       1.595  10.087  18.066  0.00  0.00    +0.000 NA
ATOM      9  C   UNL     1       0.975  10.037  19.257  0.00  0.00    +0.000 A 
ATOM     10  S   UNL     1      -0.081  11.286  19.769  0.00  0.00    +0.000 S 
ATOM     11  H   UNL     1       1.538   6.791  21.521  0.00  0.00    +0.000 HD
ENDROOT
BRANCH   5  12
ATOM     12  C   UNL     1       2.059   5.382  20.122  0.00  0.00    +0.000 A 
ATOM     13  C   UNL     1       1.320   4.345  20.712  0.00  0.00    +0.000 A 
ATOM     14  C   UNL     1       1.526   3.015  20.329  0.00  0.00    +0.000 A 
ATOM     15  C   UNL     1       2.472   2.715  19.354  0.00  0.00    +0.000 A 
ATOM     16  F   UNL     1       2.654   1.433  19.003  0.00  0.00    +0.000 F 
ATOM     17  C   UNL     1       3.217   3.727  18.761  0.00  0.00    +0.000 A 
ATOM     18 CL   UNL     1       4.401   3.369  17.563  0.00  0.00    +0.000 Cl
ATOM     19  C   UNL     1       3.013   5.051  19.148  0.00  0.00    +0.000 A 
ENDBRANCH   5  12
BRANCH   1  22
ATOM     20  C   UNL     1      -0.906  12.441  22.581  0.00  0.00    +0.000 C 
ATOM     21  O   UNL     1       0.088  13.078  22.255  0.00  0.00    +0.000 OA
ATOM     22  N   UNL     1      -1.222  11.167  22.130  0.00  0.00    +0.000 N 
ATOM     23  H   UNL     1      -2.187  10.862  22.163  0.00  0.00    +0.000 HD
BRANCH  20  25
ATOM     24  C   UNL     1      -2.781  13.981  23.031  0.00  0.00    +0.000 C 
ATOM     25  C   UNL     1      -1.945  13.024  23.482  0.00  0.00    +0.000 C 
BRANCH  24  26
ATOM     26  C   UNL     1      -3.807  14.692  23.857  0.00  0.00    +0.000 C 
BRANCH  26  27
ATOM     27  N   UNL     1      -5.162  14.404  23.398  0.00  0.00    +0.000 NA
ATOM     28  H   UNL     1      -5.781  15.188  23.608  0.00  0.00    +0.000 HD
BRANCH  27  29
ATOM     29  C   UNL     1      -5.705  13.169  23.992  0.00  0.00    +0.000 C 
BRANCH  29  30
ATOM     30  C   UNL     1      -7.085  12.781  23.460  0.00  0.00    +0.000 C 
BRANCH  30  32
ATOM     31  C   UNL     1      -7.775  13.368  20.816  0.00  0.00    +0.000 C 
ATOM     32  S   UNL     1      -6.963  12.139  21.806  0.00  0.00    +0.000 S 
ATOM     33  O   UNL     1      -7.759  10.931  21.738  0.00  0.00    +0.000 OA
ATOM     34  O   UNL     1      -5.563  12.131  21.428  0.00  0.00    +0.000 OA
ENDBRANCH  30  32
ENDBRANCH  29  30
ENDBRANCH  27  29
ENDBRANCH  26  27
ENDBRANCH  24  26
ENDBRANCH  20  25
ENDBRANCH   1  22
TORSDOF 8
ENDMDL
MODEL 3
REMARK VINA RESULT:      -7.4      2.648      3.075
REMARK  Name = 
REMARK  9 active torsions:
REMARK  status: ('A' for Active; 'I' for Inactive)
REMARK    1  A    between atoms: C_1  and  S_2
REMARK    2  A    between atoms: S_2  and  C_5
REMARK    3  A    between atoms: C_5  and  C_6
REMARK    4  A    between atoms: C_6  and  N_7
REMARK    5  A    between atoms: N_7  and  C_8
REMARK    6  A    between atoms: C_8  and  C_9
REMARK    7  A    between atoms: C_10  and  C_11
REMARK    8  A    between atoms: N_13  and  C_14
REMARK    9  A    between atoms: N_18  and  C_19
REMARK                            x       y       z     vdW  Elec       q    Type
REMARK                         _______ _______ _______ _____ _____    ______ ____
ROOT
ATOM      1  C   UNL     1      -0.169  10.245  21.058  0.00  0.00    +0.000 A 
ATOM      2  C   UNL     1       0.600   9.103  21.178  0.00  0.00    +0.000 A 
ATOM      3  C   UNL     1       1.299   8.794  19.953  0.00  0.00    +0.000 A 
ATOM      4  C   UNL     1       2.107   7.709  19.549  0.00  0.00    +0.000 A 
ATOM      5  N   UNL     1       2.373   6.608  20.380  0.00  0.00    +0.000 N 
ATOM      6  N   UNL     1       2.639   7.736  18.307  0.00  0.00    +0.000 NA
ATOM      7  C   UNL     1       2.371   8.771  17.493  0.00  0.00    +0.000 A 
ATOM      8  N   UNL     1       1.582   9.811  17.753  0.00  0.00    +0.000 NA
ATOM      9  C   UNL     1       1.064   9.772  18.991  0.00  0.00    +0.000 A 
ATOM     10  S   UNL     1      -0.058  10.950  19.530  0.00  0.00    +0.000 S 
ATOM     11  H   UNL     1       2.095   6.714  21.350  0.00  0.00    +0.000 HD
ENDROOT
BRANCH   5  12
ATOM     12  C   UNL     1       2.630   5.282  19.980  0.00  0.00    +0.000 A 
ATOM     13  C   UNL     1       3.954   4.836  19.857  0.00  0.00    +0.000 A 
ATOM     14  C   UNL     1       4.232   3.544  19.397  0.00  0.00    +0.000 A 
ATOM     15  C   UNL     1       3.187   2.691  19.057  0.00  0.00    +0.000 A 
ATOM     16  F   UNL     1       3.476   1.458  18.616  0.00  0.00    +0.000 F 
ATOM     17  C   UNL     1       1.868   3.116  19.167  0.00  0.00    +0.000 A 
ATOM     18 CL   UNL     1       0.565   2.075  18.738  0.00  0.00    +0.000 Cl
ATOM     19  C   UNL     1       1.594   4.405  19.622  0.00  0.00    +0.000 A 
ENDBRANCH   5  12
BRANCH   1  22
ATOM     20  C   UNL     1      -0.715  12.154  22.402  0.00  0.00    +0.000 C 
ATOM     21  O   UNL     1       0.231  12.831  22.019  0.00  0.00    +0.000 OA
ATOM     22  N   UNL     1      -0.994  10.861  21.981  0.00  0.00    +0.000 N 
ATOM     23  H   UNL     1      -1.941  10.512  22.067  0.00  0.00    +0.000 HD
BRANCH  20  25
ATOM     24  C   UNL     1      -2.938  12.107  23.472  0.00  0.00    +0.000 C 
ATOM     25  C   UNL     1      -1.733  12.699  23.350  0.00  0.00    +0.000 C 
BRANCH  24  26
ATOM     26  C   UNL     1      -4.063  12.603  24.326  0.00  0.00    +0.000 C 
BRANCH  26  27
ATOM     27  N   UNL     1      -3.929  14.025  24.621  0.00  0.00    +0.000 NA
ATOM     28  H   UNL     1      -4.298  14.231  25.550  0.00  0.00    +0.000 HD
BRANCH  27  29
ATOM     29  C   UNL     1      -4.603  14.872  23.620  0.00  0.00    +0.000 C 
BRANCH  29  30
ATOM     30  C   UNL     1      -3.757  16.048  23.133  0.00  0.00    +0.000 C 
BRANCH  30  32
ATOM     31  C   UNL     1      -4.956  17.496  25.202  0.00  0.00    +0.000 C 
ATOM     32  S   UNL     1      -3.373  17.145  24.480  0.00  0.00    +0.000 S 
ATOM     33  O   UNL     1      -2.869  18.381  23.916  0.00  0.00    +0.000 OA
ATOM     34  O   UNL     1      -2.602  16.404  25.459  0.00  0.00    +0.000 OA
ENDBRANCH  30  32
ENDBRANCH  29  30
ENDBRANCH  27  29
ENDBRANCH  26  27
ENDBRANCH  24  26
ENDBRANCH  20  25
ENDBRANCH   1  22
TORSDOF 8
ENDMDL
MODEL 4
REMARK VINA RESULT:      -7.3      5.763     10.408
REMARK  Name = 
REMARK  9 active torsions:
REMARK  status: ('A' for Active; 'I' for Inactive)
REMARK    1  A    between atoms: C_1  and  S_2
REMARK    2  A    between atoms: S_2  and  C_5
REMARK    3  A    between atoms: C_5  and  C_6
REMARK    4  A    between atoms: C_6  and  N_7
REMARK    5  A    between atoms: N_7  and  C_8
REMARK    6  A    between atoms: C_8  and  C_9
REMARK    7  A    between atoms: C_10  and  C_11
REMARK    8  A    between atoms: N_13  and  C_14
REMARK    9  A    between atoms: N_18  and  C_19
REMARK                            x       y       z     vdW  Elec       q    Type
REMARK                         _______ _______ _______ _____ _____    ______ ____
ROOT
ATOM      1  C   UNL     1       1.352   8.831  20.129  0.00  0.00    +0.000 A 
ATOM      2  C   UNL     1       0.445   9.345  21.035  0.00  0.00    +0.000 A 
ATOM      3  C   UNL     1      -0.293  10.458  20.487  0.00  0.00    +0.000 A 
ATOM      4  C   UNL     1      -1.234  11.357  21.034  0.00  0.00    +0.000 A 
ATOM      5  N   UNL     1      -1.635  11.314  22.379  0.00  0.00    +0.000 N 
ATOM      6  N   UNL     1      -1.764  12.300  20.223  0.00  0.00    +0.000 NA
ATOM      7  C   UNL     1      -1.369  12.368  18.940  0.00  0.00    +0.000 A 
ATOM      8  N   UNL     1      -0.453  11.610  18.341  0.00  0.00    +0.000 NA
ATOM      9  C   UNL     1       0.060  10.676  19.158  0.00  0.00    +0.000 A 
ATOM     10  S   UNL     1       1.325   9.638  18.648  0.00  0.00    +0.000 S 
ATOM     11  H   UNL     1      -1.341  10.492  22.897  0.00  0.00    +0.000 HD
ENDROOT
BRANCH   5  12
ATOM     12  C   UNL     1      -2.060  12.394  23.177  0.00  0.00    +0.000 A 
ATOM     13  C   UNL     1      -3.358  12.400  23.707  0.00  0.00    +0.000 A 
ATOM     14  C   UNL     1      -3.823  13.494  24.445  0.00  0.00    +0.000 A 
ATOM     15  C   UNL     1      -2.992  14.589  24.656  0.00  0.00    +0.000 A 
ATOM     16  F   UNL     1      -3.459  15.628  25.365  0.00  0.00    +0.000 F 
ATOM     17  C   UNL     1      -1.704  14.605  24.135  0.00  0.00    +0.000 A 
ATOM     18 CL   UNL     1      -0.668  15.959  24.379  0.00  0.00    +0.000 Cl
ATOM     19  C   UNL     1      -1.244  13.515  23.397  0.00  0.00    +0.000 A 
ENDBRANCH   5  12
BRANCH   1  22
ATOM     20  C   UNL     1       2.547   6.984  19.176  0.00  0.00    +0.000 C 
ATOM     21  O   UNL     1       2.067   7.110  18.056  0.00  0.00    +0.000 OA
ATOM     22  N   UNL     1       2.253   7.791  20.266  0.00  0.00    +0.000 N 
ATOM     23  H   UNL     1       2.919   7.847  21.027  0.00  0.00    +0.000 HD
BRANCH  20  25
ATOM     24  C   UNL     1       4.471   5.583  18.523  0.00  0.00    +0.000 C 
ATOM     25  C   UNL     1       3.583   5.948  19.470  0.00  0.00    +0.000 C 
BRANCH  24  26
ATOM     26  C   UNL     1       5.501   4.507  18.674  0.00  0.00    +0.000 C 
BRANCH  26  27
ATOM     27  N   UNL     1       4.908   3.252  19.121  0.00  0.00    +0.000 NA
ATOM     28  H   UNL     1       5.637   2.563  19.308  0.00  0.00    +0.000 HD
BRANCH  27  29
ATOM     29  C   UNL     1       3.946   2.706  18.145  0.00  0.00    +0.000 C 
BRANCH  29  30
ATOM     30  C   UNL     1       2.775   1.959  18.782  0.00  0.00    +0.000 C 
BRANCH  30  32
ATOM     31  C   UNL     1       1.024   3.689  20.106  0.00  0.00    +0.000 C 
ATOM     32  S   UNL     1       1.257   2.859  18.555  0.00  0.00    +0.000 S 
ATOM     33  O   UNL     1       0.186   1.895  18.412  0.00  0.00    +0.000 OA
ATOM     34  O   UNL     1       1.483   3.877  17.547  0.00  0.00    +0.000 OA
ENDBRANCH  30  32
ENDBRANCH  29  30
ENDBRANCH  27  29
ENDBRANCH  26  27
ENDBRANCH  24  26
ENDBRANCH  20  25
ENDBRANCH   1  22
TORSDOF 8
ENDMDL
MODEL 5
REMARK VINA RESULT:      -7.3      1.342      1.496
REMARK  Name = 
REMARK  9 active torsions:
REMARK  status: ('A' for Active; 'I' for Inactive)
REMARK    1  A    between atoms: C_1  and  S_2
REMARK    2  A    between atoms: S_2  and  C_5
REMARK    3  A    between atoms: C_5  and  C_6
REMARK    4  A    between atoms: C_6  and  N_7
REMARK    5  A    between atoms: N_7  and  C_8
REMARK    6  A    between atoms: C_8  and  C_9
REMARK    7  A    between atoms: C_10  and  C_11
REMARK    8  A    between atoms: N_13  and  C_14
REMARK    9  A    between atoms: N_18  and  C_19
REMARK                            x       y       z     vdW  Elec       q    Type
REMARK                         _______ _______ _______ _____ _____    ______ ____
ROOT
ATOM      1  C   UNL     1      -0.318  10.800  20.609  0.00  0.00    +0.000 A 
ATOM      2  C   UNL     1       0.263   9.586  20.921  0.00  0.00    +0.000 A 
ATOM      3  C   UNL     1       1.124   9.111  19.863  0.00  0.00    +0.000 A 
ATOM      4  C   UNL     1       1.843   7.913  19.667  0.00  0.00    +0.000 A 
ATOM      5  N   UNL     1       1.812   6.849  20.582  0.00  0.00    +0.000 N 
ATOM      6  N   UNL     1       2.587   7.790  18.545  0.00  0.00    +0.000 NA
ATOM      7  C   UNL     1       2.604   8.792  17.648  0.00  0.00    +0.000 A 
ATOM      8  N   UNL     1       1.923   9.934  17.708  0.00  0.00    +0.000 NA
ATOM      9  C   UNL     1       1.192  10.042  18.830  0.00  0.00    +0.000 A 
ATOM     10  S   UNL     1       0.154  11.380  19.097  0.00  0.00    +0.000 S 
ATOM     11  H   UNL     1       1.382   7.053  21.478  0.00  0.00    +0.000 HD
ENDROOT
BRANCH   5  12
ATOM     12  C   UNL     1       1.962   5.476  20.299  0.00  0.00    +0.000 A 
ATOM     13  C   UNL     1       0.871   4.610  20.458  0.00  0.00    +0.000 A 
ATOM     14  C   UNL     1       1.015   3.234  20.249  0.00  0.00    +0.000 A 
ATOM     15  C   UNL     1       2.253   2.718  19.880  0.00  0.00    +0.000 A 
ATOM     16  F   UNL     1       2.370   1.395  19.686  0.00  0.00    +0.000 F 
ATOM     17  C   UNL     1       3.348   3.559  19.722  0.00  0.00    +0.000 A 
ATOM     18 CL   UNL     1       4.889   2.931  19.277  0.00  0.00    +0.000 Cl
ATOM     19  C   UNL     1       3.202   4.929  19.935  0.00  0.00    +0.000 A 
ENDBRANCH   5  12
BRANCH   1  22
ATOM     20  C   UNL     1      -1.180  11.538  22.720  0.00  0.00    +0.000 C 
ATOM     21  O   UNL     1      -0.413  10.863  23.395  0.00  0.00    +0.000 OA
ATOM     22  N   UNL     1      -1.207  11.572  21.333  0.00  0.00    +0.000 N 
ATOM     23  H   UNL     1      -1.608  12.379  20.870  0.00  0.00    +0.000 HD
BRANCH  20  25
ATOM     24  C   UNL     1      -3.363  12.028  23.761  0.00  0.00    +0.000 C 
ATOM     25  C   UNL     1      -2.158  12.474  23.352  0.00  0.00    +0.000 C 
BRANCH  24  26
ATOM     26  C   UNL     1      -4.451  12.881  24.335  0.00  0.00    +0.000 C 
BRANCH  26  27
ATOM     27  N   UNL     1      -4.258  14.291  24.014  0.00  0.00    +0.000 NA
ATOM     28  H   UNL     1      -4.884  14.871  24.573  0.00  0.00    +0.000 HD
BRANCH  27  29
ATOM     29  C   UNL     1      -4.465  14.573  22.581  0.00  0.00    +0.000 C 
BRANCH  29  30
ATOM     30  C   UNL     1      -5.814  14.096  22.044  0.00  0.00    +0.000 C 
BRANCH  30  32
ATOM     31  C   UNL     1      -6.538  13.422  19.430  0.00  0.00    +0.000 C 
ATOM     32  S   UNL     1      -5.589  12.835  20.810  0.00  0.00    +0.000 S 
ATOM     33  O   UNL     1      -6.224  11.625  21.291  0.00  0.00    +0.000 OA
ATOM     34  O   UNL     1      -4.195  12.837  20.413  0.00  0.00    +0.000 OA
ENDBRANCH  30  32
ENDBRANCH  29  30
ENDBRANCH  27  29
ENDBRANCH  26  27
ENDBRANCH  24  26
ENDBRANCH  20  25
ENDBRANCH   1  22
TORSDOF 8
ENDMDL
MODEL 6
REMARK VINA RESULT:      -7.3      5.761     10.213
REMARK  Name = 
REMARK  9 active torsions:
REMARK  status: ('A' for Active; 'I' for Inactive)
REMARK    1  A    between atoms: C_1  and  S_2
REMARK    2  A    between atoms: S_2  and  C_5
REMARK    3  A    between atoms: C_5  and  C_6
REMARK    4  A    between atoms: C_6  and  N_7
REMARK    5  A    between atoms: N_7  and  C_8
REMARK    6  A    between atoms: C_8  and  C_9
REMARK    7  A    between atoms: C_10  and  C_11
REMARK    8  A    between atoms: N_13  and  C_14
REMARK    9  A    between atoms: N_18  and  C_19
REMARK                            x       y       z     vdW  Elec       q    Type
REMARK                         _______ _______ _______ _____ _____    ______ ____
ROOT
ATOM      1  C   UNL     1       1.439   8.527  19.972  0.00  0.00    +0.000 A 
ATOM      2  C   UNL     1       0.530   9.451  19.493  0.00  0.00    +0.000 A 
ATOM      3  C   UNL     1      -0.122  10.170  20.562  0.00  0.00    +0.000 A 
ATOM      4  C   UNL     1      -1.169  11.118  20.591  0.00  0.00    +0.000 A 
ATOM      5  N   UNL     1      -1.838  11.548  19.434  0.00  0.00    +0.000 N 
ATOM      6  N   UNL     1      -1.539  11.623  21.789  0.00  0.00    +0.000 NA
ATOM      7  C   UNL     1      -0.924  11.200  22.906  0.00  0.00    +0.000 A 
ATOM      8  N   UNL     1       0.030  10.275  22.995  0.00  0.00    +0.000 NA
ATOM      9  C   UNL     1       0.390   9.786  21.798  0.00  0.00    +0.000 A 
ATOM     10  S   UNL     1       1.533   8.517  21.656  0.00  0.00    +0.000 S 
ATOM     11  H   UNL     1      -1.415  11.271  18.554  0.00  0.00    +0.000 HD
ENDROOT
BRANCH   5  12
ATOM     12  C   UNL     1      -3.174  11.984  19.335  0.00  0.00    +0.000 A 
ATOM     13  C   UNL     1      -3.971  11.546  18.267  0.00  0.00    +0.000 A 
ATOM     14  C   UNL     1      -5.279  12.019  18.112  0.00  0.00    +0.000 A 
ATOM     15  C   UNL     1      -5.796  12.934  19.023  0.00  0.00    +0.000 A 
ATOM     16  F   UNL     1      -7.051  13.376  18.855  0.00  0.00    +0.000 F 
ATOM     17  C   UNL     1      -5.020  13.384  20.085  0.00  0.00    +0.000 A 
ATOM     18 CL   UNL     1      -5.643  14.526  21.214  0.00  0.00    +0.000 Cl
ATOM     19  C   UNL     1      -3.716  12.914  20.236  0.00  0.00    +0.000 A 
ENDBRANCH   5  12
BRANCH   1  22
ATOM     20  C   UNL     1       2.688   7.947  18.010  0.00  0.00    +0.000 C 
ATOM     21  O   UNL     1       2.423   8.977  17.402  0.00  0.00    +0.000 OA
ATOM     22  N   UNL     1       2.245   7.637  19.288  0.00  0.00    +0.000 N 
ATOM     23  H   UNL     1       2.766   6.963  19.836  0.00  0.00    +0.000 HD
BRANCH  20  25
ATOM     24  C   UNL     1       4.344   6.133  18.241  0.00  0.00    +0.000 C 
ATOM     25  C   UNL     1       3.599   6.913  17.433  0.00  0.00    +0.000 C 
BRANCH  24  26
ATOM     26  C   UNL     1       5.346   5.119  17.781  0.00  0.00    +0.000 C 
BRANCH  26  27
ATOM     27  N   UNL     1       5.097   3.809  18.372  0.00  0.00    +0.000 NA
ATOM     28  H   UNL     1       5.360   3.070  17.720  0.00  0.00    +0.000 HD
BRANCH  27  29
ATOM     29  C   UNL     1       3.690   3.635  18.779  0.00  0.00    +0.000 C 
BRANCH  29  30
ATOM     30  C   UNL     1       3.518   2.925  20.122  0.00  0.00    +0.000 C 
BRANCH  30  32
ATOM     31  C   UNL     1       0.737   3.152  19.943  0.00  0.00    +0.000 C 
ATOM     32  S   UNL     1       2.106   3.565  20.995  0.00  0.00    +0.000 S 
ATOM     33  O   UNL     1       2.216   5.010  21.018  0.00  0.00    +0.000 OA
ATOM     34  O   UNL     1       1.955   2.810  22.223  0.00  0.00    +0.000 OA
ENDBRANCH  30  32
ENDBRANCH  29  30
ENDBRANCH  27  29
ENDBRANCH  26  27
ENDBRANCH  24  26
ENDBRANCH  20  25
ENDBRANCH   1  22
TORSDOF 8
ENDMDL
MODEL 7
REMARK VINA RESULT:      -7.3      1.165      1.229
REMARK  Name = 
REMARK  9 active torsions:
REMARK  status: ('A' for Active; 'I' for Inactive)
REMARK    1  A    between atoms: C_1  and  S_2
REMARK    2  A    between atoms: S_2  and  C_5
REMARK    3  A    between atoms: C_5  and  C_6
REMARK    4  A    between atoms: C_6  and  N_7
REMARK    5  A    between atoms: N_7  and  C_8
REMARK    6  A    between atoms: C_8  and  C_9
REMARK    7  A    between atoms: C_10  and  C_11
REMARK    8  A    between atoms: N_13  and  C_14
REMARK    9  A    between atoms: N_18  and  C_19
REMARK                            x       y       z     vdW  Elec       q    Type
REMARK                         _______ _______ _______ _____ _____    ______ ____
ROOT
ATOM      1  C   UNL     1      -0.434  10.642  20.784  0.00  0.00    +0.000 A 
ATOM      2  C   UNL     1       0.209   9.447  21.042  0.00  0.00    +0.000 A 
ATOM      3  C   UNL     1       1.063   9.047  19.949  0.00  0.00    +0.000 A 
ATOM      4  C   UNL     1       1.831   7.890  19.695  0.00  0.00    +0.000 A 
ATOM      5  N   UNL     1       1.872   6.797  20.575  0.00  0.00    +0.000 N 
ATOM      6  N   UNL     1       2.552   7.839  18.552  0.00  0.00    +0.000 NA
ATOM      7  C   UNL     1       2.501   8.869  17.690  0.00  0.00    +0.000 A 
ATOM      8  N   UNL     1       1.770   9.975  17.804  0.00  0.00    +0.000 NA
ATOM      9  C   UNL     1       1.064  10.014  18.946  0.00  0.00    +0.000 A 
ATOM     10  S   UNL     1      -0.027  11.292  19.282  0.00  0.00    +0.000 S 
ATOM     11  H   UNL     1       1.456   6.952  21.487  0.00  0.00    +0.000 HD
ENDROOT
BRANCH   5  12
ATOM     12  C   UNL     1       2.077   5.443  20.243  0.00  0.00    +0.000 A 
ATOM     13  C   UNL     1       2.236   4.493  21.262  0.00  0.00    +0.000 A 
ATOM     14  C   UNL     1       2.509   3.155  20.954  0.00  0.00    +0.000 A 
ATOM     15  C   UNL     1       2.623   2.761  19.625  0.00  0.00    +0.000 A 
ATOM     16  F   UNL     1       2.886   1.474  19.353  0.00  0.00    +0.000 F 
ATOM     17  C   UNL     1       2.473   3.688  18.601  0.00  0.00    +0.000 A 
ATOM     18 CL   UNL     1       2.625   3.217  16.952  0.00  0.00    +0.000 Cl
ATOM     19  C   UNL     1       2.206   5.021  18.910  0.00  0.00    +0.000 A 
ENDBRANCH   5  12
BRANCH   1  22
ATOM     20  C   UNL     1      -0.929  12.491  22.228  0.00  0.00    +0.000 C 
ATOM     21  O   UNL     1       0.204  12.954  22.206  0.00  0.00    +0.000 OA
ATOM     22  N   UNL     1      -1.339  11.348  21.555  0.00  0.00    +0.000 N 
ATOM     23  H   UNL     1      -2.323  11.231  21.344  0.00  0.00    +0.000 HD
BRANCH  20  25
ATOM     24  C   UNL     1      -2.882  12.462  23.736  0.00  0.00    +0.000 C 
ATOM     25  C   UNL     1      -2.037  13.172  22.963  0.00  0.00    +0.000 C 
BRANCH  24  26
ATOM     26  C   UNL     1      -4.070  13.018  24.457  0.00  0.00    +0.000 C 
BRANCH  26  27
ATOM     27  N   UNL     1      -5.117  12.017  24.624  0.00  0.00    +0.000 NA
ATOM     28  H   UNL     1      -4.828  11.129  24.213  0.00  0.00    +0.000 HD
BRANCH  27  29
ATOM     29  C   UNL     1      -6.401  12.442  24.036  0.00  0.00    +0.000 C 
BRANCH  29  30
ATOM     30  C   UNL     1      -6.364  13.838  23.413  0.00  0.00    +0.000 C 
BRANCH  30  32
ATOM     31  C   UNL     1      -5.024  14.459  21.040  0.00  0.00    +0.000 C 
ATOM     32  S   UNL     1      -6.531  13.742  21.645  0.00  0.00    +0.000 S 
ATOM     33  O   UNL     1      -7.617  14.617  21.253  0.00  0.00    +0.000 OA
ATOM     34  O   UNL     1      -6.529  12.342  21.267  0.00  0.00    +0.000 OA
ENDBRANCH  30  32
ENDBRANCH  29  30
ENDBRANCH  27  29
ENDBRANCH  26  27
ENDBRANCH  24  26
ENDBRANCH  20  25
ENDBRANCH   1  22
TORSDOF 8
ENDMDL
MODEL 8
REMARK VINA RESULT:      -7.2      1.174      1.257
REMARK  Name = 
REMARK  9 active torsions:
REMARK  status: ('A' for Active; 'I' for Inactive)
REMARK    1  A    between atoms: C_1  and  S_2
REMARK    2  A    between atoms: S_2  and  C_5
REMARK    3  A    between atoms: C_5  and  C_6
REMARK    4  A    between atoms: C_6  and  N_7
REMARK    5  A    between atoms: N_7  and  C_8
REMARK    6  A    between atoms: C_8  and  C_9
REMARK    7  A    between atoms: C_10  and  C_11
REMARK    8  A    between atoms: N_13  and  C_14
REMARK    9  A    between atoms: N_18  and  C_19
REMARK                            x       y       z     vdW  Elec       q    Type
REMARK                         _______ _______ _______ _____ _____    ______ ____
ROOT
ATOM      1  C   UNL     1      -0.146  10.572  21.000  0.00  0.00    +0.000 A 
ATOM      2  C   UNL     1       0.423   9.334  21.229  0.00  0.00    +0.000 A 
ATOM      3  C   UNL     1       1.169   8.862  20.086  0.00  0.00    +0.000 A 
ATOM      4  C   UNL     1       1.830   7.649  19.797  0.00  0.00    +0.000 A 
ATOM      5  N   UNL     1       1.849   6.563  20.686  0.00  0.00    +0.000 N 
ATOM      6  N   UNL     1       2.464   7.535  18.609  0.00  0.00    +0.000 NA
ATOM      7  C   UNL     1       2.430   8.558  17.738  0.00  0.00    +0.000 A 
ATOM      8  N   UNL     1       1.793   9.717  17.887  0.00  0.00    +0.000 NA
ATOM      9  C   UNL     1       1.172   9.817  19.073  0.00  0.00    +0.000 A 
ATOM     10  S   UNL     1       0.204  11.177  19.465  0.00  0.00    +0.000 S 
ATOM     11  H   UNL     1       1.509   6.757  21.623  0.00  0.00    +0.000 HD
ENDROOT
BRANCH   5  12
ATOM     12  C   UNL     1       1.930   5.195  20.359  0.00  0.00    +0.000 A 
ATOM     13  C   UNL     1       0.755   4.460  20.145  0.00  0.00    +0.000 A 
ATOM     14  C   UNL     1       0.809   3.086  19.886  0.00  0.00    +0.000 A 
ATOM     15  C   UNL     1       2.040   2.439  19.842  0.00  0.00    +0.000 A 
ATOM     16  F   UNL     1       2.069   1.121  19.594  0.00  0.00    +0.000 F 
ATOM     17  C   UNL     1       3.216   3.149  20.057  0.00  0.00    +0.000 A 
ATOM     18 CL   UNL     1       4.745   2.359  20.017  0.00  0.00    +0.000 Cl
ATOM     19  C   UNL     1       3.158   4.517  20.318  0.00  0.00    +0.000 A 
ENDBRANCH   5  12
BRANCH   1  22
ATOM     20  C   UNL     1      -0.482  12.585  22.257  0.00  0.00    +0.000 C 
ATOM     21  O   UNL     1       0.604  13.074  21.974  0.00  0.00    +0.000 OA
ATOM     22  N   UNL     1      -0.941  11.350  21.820  0.00  0.00    +0.000 N 
ATOM     23  H   UNL     1      -1.939  11.176  21.805  0.00  0.00    +0.000 HD
BRANCH  20  25
ATOM     24  C   UNL     1      -1.913  14.547  22.698  0.00  0.00    +0.000 C 
ATOM     25  C   UNL     1      -1.482  13.329  23.082  0.00  0.00    +0.000 C 
BRANCH  24  26
ATOM     26  C   UNL     1      -2.849  15.418  23.476  0.00  0.00    +0.000 C 
BRANCH  26  27
ATOM     27  N   UNL     1      -4.222  15.293  23.000  0.00  0.00    +0.000 NA
ATOM     28  H   UNL     1      -4.723  16.173  23.126  0.00  0.00    +0.000 HD
BRANCH  27  29
ATOM     29  C   UNL     1      -4.954  14.205  23.674  0.00  0.00    +0.000 C 
BRANCH  29  30
ATOM     30  C   UNL     1      -5.551  13.174  22.717  0.00  0.00    +0.000 C 
BRANCH  30  32
ATOM     31  C   UNL     1      -7.913  11.983  21.812  0.00  0.00    +0.000 C 
ATOM     32  S   UNL     1      -7.162  12.661  23.271  0.00  0.00    +0.000 S 
ATOM     33  O   UNL     1      -7.907  13.850  23.630  0.00  0.00    +0.000 OA
ATOM     34  O   UNL     1      -6.989  11.576  24.217  0.00  0.00    +0.000 OA
ENDBRANCH  30  32
ENDBRANCH  29  30
ENDBRANCH  27  29
ENDBRANCH  26  27
ENDBRANCH  24  26
ENDBRANCH  20  25
ENDBRANCH   1  22
TORSDOF 8
ENDMDL
MODEL 9
REMARK VINA RESULT:      -7.2      1.144      1.248
REMARK  Name = 
REMARK  9 active torsions:
REMARK  status: ('A' for Active; 'I' for Inactive)
REMARK    1  A    between atoms: C_1  and  S_2
REMARK    2  A    between atoms: S_2  and  C_5
REMARK    3  A    between atoms: C_5  and  C_6
REMARK    4  A    between atoms: C_6  and  N_7
REMARK    5  A    between atoms: N_7  and  C_8
REMARK    6  A    between atoms: C_8  and  C_9
REMARK    7  A    between atoms: C_10  and  C_11
REMARK    8  A    between atoms: N_13  and  C_14
REMARK    9  A    between atoms: N_18  and  C_19
REMARK                            x       y       z     vdW  Elec       q    Type
REMARK                         _______ _______ _______ _____ _____    ______ ____
ROOT
ATOM      1  C   UNL     1       0.055  10.501  21.666  0.00  0.00    +0.000 A 
ATOM      2  C   UNL     1       0.625   9.245  21.753  0.00  0.00    +0.000 A 
ATOM      3  C   UNL     1       1.239   8.845  20.509  0.00  0.00    +0.000 A 
ATOM      4  C   UNL     1       1.847   7.648  20.072  0.00  0.00    +0.000 A 
ATOM      5  N   UNL     1       1.942   6.505  20.881  0.00  0.00    +0.000 N 
ATOM      6  N   UNL     1       2.352   7.608  18.819  0.00  0.00    +0.000 NA
ATOM      7  C   UNL     1       2.244   8.688  18.026  0.00  0.00    +0.000 A 
ATOM      8  N   UNL     1       1.645   9.840  18.317  0.00  0.00    +0.000 NA
ATOM      9  C   UNL     1       1.152   9.866  19.566  0.00  0.00    +0.000 A 
ATOM     10  S   UNL     1       0.253  11.205  20.146  0.00  0.00    +0.000 S 
ATOM     11  H   UNL     1       1.704   6.638  21.858  0.00  0.00    +0.000 HD
ENDROOT
BRANCH   5  12
ATOM     12  C   UNL     1       1.966   5.161  20.457  0.00  0.00    +0.000 A 
ATOM     13  C   UNL     1       0.760   4.478  20.241  0.00  0.00    +0.000 A 
ATOM     14  C   UNL     1       0.761   3.124  19.887  0.00  0.00    +0.000 A 
ATOM     15  C   UNL     1       1.968   2.447  19.747  0.00  0.00    +0.000 A 
ATOM     16  F   UNL     1       1.945   1.149  19.409  0.00  0.00    +0.000 F 
ATOM     17  C   UNL     1       3.173   3.105  19.962  0.00  0.00    +0.000 A 
ATOM     18 CL   UNL     1       4.674   2.275  19.805  0.00  0.00    +0.000 Cl
ATOM     19  C   UNL     1       3.169   4.452  20.319  0.00  0.00    +0.000 A 
ENDBRANCH   5  12
BRANCH   1  22
ATOM     20  C   UNL     1      -1.753  11.966  22.242  0.00  0.00    +0.000 C 
ATOM     21  O   UNL     1      -2.204  12.037  21.105  0.00  0.00    +0.000 OA
ATOM     22  N   UNL     1      -0.638  11.230  22.615  0.00  0.00    +0.000 N 
ATOM     23  H   UNL     1      -0.539  10.948  23.584  0.00  0.00    +0.000 HD
BRANCH  20  25
ATOM     24  C   UNL     1      -3.605  12.190  23.857  0.00  0.00    +0.000 C 
ATOM     25  C   UNL     1      -2.425  12.645  23.391  0.00  0.00    +0.000 C 
BRANCH  24  26
ATOM     26  C   UNL     1      -4.408  12.828  24.948  0.00  0.00    +0.000 C 
BRANCH  26  27
ATOM     27  N   UNL     1      -5.772  13.114  24.516  0.00  0.00    +0.000 NA
ATOM     28  H   UNL     1      -6.421  12.437  24.917  0.00  0.00    +0.000 HD
BRANCH  27  29
ATOM     29  C   UNL     1      -5.906  13.122  23.047  0.00  0.00    +0.000 C 
BRANCH  29  30
ATOM     30  C   UNL     1      -7.167  12.425  22.537  0.00  0.00    +0.000 C 
BRANCH  30  32
ATOM     31  C   UNL     1      -7.720  13.516  20.023  0.00  0.00    +0.000 C 
ATOM     32  S   UNL     1      -7.031  12.075  20.798  0.00  0.00    +0.000 S 
ATOM     33  O   UNL     1      -7.907  10.960  20.499  0.00  0.00    +0.000 OA
ATOM     34  O   UNL     1      -5.623  12.029  20.456  0.00  0.00    +0.000 OA
ENDBRANCH  30  32
ENDBRANCH  29  30
ENDBRANCH  27  29
ENDBRANCH  26  27
ENDBRANCH  24  26
ENDBRANCH  20  25
ENDBRANCH   1  22
TORSDOF 8
ENDMDL
