MODEL 1
REMARK VINA RESULT:      -9.4      0.000      0.000
REMARK  Name = 
REMARK  7 active torsions:
REMARK  status: ('A' for Active; 'I' for Inactive)
REMARK    1  A    between atoms: C_1  and  C_2
REMARK    2  A    between atoms: N_8  and  C_9
REMARK    3  A    between atoms: C_9  and  C_10
REMARK    4  A    between atoms: C_18  and  C_19
REMARK    5  A    between atoms: C_19  and  N_20
REMARK    6  A    between atoms: C_21  and  C_23
REMARK    7  A    between atoms: C_23  and  C_24
REMARK                            x       y       z     vdW  Elec       q    Type
REMARK                         _______ _______ _______ _____ _____    ______ ____
ROOT
ATOM      1  C   UNL     1       8.680   5.882  13.115  0.00  0.00    +0.000 C 
ATOM      2  C   UNL     1       7.464   5.081  13.508  0.00  0.00    +0.000 A 
ATOM      3  C   UNL     1       6.806   4.318  12.528  0.00  0.00    +0.000 A 
ATOM      4  C   UNL     1       5.702   3.553  12.864  0.00  0.00    +0.000 A 
ATOM      5  C   UNL     1       5.269   3.530  14.186  0.00  0.00    +0.000 A 
ATOM      6  C   UNL     1       5.932   4.280  15.192  0.00  0.00    +0.000 A 
ATOM      7  C   UNL     1       5.592   4.265  16.562  0.00  0.00    +0.000 A 
ATOM      8  N   UNL     1       4.532   3.433  16.988  0.00  0.00    +0.000 N 
ATOM      9  N   UNL     1       6.194   5.069  17.459  0.00  0.00    +0.000 NA
ATOM     10  C   UNL     1       7.193   5.851  17.007  0.00  0.00    +0.000 A 
ATOM     11  N   UNL     1       7.635   5.866  15.738  0.00  0.00    +0.000 NA
ATOM     12  C   UNL     1       7.019   5.092  14.838  0.00  0.00    +0.000 A 
ATOM     13  H   UNL     1       4.557   2.569  16.456  0.00  0.00    +0.000 HD
ENDROOT
BRANCH   8  14
ATOM     14  C   UNL     1       4.517   3.086  18.407  0.00  0.00    +0.000 C 
BRANCH  14  15
ATOM     15  C   UNL     1       3.086   3.180  18.888  0.00  0.00    +0.000 A 
ATOM     16  C   UNL     1       2.121   2.266  18.432  0.00  0.00    +0.000 A 
ATOM     17  C   UNL     1       0.811   2.312  18.918  0.00  0.00    +0.000 A 
ATOM     18  C   UNL     1       0.446   3.270  19.862  0.00  0.00    +0.000 A 
ATOM     19  C   UNL     1       1.393   4.187  20.318  0.00  0.00    +0.000 A 
ATOM     20  C   UNL     1       2.698   4.135  19.831  0.00  0.00    +0.000 A 
ATOM     21  F   UNL     1       3.593   5.014  20.303  0.00  0.00    +0.000 F 
ENDBRANCH  14  15
ENDBRANCH   8  14
BRANCH  10  22
ATOM     22  C   UNL     1       7.814   6.860  17.952  0.00  0.00    +0.000 C 
BRANCH  22  23
ATOM     23  N   UNL     1       7.764   8.226  17.442  0.00  0.00    +0.000 N 
ATOM     24  C   UNL     1       8.337   9.270  18.127  0.00  0.00    +0.000 C 
ATOM     25  O   UNL     1       8.986   9.116  19.159  0.00  0.00    +0.000 OA
ATOM     26  H   UNL     1       7.257   8.391  16.581  0.00  0.00    +0.000 HD
BRANCH  24  27
ATOM     27  C   UNL     1       8.101  10.646  17.529  0.00  0.00    +0.000 C 
BRANCH  27  28
ATOM     28  C   UNL     1       9.142  11.686  17.850  0.00  0.00    +0.000 A 
ATOM     29  C   UNL     1      10.501  11.384  17.698  0.00  0.00    +0.000 A 
ATOM     30  C   UNL     1      11.465  12.360  17.936  0.00  0.00    +0.000 A 
ATOM     31  C   UNL     1      11.038  13.620  18.313  0.00  0.00    +0.000 A 
ATOM     32  N   UNL     1       9.740  13.958  18.453  0.00  0.00    +0.000 NA
ATOM     33  C   UNL     1       8.823  12.991  18.210  0.00  0.00    +0.000 A 
ENDBRANCH  27  28
ENDBRANCH  24  27
ENDBRANCH  22  23
ENDBRANCH  10  22
TORSDOF 6
ENDMDL
MODEL 2
REMARK VINA RESULT:      -9.4      0.866      1.236
REMARK  Name = 
REMARK  7 active torsions:
REMARK  status: ('A' for Active; 'I' for Inactive)
REMARK    1  A    between atoms: C_1  and  C_2
REMARK    2  A    between atoms: N_8  and  C_9
REMARK    3  A    between atoms: C_9  and  C_10
REMARK    4  A    between atoms: C_18  and  C_19
REMARK    5  A    between atoms: C_19  and  N_20
REMARK    6  A    between atoms: C_21  and  C_23
REMARK    7  A    between atoms: C_23  and  C_24
REMARK                            x       y       z     vdW  Elec       q    Type
REMARK                         _______ _______ _______ _____ _____    ______ ____
ROOT
ATOM      1  C   UNL     1       8.550   5.924  13.286  0.00  0.00    +0.000 C 
ATOM      2  C   UNL     1       7.368   5.109  13.747  0.00  0.00    +0.000 A 
ATOM      3  C   UNL     1       6.687   4.312  12.812  0.00  0.00    +0.000 A 
ATOM      4  C   UNL     1       5.613   3.532  13.211  0.00  0.00    +0.000 A 
ATOM      5  C   UNL     1       5.236   3.531  14.550  0.00  0.00    +0.000 A 
ATOM      6  C   UNL     1       5.924   4.317  15.511  0.00  0.00    +0.000 A 
ATOM      7  C   UNL     1       5.642   4.326  16.894  0.00  0.00    +0.000 A 
ATOM      8  N   UNL     1       4.617   3.483  17.382  0.00  0.00    +0.000 N 
ATOM      9  N   UNL     1       6.263   5.162  17.747  0.00  0.00    +0.000 NA
ATOM     10  C   UNL     1       7.227   5.952  17.237  0.00  0.00    +0.000 A 
ATOM     11  N   UNL     1       7.616   5.948  15.950  0.00  0.00    +0.000 NA
ATOM     12  C   UNL     1       6.978   5.142  15.095  0.00  0.00    +0.000 A 
ATOM     13  H   UNL     1       4.638   2.608  16.868  0.00  0.00    +0.000 HD
ENDROOT
BRANCH   8  14
ATOM     14  C   UNL     1       4.668   3.169  18.808  0.00  0.00    +0.000 C 
BRANCH  14  15
ATOM     15  C   UNL     1       3.320   3.513  19.402  0.00  0.00    +0.000 A 
ATOM     16  C   UNL     1       3.140   4.713  20.110  0.00  0.00    +0.000 A 
ATOM     17  C   UNL     1       1.883   5.063  20.611  0.00  0.00    +0.000 A 
ATOM     18  C   UNL     1       0.790   4.220  20.414  0.00  0.00    +0.000 A 
ATOM     19  C   UNL     1       0.957   3.023  19.718  0.00  0.00    +0.000 A 
ATOM     20  C   UNL     1       2.213   2.680  19.220  0.00  0.00    +0.000 A 
ATOM     21  F   UNL     1       2.339   1.535  18.537  0.00  0.00    +0.000 F 
ENDBRANCH  14  15
ENDBRANCH   8  14
BRANCH  10  22
ATOM     22  C   UNL     1       7.866   6.995  18.133  0.00  0.00    +0.000 C 
BRANCH  22  23
ATOM     23  N   UNL     1       7.901   8.323  17.529  0.00  0.00    +0.000 N 
ATOM     24  C   UNL     1       8.446   9.397  18.189  0.00  0.00    +0.000 C 
ATOM     25  O   UNL     1       8.999   9.300  19.282  0.00  0.00    +0.000 OA
ATOM     26  H   UNL     1       7.474   8.439  16.618  0.00  0.00    +0.000 HD
BRANCH  24  27
ATOM     27  C   UNL     1       8.304  10.733  17.481  0.00  0.00    +0.000 C 
BRANCH  27  28
ATOM     28  C   UNL     1       9.240  11.819  17.940  0.00  0.00    +0.000 A 
ATOM     29  C   UNL     1      10.590  11.782  17.568  0.00  0.00    +0.000 A 
ATOM     30  C   UNL     1      11.446  12.815  17.939  0.00  0.00    +0.000 A 
ATOM     31  C   UNL     1      10.922  13.865  18.670  0.00  0.00    +0.000 A 
ATOM     32  N   UNL     1       9.627  13.950  19.033  0.00  0.00    +0.000 NA
ATOM     33  C   UNL     1       8.814  12.935  18.654  0.00  0.00    +0.000 A 
ENDBRANCH  27  28
ENDBRANCH  24  27
ENDBRANCH  22  23
ENDBRANCH  10  22
TORSDOF 6
ENDMDL
MODEL 3
REMARK VINA RESULT:      -8.8      4.985      8.363
REMARK  Name = 
REMARK  7 active torsions:
REMARK  status: ('A' for Active; 'I' for Inactive)
REMARK    1  A    between atoms: C_1  and  C_2
REMARK    2  A    between atoms: N_8  and  C_9
REMARK    3  A    between atoms: C_9  and  C_10
REMARK    4  A    between atoms: C_18  and  C_19
REMARK    5  A    between atoms: C_19  and  N_20
REMARK    6  A    between atoms: C_21  and  C_23
REMARK    7  A    between atoms: C_23  and  C_24
REMARK                            x       y       z     vdW  Elec       q    Type
REMARK                         _______ _______ _______ _____ _____    ______ ____
ROOT
ATOM      1  C   UNL     1       1.083   4.512  20.443  0.00  0.00    +0.000 C 
ATOM      2  C   UNL     1       2.295   4.047  19.674  0.00  0.00    +0.000 A 
ATOM      3  C   UNL     1       2.710   2.711  19.803  0.00  0.00    +0.000 A 
ATOM      4  C   UNL     1       3.804   2.249  19.090  0.00  0.00    +0.000 A 
ATOM      5  C   UNL     1       4.469   3.115  18.229  0.00  0.00    +0.000 A 
ATOM      6  C   UNL     1       4.052   4.463  18.073  0.00  0.00    +0.000 A 
ATOM      7  C   UNL     1       4.635   5.387  17.179  0.00  0.00    +0.000 A 
ATOM      8  N   UNL     1       5.698   4.954  16.354  0.00  0.00    +0.000 N 
ATOM      9  N   UNL     1       4.262   6.681  17.140  0.00  0.00    +0.000 NA
ATOM     10  C   UNL     1       3.251   7.051  17.950  0.00  0.00    +0.000 A 
ATOM     11  N   UNL     1       2.586   6.218  18.770  0.00  0.00    +0.000 NA
ATOM     12  C   UNL     1       2.975   4.941  18.833  0.00  0.00    +0.000 A 
ATOM     13  H   UNL     1       5.518   3.999  16.061  0.00  0.00    +0.000 HD
ENDROOT
BRANCH   8  14
ATOM     14  C   UNL     1       5.949   5.752  15.156  0.00  0.00    +0.000 C 
BRANCH  14  15
ATOM     15  C   UNL     1       6.103   4.799  13.993  0.00  0.00    +0.000 A 
ATOM     16  C   UNL     1       5.070   3.905  13.663  0.00  0.00    +0.000 A 
ATOM     17  C   UNL     1       5.183   3.062  12.554  0.00  0.00    +0.000 A 
ATOM     18  C   UNL     1       6.329   3.099  11.760  0.00  0.00    +0.000 A 
ATOM     19  C   UNL     1       7.363   3.978  12.079  0.00  0.00    +0.000 A 
ATOM     20  C   UNL     1       7.243   4.817  13.186  0.00  0.00    +0.000 A 
ATOM     21  F   UNL     1       8.244   5.666  13.456  0.00  0.00    +0.000 F 
ENDBRANCH  14  15
ENDBRANCH   8  14
BRANCH  10  22
ATOM     22  C   UNL     1       2.881   8.518  18.031  0.00  0.00    +0.000 C 
BRANCH  22  23
ATOM     23  N   UNL     1       1.514   8.738  18.492  0.00  0.00    +0.000 N 
ATOM     24  C   UNL     1       1.022  10.004  18.700  0.00  0.00    +0.000 C 
ATOM     25  O   UNL     1       1.663  11.021  18.444  0.00  0.00    +0.000 OA
ATOM     26  H   UNL     1       0.946   7.925  18.693  0.00  0.00    +0.000 HD
BRANCH  24  27
ATOM     27  C   UNL     1      -0.376  10.067  19.290  0.00  0.00    +0.000 C 
BRANCH  27  28
ATOM     28  C   UNL     1      -1.473  10.452  18.332  0.00  0.00    +0.000 A 
ATOM     29  C   UNL     1      -1.656   9.723  17.150  0.00  0.00    +0.000 A 
ATOM     30  C   UNL     1      -2.706  10.037  16.291  0.00  0.00    +0.000 A 
ATOM     31  C   UNL     1      -3.551  11.073  16.646  0.00  0.00    +0.000 A 
ATOM     32  N   UNL     1      -3.421  11.787  17.782  0.00  0.00    +0.000 NA
ATOM     33  C   UNL     1      -2.396  11.458  18.602  0.00  0.00    +0.000 A 
ENDBRANCH  27  28
ENDBRANCH  24  27
ENDBRANCH  22  23
ENDBRANCH  10  22
TORSDOF 6
ENDMDL
MODEL 4
REMARK VINA RESULT:      -8.7      4.729      7.916
REMARK  Name = 
REMARK  7 active torsions:
REMARK  status: ('A' for Active; 'I' for Inactive)
REMARK    1  A    between atoms: C_1  and  C_2
REMARK    2  A    between atoms: N_8  and  C_9
REMARK    3  A    between atoms: C_9  and  C_10
REMARK    4  A    between atoms: C_18  and  C_19
REMARK    5  A    between atoms: C_19  and  N_20
REMARK    6  A    between atoms: C_21  and  C_23
REMARK    7  A    between atoms: C_23  and  C_24
REMARK                            x       y       z     vdW  Elec       q    Type
REMARK                         _______ _______ _______ _____ _____    ______ ____
ROOT
ATOM      1  C   UNL     1       0.955   4.175  20.478  0.00  0.00    +0.000 C 
ATOM      2  C   UNL     1       2.002   3.622  19.543  0.00  0.00    +0.000 A 
ATOM      3  C   UNL     1       2.195   2.231  19.485  0.00  0.00    +0.000 A 
ATOM      4  C   UNL     1       3.131   1.693  18.618  0.00  0.00    +0.000 A 
ATOM      5  C   UNL     1       3.857   2.542  17.790  0.00  0.00    +0.000 A 
ATOM      6  C   UNL     1       3.663   3.948  17.823  0.00  0.00    +0.000 A 
ATOM      7  C   UNL     1       4.315   4.870  16.976  0.00  0.00    +0.000 A 
ATOM      8  N   UNL     1       5.216   4.378  16.004  0.00  0.00    +0.000 N 
ATOM      9  N   UNL     1       4.164   6.201  17.114  0.00  0.00    +0.000 NA
ATOM     10  C   UNL     1       3.302   6.625  18.058  0.00  0.00    +0.000 A 
ATOM     11  N   UNL     1       2.578   5.814  18.849  0.00  0.00    +0.000 NA
ATOM     12  C   UNL     1       2.750   4.493  18.736  0.00  0.00    +0.000 A 
ATOM     13  H   UNL     1       4.854   3.506  15.632  0.00  0.00    +0.000 HD
ENDROOT
BRANCH   8  14
ATOM     14  C   UNL     1       5.496   5.267  14.879  0.00  0.00    +0.000 C 
BRANCH  14  15
ATOM     15  C   UNL     1       5.883   4.405  13.699  0.00  0.00    +0.000 A 
ATOM     16  C   UNL     1       4.960   3.505  13.141  0.00  0.00    +0.000 A 
ATOM     17  C   UNL     1       5.292   2.749  12.014  0.00  0.00    +0.000 A 
ATOM     18  C   UNL     1       6.552   2.878  11.429  0.00  0.00    +0.000 A 
ATOM     19  C   UNL     1       7.480   3.764  11.976  0.00  0.00    +0.000 A 
ATOM     20  C   UNL     1       7.141   4.516  13.100  0.00  0.00    +0.000 A 
ATOM     21  F   UNL     1       8.045   5.375  13.591  0.00  0.00    +0.000 F 
ENDBRANCH  14  15
ENDBRANCH   8  14
BRANCH  10  22
ATOM     22  C   UNL     1       3.193   8.111  18.333  0.00  0.00    +0.000 C 
BRANCH  22  23
ATOM     23  N   UNL     1       1.838   8.532  18.673  0.00  0.00    +0.000 N 
ATOM     24  C   UNL     1       1.378   9.790  18.366  0.00  0.00    +0.000 C 
ATOM     25  O   UNL     1       2.039  10.606  17.728  0.00  0.00    +0.000 OA
ATOM     26  H   UNL     1       1.253   7.879  19.180  0.00  0.00    +0.000 HD
BRANCH  24  27
ATOM     27  C   UNL     1      -0.011  10.117  18.887  0.00  0.00    +0.000 C 
BRANCH  27  28
ATOM     28  C   UNL     1      -0.166  10.103  20.385  0.00  0.00    +0.000 A 
ATOM     29  C   UNL     1      -0.352   8.889  21.057  0.00  0.00    +0.000 A 
ATOM     30  C   UNL     1      -0.436   8.865  22.447  0.00  0.00    +0.000 A 
ATOM     31  C   UNL     1      -0.322  10.063  23.128  0.00  0.00    +0.000 A 
ATOM     32  N   UNL     1      -0.124  11.251  22.522  0.00  0.00    +0.000 NA
ATOM     33  C   UNL     1      -0.041  11.245  21.170  0.00  0.00    +0.000 A 
ENDBRANCH  27  28
ENDBRANCH  24  27
ENDBRANCH  22  23
ENDBRANCH  10  22
TORSDOF 6
ENDMDL
MODEL 5
REMARK VINA RESULT:      -8.7      4.767      7.972
REMARK  Name = 
REMARK  7 active torsions:
REMARK  status: ('A' for Active; 'I' for Inactive)
REMARK    1  A    between atoms: C_1  and  C_2
REMARK    2  A    between atoms: N_8  and  C_9
REMARK    3  A    between atoms: C_9  and  C_10
REMARK    4  A    between atoms: C_18  and  C_19
REMARK    5  A    between atoms: C_19  and  N_20
REMARK    6  A    between atoms: C_21  and  C_23
REMARK    7  A    between atoms: C_23  and  C_24
REMARK                            x       y       z     vdW  Elec       q    Type
REMARK                         _______ _______ _______ _____ _____    ______ ____
ROOT
ATOM      1  C   UNL     1       0.744   3.898  20.113  0.00  0.00    +0.000 C 
ATOM      2  C   UNL     1       1.920   3.427  19.295  0.00  0.00    +0.000 A 
ATOM      3  C   UNL     1       2.188   2.050  19.220  0.00  0.00    +0.000 A 
ATOM      4  C   UNL     1       3.246   1.586  18.455  0.00  0.00    +0.000 A 
ATOM      5  C   UNL     1       4.022   2.497  17.746  0.00  0.00    +0.000 A 
ATOM      6  C   UNL     1       3.755   3.890  17.797  0.00  0.00    +0.000 A 
ATOM      7  C   UNL     1       4.456   4.871  17.063  0.00  0.00    +0.000 A 
ATOM      8  N   UNL     1       5.490   4.456  16.192  0.00  0.00    +0.000 N 
ATOM      9  N   UNL     1       4.224   6.188  17.221  0.00  0.00    +0.000 NA
ATOM     10  C   UNL     1       3.235   6.537  18.067  0.00  0.00    +0.000 A 
ATOM     11  N   UNL     1       2.464   5.667  18.741  0.00  0.00    +0.000 NA
ATOM     12  C   UNL     1       2.714   4.360  18.610  0.00  0.00    +0.000 A 
ATOM     13  H   UNL     1       5.219   3.582  15.753  0.00  0.00    +0.000 HD
ENDROOT
BRANCH   8  14
ATOM     14  C   UNL     1       5.857   5.396  15.136  0.00  0.00    +0.000 C 
BRANCH  14  15
ATOM     15  C   UNL     1       6.126   4.595  13.882  0.00  0.00    +0.000 A 
ATOM     16  C   UNL     1       5.179   3.671  13.410  0.00  0.00    +0.000 A 
ATOM     17  C   UNL     1       5.397   2.971  12.220  0.00  0.00    +0.000 A 
ATOM     18  C   UNL     1       6.564   3.182  11.486  0.00  0.00    +0.000 A 
ATOM     19  C   UNL     1       7.515   4.092  11.947  0.00  0.00    +0.000 A 
ATOM     20  C   UNL     1       7.290   4.788  13.134  0.00  0.00    +0.000 A 
ATOM     21  F   UNL     1       8.212   5.672  13.541  0.00  0.00    +0.000 F 
ENDBRANCH  14  15
ENDBRANCH   8  14
BRANCH  10  22
ATOM     22  C   UNL     1       3.021   8.007  18.371  0.00  0.00    +0.000 C 
BRANCH  22  23
ATOM     23  N   UNL     1       1.625   8.416  18.255  0.00  0.00    +0.000 N 
ATOM     24  C   UNL     1       1.276   9.731  18.067  0.00  0.00    +0.000 C 
ATOM     25  O   UNL     1       2.103  10.627  17.910  0.00  0.00    +0.000 OA
ATOM     26  H   UNL     1       0.913   7.703  18.356  0.00  0.00    +0.000 HD
BRANCH  24  27
ATOM     27  C   UNL     1      -0.216  10.014  18.082  0.00  0.00    +0.000 C 
BRANCH  27  28
ATOM     28  C   UNL     1      -0.725  10.773  19.279  0.00  0.00    +0.000 A 
ATOM     29  C   UNL     1      -0.327  10.394  20.567  0.00  0.00    +0.000 A 
ATOM     30  C   UNL     1      -0.746  11.128  21.673  0.00  0.00    +0.000 A 
ATOM     31  C   UNL     1      -1.550  12.232  21.456  0.00  0.00    +0.000 A 
ATOM     32  N   UNL     1      -1.941  12.642  20.233  0.00  0.00    +0.000 NA
ATOM     33  C   UNL     1      -1.515  11.914  19.174  0.00  0.00    +0.000 A 
ENDBRANCH  27  28
ENDBRANCH  24  27
ENDBRANCH  22  23
ENDBRANCH  10  22
TORSDOF 6
ENDMDL
MODEL 6
REMARK VINA RESULT:      -8.7      1.054      1.508
REMARK  Name = 
REMARK  7 active torsions:
REMARK  status: ('A' for Active; 'I' for Inactive)
REMARK    1  A    between atoms: C_1  and  C_2
REMARK    2  A    between atoms: N_8  and  C_9
REMARK    3  A    between atoms: C_9  and  C_10
REMARK    4  A    between atoms: C_18  and  C_19
REMARK    5  A    between atoms: C_19  and  N_20
REMARK    6  A    between atoms: C_21  and  C_23
REMARK    7  A    between atoms: C_23  and  C_24
REMARK                            x       y       z     vdW  Elec       q    Type
REMARK                         _______ _______ _______ _____ _____    ______ ____
ROOT
ATOM      1  C   UNL     1       8.563   5.885  13.216  0.00  0.00    +0.000 C 
ATOM      2  C   UNL     1       7.360   5.100  13.677  0.00  0.00    +0.000 A 
ATOM      3  C   UNL     1       6.659   4.320  12.741  0.00  0.00    +0.000 A 
ATOM      4  C   UNL     1       5.566   3.568  13.140  0.00  0.00    +0.000 A 
ATOM      5  C   UNL     1       5.188   3.577  14.479  0.00  0.00    +0.000 A 
ATOM      6  C   UNL     1       5.896   4.345  15.440  0.00  0.00    +0.000 A 
ATOM      7  C   UNL     1       5.613   4.361  16.823  0.00  0.00    +0.000 A 
ATOM      8  N   UNL     1       4.567   3.545  17.311  0.00  0.00    +0.000 N 
ATOM      9  N   UNL     1       6.255   5.181  17.676  0.00  0.00    +0.000 NA
ATOM     10  C   UNL     1       7.239   5.947  17.166  0.00  0.00    +0.000 A 
ATOM     11  N   UNL     1       7.628   5.932  15.880  0.00  0.00    +0.000 NA
ATOM     12  C   UNL     1       6.971   5.142  15.024  0.00  0.00    +0.000 A 
ATOM     13  H   UNL     1       4.566   2.670  16.797  0.00  0.00    +0.000 HD
ENDROOT
BRANCH   8  14
ATOM     14  C   UNL     1       4.609   3.230  18.737  0.00  0.00    +0.000 C 
BRANCH  14  15
ATOM     15  C   UNL     1       3.515   4.022  19.415  0.00  0.00    +0.000 A 
ATOM     16  C   UNL     1       3.321   5.379  19.104  0.00  0.00    +0.000 A 
ATOM     17  C   UNL     1       2.274   6.101  19.684  0.00  0.00    +0.000 A 
ATOM     18  C   UNL     1       1.408   5.480  20.583  0.00  0.00    +0.000 A 
ATOM     19  C   UNL     1       1.593   4.136  20.905  0.00  0.00    +0.000 A 
ATOM     20  C   UNL     1       2.639   3.421  20.321  0.00  0.00    +0.000 A 
ATOM     21  F   UNL     1       2.779   2.125  20.632  0.00  0.00    +0.000 F 
ENDBRANCH  14  15
ENDBRANCH   8  14
BRANCH  10  22
ATOM     22  C   UNL     1       7.903   6.973  18.062  0.00  0.00    +0.000 C 
BRANCH  22  23
ATOM     23  N   UNL     1       7.884   8.320  17.500  0.00  0.00    +0.000 N 
ATOM     24  C   UNL     1       8.418   9.388  18.180  0.00  0.00    +0.000 C 
ATOM     25  O   UNL     1       9.004   9.273  19.253  0.00  0.00    +0.000 OA
ATOM     26  H   UNL     1       7.428   8.453  16.606  0.00  0.00    +0.000 HD
BRANCH  24  27
ATOM     27  C   UNL     1       8.218  10.741  17.519  0.00  0.00    +0.000 C 
BRANCH  27  28
ATOM     28  C   UNL     1       9.237  11.794  17.865  0.00  0.00    +0.000 A 
ATOM     29  C   UNL     1       8.839  12.959  18.534  0.00  0.00    +0.000 A 
ATOM     30  C   UNL     1       9.786  13.908  18.910  0.00  0.00    +0.000 A 
ATOM     31  C   UNL     1      11.113  13.658  18.611  0.00  0.00    +0.000 A 
ATOM     32  N   UNL     1      11.541  12.543  17.985  0.00  0.00    +0.000 NA
ATOM     33  C   UNL     1      10.600  11.634  17.636  0.00  0.00    +0.000 A 
ENDBRANCH  27  28
ENDBRANCH  24  27
ENDBRANCH  22  23
ENDBRANCH  10  22
TORSDOF 6
ENDMDL
MODEL 7
REMARK VINA RESULT:      -8.7      4.001      7.544
REMARK  Name = 
REMARK  7 active torsions:
REMARK  status: ('A' for Active; 'I' for Inactive)
REMARK    1  A    between atoms: C_1  and  C_2
REMARK    2  A    between atoms: N_8  and  C_9
REMARK    3  A    between atoms: C_9  and  C_10
REMARK    4  A    between atoms: C_18  and  C_19
REMARK    5  A    between atoms: C_19  and  N_20
REMARK    6  A    between atoms: C_21  and  C_23
REMARK    7  A    between atoms: C_23  and  C_24
REMARK                            x       y       z     vdW  Elec       q    Type
REMARK                         _______ _______ _______ _____ _____    ______ ____
ROOT
ATOM      1  C   UNL     1       3.507   1.958  18.215  0.00  0.00    +0.000 C 
ATOM      2  C   UNL     1       2.609   2.790  19.096  0.00  0.00    +0.000 A 
ATOM      3  C   UNL     1       1.696   2.140  19.943  0.00  0.00    +0.000 A 
ATOM      4  C   UNL     1       0.876   2.877  20.782  0.00  0.00    +0.000 A 
ATOM      5  C   UNL     1       0.985   4.264  20.792  0.00  0.00    +0.000 A 
ATOM      6  C   UNL     1       1.914   4.936  19.955  0.00  0.00    +0.000 A 
ATOM      7  C   UNL     1       2.127   6.332  19.948  0.00  0.00    +0.000 A 
ATOM      8  N   UNL     1       1.387   7.135  20.846  0.00  0.00    +0.000 N 
ATOM      9  N   UNL     1       2.953   6.927  19.067  0.00  0.00    +0.000 NA
ATOM     10  C   UNL     1       3.631   6.123  18.225  0.00  0.00    +0.000 A 
ATOM     11  N   UNL     1       3.551   4.781  18.220  0.00  0.00    +0.000 NA
ATOM     12  C   UNL     1       2.707   4.190  19.072  0.00  0.00    +0.000 A 
ATOM     13  H   UNL     1       1.283   6.635  21.724  0.00  0.00    +0.000 HD
ENDROOT
BRANCH   8  14
ATOM     14  C   UNL     1       1.947   8.451  21.142  0.00  0.00    +0.000 C 
BRANCH  14  15
ATOM     15  C   UNL     1       0.798   9.372  21.486  0.00  0.00    +0.000 A 
ATOM     16  C   UNL     1       0.263   9.388  22.785  0.00  0.00    +0.000 A 
ATOM     17  C   UNL     1      -0.760  10.278  23.124  0.00  0.00    +0.000 A 
ATOM     18  C   UNL     1      -1.264  11.162  22.172  0.00  0.00    +0.000 A 
ATOM     19  C   UNL     1      -0.747  11.153  20.877  0.00  0.00    +0.000 A 
ATOM     20  C   UNL     1       0.275  10.263  20.546  0.00  0.00    +0.000 A 
ATOM     21  F   UNL     1       0.768  10.291  19.300  0.00  0.00    +0.000 F 
ENDBRANCH  14  15
ENDBRANCH   8  14
BRANCH  10  22
ATOM     22  C   UNL     1       4.475   6.754  17.135  0.00  0.00    +0.000 C 
BRANCH  22  23
ATOM     23  N   UNL     1       5.445   5.830  16.557  0.00  0.00    +0.000 N 
ATOM     24  C   UNL     1       6.776   6.157  16.457  0.00  0.00    +0.000 C 
ATOM     25  O   UNL     1       7.244   7.200  16.908  0.00  0.00    +0.000 OA
ATOM     26  H   UNL     1       5.102   4.950  16.195  0.00  0.00    +0.000 HD
BRANCH  24  27
ATOM     27  C   UNL     1       7.640   5.141  15.729  0.00  0.00    +0.000 C 
BRANCH  27  28
ATOM     28  C   UNL     1       7.151   4.726  14.366  0.00  0.00    +0.000 A 
ATOM     29  C   UNL     1       7.803   5.194  13.218  0.00  0.00    +0.000 A 
ATOM     30  C   UNL     1       7.394   4.766  11.958  0.00  0.00    +0.000 A 
ATOM     31  C   UNL     1       6.343   3.870  11.884  0.00  0.00    +0.000 A 
ATOM     32  N   UNL     1       5.700   3.381  12.963  0.00  0.00    +0.000 NA
ATOM     33  C   UNL     1       6.122   3.809  14.177  0.00  0.00    +0.000 A 
ENDBRANCH  27  28
ENDBRANCH  24  27
ENDBRANCH  22  23
ENDBRANCH  10  22
TORSDOF 6
ENDMDL
MODEL 8
REMARK VINA RESULT:      -8.6      4.776      7.961
REMARK  Name = 
REMARK  7 active torsions:
REMARK  status: ('A' for Active; 'I' for Inactive)
REMARK    1  A    between atoms: C_1  and  C_2
REMARK    2  A    between atoms: N_8  and  C_9
REMARK    3  A    between atoms: C_9  and  C_10
REMARK    4  A    between atoms: C_18  and  C_19
REMARK    5  A    between atoms: C_19  and  N_20
REMARK    6  A    between atoms: C_21  and  C_23
REMARK    7  A    between atoms: C_23  and  C_24
REMARK                            x       y       z     vdW  Elec       q    Type
REMARK                         _______ _______ _______ _____ _____    ______ ____
ROOT
ATOM      1  C   UNL     1       1.031   4.446  20.172  0.00  0.00    +0.000 C 
ATOM      2  C   UNL     1       2.374   4.042  19.618  0.00  0.00    +0.000 A 
ATOM      3  C   UNL     1       2.850   2.744  19.869  0.00  0.00    +0.000 A 
ATOM      4  C   UNL     1       4.069   2.336  19.352  0.00  0.00    +0.000 A 
ATOM      5  C   UNL     1       4.801   3.217  18.563  0.00  0.00    +0.000 A 
ATOM      6  C   UNL     1       4.327   4.526  18.285  0.00  0.00    +0.000 A 
ATOM      7  C   UNL     1       4.980   5.457  17.449  0.00  0.00    +0.000 A 
ATOM      8  N   UNL     1       6.184   5.071  16.815  0.00  0.00    +0.000 N 
ATOM      9  N   UNL     1       4.535   6.718  17.296  0.00  0.00    +0.000 NA
ATOM     10  C   UNL     1       3.389   7.044  17.925  0.00  0.00    +0.000 A 
ATOM     11  N   UNL     1       2.661   6.196  18.671  0.00  0.00    +0.000 NA
ATOM     12  C   UNL     1       3.117   4.952  18.851  0.00  0.00    +0.000 A 
ATOM     13  H   UNL     1       6.114   4.096  16.542  0.00  0.00    +0.000 HD
ENDROOT
BRANCH   8  14
ATOM     14  C   UNL     1       6.564   5.844  15.635  0.00  0.00    +0.000 C 
BRANCH  14  15
ATOM     15  C   UNL     1       6.419   4.942  14.430  0.00  0.00    +0.000 A 
ATOM     16  C   UNL     1       5.288   4.119  14.288  0.00  0.00    +0.000 A 
ATOM     17  C   UNL     1       5.121   3.328  13.149  0.00  0.00    +0.000 A 
ATOM     18  C   UNL     1       6.079   3.344  12.136  0.00  0.00    +0.000 A 
ATOM     19  C   UNL     1       7.209   4.151  12.267  0.00  0.00    +0.000 A 
ATOM     20  C   UNL     1       7.369   4.940  13.406  0.00  0.00    +0.000 A 
ATOM     21  F   UNL     1       8.453   5.722  13.494  0.00  0.00    +0.000 F 
ENDBRANCH  14  15
ENDBRANCH   8  14
BRANCH  10  22
ATOM     22  C   UNL     1       2.917   8.484  17.882  0.00  0.00    +0.000 C 
BRANCH  22  23
ATOM     23  N   UNL     1       1.542   8.648  18.341  0.00  0.00    +0.000 N 
ATOM     24  C   UNL     1       1.011   9.891  18.587  0.00  0.00    +0.000 C 
ATOM     25  O   UNL     1       1.622  10.934  18.368  0.00  0.00    +0.000 OA
ATOM     26  H   UNL     1       0.997   7.811  18.512  0.00  0.00    +0.000 HD
BRANCH  24  27
ATOM     27  C   UNL     1      -0.392   9.892  19.169  0.00  0.00    +0.000 C 
BRANCH  27  28
ATOM     28  C   UNL     1      -0.558  10.630  20.472  0.00  0.00    +0.000 A 
ATOM     29  C   UNL     1      -1.294  11.820  20.511  0.00  0.00    +0.000 A 
ATOM     30  C   UNL     1      -1.502  12.474  21.723  0.00  0.00    +0.000 A 
ATOM     31  C   UNL     1      -0.970  11.909  22.868  0.00  0.00    +0.000 A 
ATOM     32  N   UNL     1      -0.271  10.756  22.877  0.00  0.00    +0.000 NA
ATOM     33  C   UNL     1      -0.089  10.138  21.686  0.00  0.00    +0.000 A 
ENDBRANCH  27  28
ENDBRANCH  24  27
ENDBRANCH  22  23
ENDBRANCH  10  22
TORSDOF 6
ENDMDL
MODEL 9
REMARK VINA RESULT:      -8.5      4.122      7.533
REMARK  Name = 
REMARK  7 active torsions:
REMARK  status: ('A' for Active; 'I' for Inactive)
REMARK    1  A    between atoms: C_1  and  C_2
REMARK    2  A    between atoms: N_8  and  C_9
REMARK    3  A    between atoms: C_9  and  C_10
REMARK    4  A    between atoms: C_18  and  C_19
REMARK    5  A    between atoms: C_19  and  N_20
REMARK    6  A    between atoms: C_21  and  C_23
REMARK    7  A    between atoms: C_23  and  C_24
REMARK                            x       y       z     vdW  Elec       q    Type
REMARK                         _______ _______ _______ _____ _____    ______ ____
ROOT
ATOM      1  C   UNL     1       4.798   1.651  20.446  0.00  0.00    +0.000 C 
ATOM      2  C   UNL     1       3.673   2.539  19.977  0.00  0.00    +0.000 A 
ATOM      3  C   UNL     1       2.347   2.147  20.228  0.00  0.00    +0.000 A 
ATOM      4  C   UNL     1       1.294   2.954  19.832  0.00  0.00    +0.000 A 
ATOM      5  C   UNL     1       1.566   4.167  19.207  0.00  0.00    +0.000 A 
ATOM      6  C   UNL     1       2.899   4.587  18.961  0.00  0.00    +0.000 A 
ATOM      7  C   UNL     1       3.260   5.825  18.386  0.00  0.00    +0.000 A 
ATOM      8  N   UNL     1       2.235   6.737  18.042  0.00  0.00    +0.000 N 
ATOM      9  N   UNL     1       4.536   6.133  18.088  0.00  0.00    +0.000 NA
ATOM     10  C   UNL     1       5.478   5.231  18.426  0.00  0.00    +0.000 A 
ATOM     11  N   UNL     1       5.231   4.067  19.050  0.00  0.00    +0.000 NA
ATOM     12  C   UNL     1       3.961   3.745  19.319  0.00  0.00    +0.000 A 
ATOM     13  H   UNL     1       1.504   6.690  18.745  0.00  0.00    +0.000 HD
ENDROOT
BRANCH   8  14
ATOM     14  C   UNL     1       2.638   8.134  17.904  0.00  0.00    +0.000 C 
BRANCH  14  15
ATOM     15  C   UNL     1       1.616   8.980  18.630  0.00  0.00    +0.000 A 
ATOM     16  C   UNL     1       0.833   9.911  17.927  0.00  0.00    +0.000 A 
ATOM     17  C   UNL     1      -0.153  10.653  18.583  0.00  0.00    +0.000 A 
ATOM     18  C   UNL     1      -0.369  10.479  19.949  0.00  0.00    +0.000 A 
ATOM     19  C   UNL     1       0.405   9.563  20.661  0.00  0.00    +0.000 A 
ATOM     20  C   UNL     1       1.386   8.824  19.999  0.00  0.00    +0.000 A 
ATOM     21  F   UNL     1       2.100   7.935  20.704  0.00  0.00    +0.000 F 
ENDBRANCH  14  15
ENDBRANCH   8  14
BRANCH  10  22
ATOM     22  C   UNL     1       6.911   5.479  17.999  0.00  0.00    +0.000 C 
BRANCH  22  23
ATOM     23  N   UNL     1       7.048   5.708  16.565  0.00  0.00    +0.000 N 
ATOM     24  C   UNL     1       6.797   4.712  15.652  0.00  0.00    +0.000 C 
ATOM     25  O   UNL     1       6.375   3.603  15.971  0.00  0.00    +0.000 OA
ATOM     26  H   UNL     1       7.373   6.617  16.260  0.00  0.00    +0.000 HD
BRANCH  24  27
ATOM     27  C   UNL     1       7.095   5.069  14.206  0.00  0.00    +0.000 C 
BRANCH  27  28
ATOM     28  C   UNL     1       6.479   4.166  13.170  0.00  0.00    +0.000 A 
ATOM     29  C   UNL     1       7.300   3.397  12.337  0.00  0.00    +0.000 A 
ATOM     30  C   UNL     1       6.735   2.515  11.419  0.00  0.00    +0.000 A 
ATOM     31  C   UNL     1       5.357   2.423  11.366  0.00  0.00    +0.000 A 
ATOM     32  N   UNL     1       4.530   3.131  12.162  0.00  0.00    +0.000 NA
ATOM     33  C   UNL     1       5.105   3.977  13.050  0.00  0.00    +0.000 A 
ENDBRANCH  27  28
ENDBRANCH  24  27
ENDBRANCH  22  23
ENDBRANCH  10  22
TORSDOF 6
ENDMDL
