MODEL 1
REMARK VINA RESULT:      -6.6      0.000      0.000
REMARK  Name = 
REMARK  8 active torsions:
REMARK  status: ('A' for Active; 'I' for Inactive)
REMARK    1  A    between atoms: C_1  and  C_2
REMARK    2  A    between atoms: C_2  and  C_3
REMARK    3  A    between atoms: C_2  and  C_4
REMARK    4  A    between atoms: C_2  and  N_5
REMARK    5  A    between atoms: C_6  and  C_8
REMARK    6  A    between atoms: C_8  and  N_9
REMARK    7  A    between atoms: N_14  and  C_15
REMARK    8  A    between atoms: C_15  and  C_16
REMARK                            x       y       z     vdW  Elec       q    Type
REMARK                         _______ _______ _______ _____ _____    ______ ____
ROOT
ATOM      1  N   UNL     1      -2.056  12.301  21.326  0.00  0.00    +0.000 N 
ATOM      2  C   UNL     1      -0.788  12.165  21.877  0.00  0.00    +0.000 A 
ATOM      3  O   UNL     1      -0.570  12.245  23.084  0.00  0.00    +0.000 OA
ATOM      4  C   UNL     1       0.375  11.890  20.934  0.00  0.00    +0.000 A 
ATOM      5  O   UNL     1       1.514  12.097  21.341  0.00  0.00    +0.000 OA
ATOM      6  N   UNL     1       0.069  11.414  19.664  0.00  0.00    +0.000 N 
ATOM      7  C   UNL     1      -1.269  11.444  19.165  0.00  0.00    +0.000 A 
ATOM      8  C   UNL     1      -1.558  11.045  17.844  0.00  0.00    +0.000 A 
ATOM      9  C   UNL     1      -2.846  11.145  17.320  0.00  0.00    +0.000 A 
ATOM     10  C   UNL     1      -3.872  11.625  18.117  0.00  0.00    +0.000 A 
ATOM     11 CL   UNL     1      -5.458  11.766  17.467  0.00  0.00    +0.000 Cl
ATOM     12  C   UNL     1      -3.621  11.999  19.437  0.00  0.00    +0.000 A 
ATOM     13  C   UNL     1      -2.322  11.922  19.977  0.00  0.00    +0.000 A 
ENDROOT
BRANCH   1  14
ATOM     14  C   UNL     1      -3.119  12.703  22.245  0.00  0.00    +0.000 C 
BRANCH  14  16
ATOM     15  N   UNL     1      -2.579  14.416  23.915  0.00  0.00    +0.000 N 
ATOM     16  C   UNL     1      -3.012  14.182  22.624  0.00  0.00    +0.000 C 
ATOM     17  O   UNL     1      -3.268  15.063  21.807  0.00  0.00    +0.000 OA
ATOM     18  H   UNL     1      -2.260  13.606  24.449  0.00  0.00    +0.000 HD
BRANCH  15  20
ATOM     19  C   UNL     1      -3.739  16.447  24.715  0.00  0.00    +0.000 C 
ATOM     20  C   UNL     1      -2.388  15.746  24.512  0.00  0.00    +0.000 C 
ATOM     21  C   UNL     1      -1.462  16.607  23.640  0.00  0.00    +0.000 C 
ATOM     22  C   UNL     1      -1.728  15.578  25.895  0.00  0.00    +0.000 C 
ENDBRANCH  15  20
ENDBRANCH  14  16
ENDBRANCH   1  14
BRANCH   6  23
ATOM     23  C   UNL     1       1.204  11.045  18.814  0.00  0.00    +0.000 C 
BRANCH  23  24
ATOM     24  C   UNL     1       1.580   9.580  18.904  0.00  0.00    +0.000 A 
ATOM     25  C   UNL     1       1.335   8.833  20.066  0.00  0.00    +0.000 A 
ATOM     26  C   UNL     1       1.783   7.517  20.170  0.00  0.00    +0.000 A 
ATOM     27  C   UNL     1       2.447   6.921  19.101  0.00  0.00    +0.000 A 
ATOM     28  C   UNL     1       2.631   7.628  17.915  0.00  0.00    +0.000 A 
ATOM     29  C   UNL     1       2.192   8.949  17.811  0.00  0.00    +0.000 A 
ENDBRANCH  23  24
ENDBRANCH   6  23
TORSDOF 5
ENDMDL
MODEL 2
REMARK VINA RESULT:      -6.5      3.943      6.081
REMARK  Name = 
REMARK  8 active torsions:
REMARK  status: ('A' for Active; 'I' for Inactive)
REMARK    1  A    between atoms: C_1  and  C_2
REMARK    2  A    between atoms: C_2  and  C_3
REMARK    3  A    between atoms: C_2  and  C_4
REMARK    4  A    between atoms: C_2  and  N_5
REMARK    5  A    between atoms: C_6  and  C_8
REMARK    6  A    between atoms: C_8  and  N_9
REMARK    7  A    between atoms: N_14  and  C_15
REMARK    8  A    between atoms: C_15  and  C_16
REMARK                            x       y       z     vdW  Elec       q    Type
REMARK                         _______ _______ _______ _____ _____    ______ ____
ROOT
ATOM      1  N   UNL     1       0.817  10.452  18.921  0.00  0.00    +0.000 N 
ATOM      2  C   UNL     1       1.768   9.902  18.071  0.00  0.00    +0.000 A 
ATOM      3  O   UNL     1       2.174  10.473  17.062  0.00  0.00    +0.000 OA
ATOM      4  C   UNL     1       2.338   8.536  18.426  0.00  0.00    +0.000 A 
ATOM      5  O   UNL     1       2.907   7.898  17.545  0.00  0.00    +0.000 OA
ATOM      6  N   UNL     1       2.180   8.097  19.735  0.00  0.00    +0.000 N 
ATOM      7  C   UNL     1       1.290   8.759  20.635  0.00  0.00    +0.000 A 
ATOM      8  C   UNL     1       1.064   8.256  21.932  0.00  0.00    +0.000 A 
ATOM      9  C   UNL     1       0.139   8.847  22.790  0.00  0.00    +0.000 A 
ATOM     10  C   UNL     1      -0.562   9.966  22.373  0.00  0.00    +0.000 A 
ATOM     11 CL   UNL     1      -1.717  10.686  23.423  0.00  0.00    +0.000 Cl
ATOM     12  C   UNL     1      -0.337  10.504  21.105  0.00  0.00    +0.000 A 
ATOM     13  C   UNL     1       0.581   9.909  20.218  0.00  0.00    +0.000 A 
ENDROOT
BRANCH   1  14
ATOM     14  C   UNL     1       0.194  11.696  18.473  0.00  0.00    +0.000 C 
BRANCH  14  16
ATOM     15  N   UNL     1      -1.604  10.684  17.148  0.00  0.00    +0.000 N 
ATOM     16  C   UNL     1      -1.302  11.517  18.208  0.00  0.00    +0.000 C 
ATOM     17  O   UNL     1      -2.139  12.062  18.923  0.00  0.00    +0.000 OA
ATOM     18  H   UNL     1      -0.826  10.177  16.723  0.00  0.00    +0.000 HD
BRANCH  15  20
ATOM     19  C   UNL     1      -3.818  11.618  16.567  0.00  0.00    +0.000 C 
ATOM     20  C   UNL     1      -2.963  10.348  16.700  0.00  0.00    +0.000 C 
ATOM     21  C   UNL     1      -3.626   9.355  17.667  0.00  0.00    +0.000 C 
ATOM     22  C   UNL     1      -2.878   9.685  15.312  0.00  0.00    +0.000 C 
ENDBRANCH  15  20
ENDBRANCH  14  16
ENDBRANCH   1  14
BRANCH   6  23
ATOM     23  C   UNL     1       2.836   6.835  20.085  0.00  0.00    +0.000 C 
BRANCH  23  24
ATOM     24  C   UNL     1       2.067   5.607  19.643  0.00  0.00    +0.000 A 
ATOM     25  C   UNL     1       1.312   4.851  20.553  0.00  0.00    +0.000 A 
ATOM     26  C   UNL     1       0.698   3.665  20.153  0.00  0.00    +0.000 A 
ATOM     27  C   UNL     1       0.800   3.241  18.831  0.00  0.00    +0.000 A 
ATOM     28  C   UNL     1       1.485   4.021  17.900  0.00  0.00    +0.000 A 
ATOM     29  C   UNL     1       2.108   5.204  18.300  0.00  0.00    +0.000 A 
ENDBRANCH  23  24
ENDBRANCH   6  23
TORSDOF 5
ENDMDL
MODEL 3
REMARK VINA RESULT:      -6.4      3.451      6.883
REMARK  Name = 
REMARK  8 active torsions:
REMARK  status: ('A' for Active; 'I' for Inactive)
REMARK    1  A    between atoms: C_1  and  C_2
REMARK    2  A    between atoms: C_2  and  C_3
REMARK    3  A    between atoms: C_2  and  C_4
REMARK    4  A    between atoms: C_2  and  N_5
REMARK    5  A    between atoms: C_6  and  C_8
REMARK    6  A    between atoms: C_8  and  N_9
REMARK    7  A    between atoms: N_14  and  C_15
REMARK    8  A    between atoms: C_15  and  C_16
REMARK                            x       y       z     vdW  Elec       q    Type
REMARK                         _______ _______ _______ _____ _____    ______ ____
ROOT
ATOM      1  N   UNL     1      -1.534  11.413  18.410  0.00  0.00    +0.000 N 
ATOM      2  C   UNL     1      -2.170  10.572  17.506  0.00  0.00    +0.000 A 
ATOM      3  O   UNL     1      -1.586   9.677  16.899  0.00  0.00    +0.000 OA
ATOM      4  C   UNL     1      -3.662  10.767  17.277  0.00  0.00    +0.000 A 
ATOM      5  O   UNL     1      -4.163  10.281  16.268  0.00  0.00    +0.000 OA
ATOM      6  N   UNL     1      -4.367  11.486  18.236  0.00  0.00    +0.000 N 
ATOM      7  C   UNL     1      -3.689  12.243  19.240  0.00  0.00    +0.000 A 
ATOM      8  C   UNL     1      -4.407  13.043  20.153  0.00  0.00    +0.000 A 
ATOM      9  C   UNL     1      -3.754  13.846  21.085  0.00  0.00    +0.000 A 
ATOM     10  C   UNL     1      -2.370  13.847  21.135  0.00  0.00    +0.000 A 
ATOM     11 CL   UNL     1      -1.561  14.852  22.273  0.00  0.00    +0.000 Cl
ATOM     12  C   UNL     1      -1.634  13.043  20.265  0.00  0.00    +0.000 A 
ATOM     13  C   UNL     1      -2.277  12.238  19.304  0.00  0.00    +0.000 A 
ENDROOT
BRANCH   1  14
ATOM     14  C   UNL     1      -0.079  11.286  18.496  0.00  0.00    +0.000 C 
BRANCH  14  16
ATOM     15  N   UNL     1      -0.136  10.340  20.758  0.00  0.00    +0.000 N 
ATOM     16  C   UNL     1       0.336  10.181  19.470  0.00  0.00    +0.000 C 
ATOM     17  O   UNL     1       1.010   9.227  19.090  0.00  0.00    +0.000 OA
ATOM     18  H   UNL     1      -0.804  11.096  20.915  0.00  0.00    +0.000 HD
BRANCH  15  20
ATOM     19  C   UNL     1       1.625   9.306  22.152  0.00  0.00    +0.000 C 
ATOM     20  C   UNL     1       0.119   9.413  21.870  0.00  0.00    +0.000 C 
ATOM     21  C   UNL     1      -0.470   8.026  21.569  0.00  0.00    +0.000 C 
ATOM     22  C   UNL     1      -0.563   9.961  23.139  0.00  0.00    +0.000 C 
ENDBRANCH  15  20
ENDBRANCH  14  16
ENDBRANCH   1  14
BRANCH   6  23
ATOM     23  C   UNL     1      -5.819  11.563  18.058  0.00  0.00    +0.000 C 
BRANCH  23  24
ATOM     24  C   UNL     1      -6.601  10.765  19.081  0.00  0.00    +0.000 A 
ATOM     25  C   UNL     1      -7.291  11.397  20.127  0.00  0.00    +0.000 A 
ATOM     26  C   UNL     1      -7.916  10.644  21.120  0.00  0.00    +0.000 A 
ATOM     27  C   UNL     1      -7.891   9.253  21.059  0.00  0.00    +0.000 A 
ATOM     28  C   UNL     1      -7.272   8.615  19.985  0.00  0.00    +0.000 A 
ATOM     29  C   UNL     1      -6.638   9.365  18.995  0.00  0.00    +0.000 A 
ENDBRANCH  23  24
ENDBRANCH   6  23
TORSDOF 5
ENDMDL
MODEL 4
REMARK VINA RESULT:      -6.3      0.881      1.156
REMARK  Name = 
REMARK  8 active torsions:
REMARK  status: ('A' for Active; 'I' for Inactive)
REMARK    1  A    between atoms: C_1  and  C_2
REMARK    2  A    between atoms: C_2  and  C_3
REMARK    3  A    between atoms: C_2  and  C_4
REMARK    4  A    between atoms: C_2  and  N_5
REMARK    5  A    between atoms: C_6  and  C_8
REMARK    6  A    between atoms: C_8  and  N_9
REMARK    7  A    between atoms: N_14  and  C_15
REMARK    8  A    between atoms: C_15  and  C_16
REMARK                            x       y       z     vdW  Elec       q    Type
REMARK                         _______ _______ _______ _____ _____    ______ ____
ROOT
ATOM      1  N   UNL     1      -2.722  12.542  21.468  0.00  0.00    +0.000 N 
ATOM      2  C   UNL     1      -1.461  12.531  22.050  0.00  0.00    +0.000 A 
ATOM      3  O   UNL     1      -1.282  12.629  23.262  0.00  0.00    +0.000 OA
ATOM      4  C   UNL     1      -0.254  12.374  21.136  0.00  0.00    +0.000 A 
ATOM      5  O   UNL     1       0.849  12.692  21.570  0.00  0.00    +0.000 OA
ATOM      6  N   UNL     1      -0.480  11.873  19.858  0.00  0.00    +0.000 N 
ATOM      7  C   UNL     1      -1.802  11.771  19.327  0.00  0.00    +0.000 A 
ATOM      8  C   UNL     1      -2.018  11.349  17.999  0.00  0.00    +0.000 A 
ATOM      9  C   UNL     1      -3.296  11.321  17.444  0.00  0.00    +0.000 A 
ATOM     10  C   UNL     1      -4.383  11.696  18.216  0.00  0.00    +0.000 A 
ATOM     11 CL   UNL     1      -5.960  11.681  17.527  0.00  0.00    +0.000 Cl
ATOM     12  C   UNL     1      -4.203  12.090  19.542  0.00  0.00    +0.000 A 
ATOM     13  C   UNL     1      -2.917  12.141  20.114  0.00  0.00    +0.000 A 
ENDROOT
BRANCH   1  14
ATOM     14  C   UNL     1      -3.842  12.834  22.361  0.00  0.00    +0.000 C 
BRANCH  14  16
ATOM     15  N   UNL     1      -3.435  14.874  23.659  0.00  0.00    +0.000 N 
ATOM     16  C   UNL     1      -4.045  14.340  22.541  0.00  0.00    +0.000 C 
ATOM     17  O   UNL     1      -4.680  14.994  21.717  0.00  0.00    +0.000 OA
ATOM     18  H   UNL     1      -2.816  14.257  24.187  0.00  0.00    +0.000 HD
BRANCH  15  20
ATOM     19  C   UNL     1      -3.138  17.190  22.846  0.00  0.00    +0.000 C 
ATOM     20  C   UNL     1      -3.476  16.292  24.046  0.00  0.00    +0.000 C 
ATOM     21  C   UNL     1      -2.512  16.568  25.210  0.00  0.00    +0.000 C 
ATOM     22  C   UNL     1      -4.904  16.638  24.510  0.00  0.00    +0.000 C 
ENDBRANCH  15  20
ENDBRANCH  14  16
ENDBRANCH   1  14
BRANCH   6  23
ATOM     23  C   UNL     1       0.706  11.620  19.037  0.00  0.00    +0.000 C 
BRANCH  23  24
ATOM     24  C   UNL     1       1.149  10.171  19.038  0.00  0.00    +0.000 A 
ATOM     25  C   UNL     1       0.969   9.353  20.163  0.00  0.00    +0.000 A 
ATOM     26  C   UNL     1       1.478   8.055  20.185  0.00  0.00    +0.000 A 
ATOM     27  C   UNL     1       2.138   7.548  19.069  0.00  0.00    +0.000 A 
ATOM     28  C   UNL     1       2.259   8.325  17.918  0.00  0.00    +0.000 A 
ATOM     29  C   UNL     1       1.758   9.627  17.897  0.00  0.00    +0.000 A 
ENDBRANCH  23  24
ENDBRANCH   6  23
TORSDOF 5
ENDMDL
MODEL 5
REMARK VINA RESULT:      -6.3      1.828      2.219
REMARK  Name = 
REMARK  8 active torsions:
REMARK  status: ('A' for Active; 'I' for Inactive)
REMARK    1  A    between atoms: C_1  and  C_2
REMARK    2  A    between atoms: C_2  and  C_3
REMARK    3  A    between atoms: C_2  and  C_4
REMARK    4  A    between atoms: C_2  and  N_5
REMARK    5  A    between atoms: C_6  and  C_8
REMARK    6  A    between atoms: C_8  and  N_9
REMARK    7  A    between atoms: N_14  and  C_15
REMARK    8  A    between atoms: C_15  and  C_16
REMARK                            x       y       z     vdW  Elec       q    Type
REMARK                         _______ _______ _______ _____ _____    ______ ____
ROOT
ATOM      1  N   UNL     1      -1.285  13.096  19.962  0.00  0.00    +0.000 N 
ATOM      2  C   UNL     1       0.058  13.129  20.314  0.00  0.00    +0.000 A 
ATOM      3  O   UNL     1       0.491  13.813  21.238  0.00  0.00    +0.000 OA
ATOM      4  C   UNL     1       1.026  12.261  19.522  0.00  0.00    +0.000 A 
ATOM      5  O   UNL     1       2.224  12.520  19.586  0.00  0.00    +0.000 OA
ATOM      6  N   UNL     1       0.486  11.220  18.774  0.00  0.00    +0.000 N 
ATOM      7  C   UNL     1      -0.919  11.134  18.532  0.00  0.00    +0.000 A 
ATOM      8  C   UNL     1      -1.450  10.130  17.698  0.00  0.00    +0.000 A 
ATOM      9  C   UNL     1      -2.808  10.083  17.391  0.00  0.00    +0.000 A 
ATOM     10  C   UNL     1      -3.663  11.029  17.931  0.00  0.00    +0.000 A 
ATOM     11 CL   UNL     1      -5.337  10.984  17.539  0.00  0.00    +0.000 Cl
ATOM     12  C   UNL     1      -3.171  12.017  18.784  0.00  0.00    +0.000 A 
ATOM     13  C   UNL     1      -1.798  12.090  19.091  0.00  0.00    +0.000 A 
ENDROOT
BRANCH   1  14
ATOM     14  C   UNL     1      -2.157  14.045  20.652  0.00  0.00    +0.000 C 
BRANCH  14  16
ATOM     15  N   UNL     1      -4.081  14.064  22.172  0.00  0.00    +0.000 N 
ATOM     16  C   UNL     1      -2.953  13.373  21.771  0.00  0.00    +0.000 C 
ATOM     17  O   UNL     1      -2.604  12.288  22.230  0.00  0.00    +0.000 OA
ATOM     18  H   UNL     1      -4.344  14.879  21.617  0.00  0.00    +0.000 HD
BRANCH  15  20
ATOM     19  C   UNL     1      -4.248  12.965  24.381  0.00  0.00    +0.000 C 
ATOM     20  C   UNL     1      -5.012  13.623  23.221  0.00  0.00    +0.000 C 
ATOM     21  C   UNL     1      -6.057  12.653  22.649  0.00  0.00    +0.000 C 
ATOM     22  C   UNL     1      -5.751  14.855  23.778  0.00  0.00    +0.000 C 
ENDBRANCH  15  20
ENDBRANCH  14  16
ENDBRANCH   1  14
BRANCH   6  23
ATOM     23  C   UNL     1       1.441  10.327  18.114  0.00  0.00    +0.000 C 
BRANCH  23  24
ATOM     24  C   UNL     1       1.634   9.006  18.830  0.00  0.00    +0.000 A 
ATOM     25  C   UNL     1       1.182   8.816  20.144  0.00  0.00    +0.000 A 
ATOM     26  C   UNL     1       1.462   7.632  20.826  0.00  0.00    +0.000 A 
ATOM     27  C   UNL     1       2.163   6.612  20.189  0.00  0.00    +0.000 A 
ATOM     28  C   UNL     1       2.553   6.760  18.859  0.00  0.00    +0.000 A 
ATOM     29  C   UNL     1       2.282   7.947  18.178  0.00  0.00    +0.000 A 
ENDBRANCH  23  24
ENDBRANCH   6  23
TORSDOF 5
ENDMDL
MODEL 6
REMARK VINA RESULT:      -6.2      1.990      2.562
REMARK  Name = 
REMARK  8 active torsions:
REMARK  status: ('A' for Active; 'I' for Inactive)
REMARK    1  A    between atoms: C_1  and  C_2
REMARK    2  A    between atoms: C_2  and  C_3
REMARK    3  A    between atoms: C_2  and  C_4
REMARK    4  A    between atoms: C_2  and  N_5
REMARK    5  A    between atoms: C_6  and  C_8
REMARK    6  A    between atoms: C_8  and  N_9
REMARK    7  A    between atoms: N_14  and  C_15
REMARK    8  A    between atoms: C_15  and  C_16
REMARK                            x       y       z     vdW  Elec       q    Type
REMARK                         _______ _______ _______ _____ _____    ______ ____
ROOT
ATOM      1  N   UNL     1      -1.546  12.809  20.515  0.00  0.00    +0.000 N 
ATOM      2  C   UNL     1      -0.219  12.782  20.924  0.00  0.00    +0.000 A 
ATOM      3  O   UNL     1       0.168  13.286  21.975  0.00  0.00    +0.000 OA
ATOM      4  C   UNL     1       0.790  12.079  20.027  0.00  0.00    +0.000 A 
ATOM      5  O   UNL     1       1.982  12.326  20.188  0.00  0.00    +0.000 OA
ATOM      6  N   UNL     1       0.295  11.192  19.078  0.00  0.00    +0.000 N 
ATOM      7  C   UNL     1      -1.099  11.146  18.766  0.00  0.00    +0.000 A 
ATOM      8  C   UNL     1      -1.583  10.311  17.739  0.00  0.00    +0.000 A 
ATOM      9  C   UNL     1      -2.927  10.316  17.371  0.00  0.00    +0.000 A 
ATOM     10  C   UNL     1      -3.815  11.142  18.039  0.00  0.00    +0.000 A 
ATOM     11 CL   UNL     1      -5.471  11.164  17.575  0.00  0.00    +0.000 Cl
ATOM     12  C   UNL     1      -3.369  11.958  19.080  0.00  0.00    +0.000 A 
ATOM     13  C   UNL     1      -2.011  11.979  19.453  0.00  0.00    +0.000 A 
ENDROOT
BRANCH   1  14
ATOM     14  C   UNL     1      -2.456  13.612  21.330  0.00  0.00    +0.000 C 
BRANCH  14  16
ATOM     15  N   UNL     1      -1.579  15.452  19.966  0.00  0.00    +0.000 N 
ATOM     16  C   UNL     1      -2.206  15.110  21.149  0.00  0.00    +0.000 C 
ATOM     17  O   UNL     1      -2.578  15.919  21.996  0.00  0.00    +0.000 OA
ATOM     18  H   UNL     1      -1.451  14.707  19.280  0.00  0.00    +0.000 HD
BRANCH  15  20
ATOM     19  C   UNL     1      -2.504  17.686  19.451  0.00  0.00    +0.000 C 
ATOM     20  C   UNL     1      -1.238  16.823  19.558  0.00  0.00    +0.000 C 
ATOM     21  C   UNL     1      -0.476  16.820  18.224  0.00  0.00    +0.000 C 
ATOM     22  C   UNL     1      -0.326  17.448  20.632  0.00  0.00    +0.000 C 
ENDBRANCH  15  20
ENDBRANCH  14  16
ENDBRANCH   1  14
BRANCH   6  23
ATOM     23  C   UNL     1       1.286  10.439  18.306  0.00  0.00    +0.000 C 
BRANCH  23  24
ATOM     24  C   UNL     1       1.640   9.098  18.914  0.00  0.00    +0.000 A 
ATOM     25  C   UNL     1       2.357   8.134  18.189  0.00  0.00    +0.000 A 
ATOM     26  C   UNL     1       2.581   6.866  18.724  0.00  0.00    +0.000 A 
ATOM     27  C   UNL     1       2.126   6.560  20.003  0.00  0.00    +0.000 A 
ATOM     28  C   UNL     1       1.478   7.533  20.763  0.00  0.00    +0.000 A 
ATOM     29  C   UNL     1       1.243   8.800  20.226  0.00  0.00    +0.000 A 
ENDBRANCH  23  24
ENDBRANCH   6  23
TORSDOF 5
ENDMDL
MODEL 7
REMARK VINA RESULT:      -6.2      3.477      7.136
REMARK  Name = 
REMARK  8 active torsions:
REMARK  status: ('A' for Active; 'I' for Inactive)
REMARK    1  A    between atoms: C_1  and  C_2
REMARK    2  A    between atoms: C_2  and  C_3
REMARK    3  A    between atoms: C_2  and  C_4
REMARK    4  A    between atoms: C_2  and  N_5
REMARK    5  A    between atoms: C_6  and  C_8
REMARK    6  A    between atoms: C_8  and  N_9
REMARK    7  A    between atoms: N_14  and  C_15
REMARK    8  A    between atoms: C_15  and  C_16
REMARK                            x       y       z     vdW  Elec       q    Type
REMARK                         _______ _______ _______ _____ _____    ______ ____
ROOT
ATOM      1  N   UNL     1       0.075  12.967  20.231  0.00  0.00    +0.000 N 
ATOM      2  C   UNL     1      -0.696  14.113  20.371  0.00  0.00    +0.000 A 
ATOM      3  O   UNL     1      -0.768  14.982  19.505  0.00  0.00    +0.000 OA
ATOM      4  C   UNL     1      -1.495  14.284  21.655  0.00  0.00    +0.000 A 
ATOM      5  O   UNL     1      -1.901  15.406  21.942  0.00  0.00    +0.000 OA
ATOM      6  N   UNL     1      -1.720  13.148  22.425  0.00  0.00    +0.000 N 
ATOM      7  C   UNL     1      -1.007  11.935  22.178  0.00  0.00    +0.000 A 
ATOM      8  C   UNL     1      -1.171  10.814  23.018  0.00  0.00    +0.000 A 
ATOM      9  C   UNL     1      -0.423   9.653  22.835  0.00  0.00    +0.000 A 
ATOM     10  C   UNL     1       0.488   9.585  21.795  0.00  0.00    +0.000 A 
ATOM     11 CL   UNL     1       1.427   8.159  21.578  0.00  0.00    +0.000 Cl
ATOM     12  C   UNL     1       0.651  10.667  20.930  0.00  0.00    +0.000 A 
ATOM     13  C   UNL     1      -0.084  11.855  21.110  0.00  0.00    +0.000 A 
ENDROOT
BRANCH   1  14
ATOM     14  C   UNL     1       0.934  12.907  19.050  0.00  0.00    +0.000 C 
BRANCH  14  16
ATOM     15  N   UNL     1       2.242  14.846  18.311  0.00  0.00    +0.000 N 
ATOM     16  C   UNL     1       2.171  13.794  19.204  0.00  0.00    +0.000 C 
ATOM     17  O   UNL     1       2.998  13.575  20.085  0.00  0.00    +0.000 OA
ATOM     18  H   UNL     1       1.423  15.007  17.722  0.00  0.00    +0.000 HD
BRANCH  15  20
ATOM     19  C   UNL     1       4.660  15.167  17.911  0.00  0.00    +0.000 C 
ATOM     20  C   UNL     1       3.324  15.840  18.261  0.00  0.00    +0.000 C 
ATOM     21  C   UNL     1       3.436  16.591  19.597  0.00  0.00    +0.000 C 
ATOM     22  C   UNL     1       3.005  16.865  17.157  0.00  0.00    +0.000 C 
ENDBRANCH  15  20
ENDBRANCH  14  16
ENDBRANCH   1  14
BRANCH   6  23
ATOM     23  C   UNL     1      -2.589  13.311  23.593  0.00  0.00    +0.000 C 
BRANCH  23  24
ATOM     24  C   UNL     1      -4.047  13.014  23.312  0.00  0.00    +0.000 A 
ATOM     25  C   UNL     1      -4.533  12.915  22.000  0.00  0.00    +0.000 A 
ATOM     26  C   UNL     1      -5.897  12.748  21.759  0.00  0.00    +0.000 A 
ATOM     27  C   UNL     1      -6.783  12.639  22.827  0.00  0.00    +0.000 A 
ATOM     28  C   UNL     1      -6.303  12.660  24.135  0.00  0.00    +0.000 A 
ATOM     29  C   UNL     1      -4.941  12.837  24.379  0.00  0.00    +0.000 A 
ENDBRANCH  23  24
ENDBRANCH   6  23
TORSDOF 5
ENDMDL
MODEL 8
REMARK VINA RESULT:      -6.2      0.627      1.294
REMARK  Name = 
REMARK  8 active torsions:
REMARK  status: ('A' for Active; 'I' for Inactive)
REMARK    1  A    between atoms: C_1  and  C_2
REMARK    2  A    between atoms: C_2  and  C_3
REMARK    3  A    between atoms: C_2  and  C_4
REMARK    4  A    between atoms: C_2  and  N_5
REMARK    5  A    between atoms: C_6  and  C_8
REMARK    6  A    between atoms: C_8  and  N_9
REMARK    7  A    between atoms: N_14  and  C_15
REMARK    8  A    between atoms: C_15  and  C_16
REMARK                            x       y       z     vdW  Elec       q    Type
REMARK                         _______ _______ _______ _____ _____    ______ ____
ROOT
ATOM      1  N   UNL     1      -1.818  12.062  20.964  0.00  0.00    +0.000 N 
ATOM      2  C   UNL     1      -0.587  11.887  21.583  0.00  0.00    +0.000 A 
ATOM      3  O   UNL     1      -0.417  12.041  22.790  0.00  0.00    +0.000 OA
ATOM      4  C   UNL     1       0.594  11.470  20.718  0.00  0.00    +0.000 A 
ATOM      5  O   UNL     1       1.726  11.633  21.163  0.00  0.00    +0.000 OA
ATOM      6  N   UNL     1       0.312  10.922  19.471  0.00  0.00    +0.000 N 
ATOM      7  C   UNL     1      -0.999  11.001  18.908  0.00  0.00    +0.000 A 
ATOM      8  C   UNL     1      -1.257  10.526  17.606  0.00  0.00    +0.000 A 
ATOM      9  C   UNL     1      -2.512  10.668  17.016  0.00  0.00    +0.000 A 
ATOM     10  C   UNL     1      -3.536  11.270  17.727  0.00  0.00    +0.000 A 
ATOM     11 CL   UNL     1      -5.080  11.463  16.995  0.00  0.00    +0.000 Cl
ATOM     12  C   UNL     1      -3.318  11.723  19.029  0.00  0.00    +0.000 A 
ATOM     13  C   UNL     1      -2.051  11.603  19.634  0.00  0.00    +0.000 A 
ENDROOT
BRANCH   1  14
ATOM     14  C   UNL     1      -2.891  12.597  21.801  0.00  0.00    +0.000 C 
BRANCH  14  16
ATOM     15  N   UNL     1      -2.422  14.251  23.550  0.00  0.00    +0.000 N 
ATOM     16  C   UNL     1      -2.628  14.051  22.199  0.00  0.00    +0.000 C 
ATOM     17  O   UNL     1      -2.580  14.938  21.350  0.00  0.00    +0.000 OA
ATOM     18  H   UNL     1      -2.343  13.417  24.133  0.00  0.00    +0.000 HD
BRANCH  15  20
ATOM     19  C   UNL     1      -2.018  15.401  25.701  0.00  0.00    +0.000 C 
ATOM     20  C   UNL     1      -2.143  15.552  24.177  0.00  0.00    +0.000 C 
ATOM     21  C   UNL     1      -3.238  16.571  23.827  0.00  0.00    +0.000 C 
ATOM     22  C   UNL     1      -0.800  16.083  23.640  0.00  0.00    +0.000 C 
ENDBRANCH  15  20
ENDBRANCH  14  16
ENDBRANCH   1  14
BRANCH   6  23
ATOM     23  C   UNL     1       1.455  10.421  18.704  0.00  0.00    +0.000 C 
BRANCH  23  24
ATOM     24  C   UNL     1       1.780   8.967  18.977  0.00  0.00    +0.000 A 
ATOM     25  C   UNL     1       2.389   8.160  18.005  0.00  0.00    +0.000 A 
ATOM     26  C   UNL     1       2.584   6.798  18.234  0.00  0.00    +0.000 A 
ATOM     27  C   UNL     1       2.207   6.237  19.450  0.00  0.00    +0.000 A 
ATOM     28  C   UNL     1       1.669   7.042  20.452  0.00  0.00    +0.000 A 
ATOM     29  C   UNL     1       1.464   8.403  20.223  0.00  0.00    +0.000 A 
ENDBRANCH  23  24
ENDBRANCH   6  23
TORSDOF 5
ENDMDL
MODEL 9
REMARK VINA RESULT:      -6.2      7.607      9.423
REMARK  Name = 
REMARK  8 active torsions:
REMARK  status: ('A' for Active; 'I' for Inactive)
REMARK    1  A    between atoms: C_1  and  C_2
REMARK    2  A    between atoms: C_2  and  C_3
REMARK    3  A    between atoms: C_2  and  C_4
REMARK    4  A    between atoms: C_2  and  N_5
REMARK    5  A    between atoms: C_6  and  C_8
REMARK    6  A    between atoms: C_8  and  N_9
REMARK    7  A    between atoms: N_14  and  C_15
REMARK    8  A    between atoms: C_15  and  C_16
REMARK                            x       y       z     vdW  Elec       q    Type
REMARK                         _______ _______ _______ _____ _____    ______ ____
ROOT
ATOM      1  N   UNL     1       6.022  14.725  21.947  0.00  0.00    +0.000 N 
ATOM      2  C   UNL     1       6.772  15.534  21.105  0.00  0.00    +0.000 A 
ATOM      3  O   UNL     1       6.355  16.597  20.650  0.00  0.00    +0.000 OA
ATOM      4  C   UNL     1       8.181  15.082  20.748  0.00  0.00    +0.000 A 
ATOM      5  O   UNL     1       8.723  15.586  19.770  0.00  0.00    +0.000 OA
ATOM      6  N   UNL     1       8.770  14.121  21.563  0.00  0.00    +0.000 N 
ATOM      7  C   UNL     1       8.000  13.389  22.518  0.00  0.00    +0.000 A 
ATOM      8  C   UNL     1       8.582  12.353  23.276  0.00  0.00    +0.000 A 
ATOM      9  C   UNL     1       7.824  11.579  24.153  0.00  0.00    +0.000 A 
ATOM     10  C   UNL     1       6.472  11.843  24.302  0.00  0.00    +0.000 A 
ATOM     11 CL   UNL     1       5.530  10.878  25.369  0.00  0.00    +0.000 Cl
ATOM     12  C   UNL     1       5.875  12.881  23.586  0.00  0.00    +0.000 A 
ATOM     13  C   UNL     1       6.623  13.662  22.683  0.00  0.00    +0.000 A 
ENDROOT
BRANCH   1  14
ATOM     14  C   UNL     1       4.629  15.123  22.152  0.00  0.00    +0.000 C 
BRANCH  14  16
ATOM     15  N   UNL     1       3.688  15.235  19.890  0.00  0.00    +0.000 N 
ATOM     16  C   UNL     1       3.709  14.535  21.081  0.00  0.00    +0.000 C 
ATOM     17  O   UNL     1       3.078  13.501  21.289  0.00  0.00    +0.000 OA
ATOM     18  H   UNL     1       4.364  15.993  19.789  0.00  0.00    +0.000 HD
BRANCH  15  20
ATOM     19  C   UNL     1       3.025  13.366  18.413  0.00  0.00    +0.000 C 
ATOM     20  C   UNL     1       2.893  14.868  18.710  0.00  0.00    +0.000 C 
ATOM     21  C   UNL     1       3.318  15.696  17.487  0.00  0.00    +0.000 C 
ATOM     22  C   UNL     1       1.409  15.165  19.001  0.00  0.00    +0.000 C 
ENDBRANCH  15  20
ENDBRANCH  14  16
ENDBRANCH   1  14
BRANCH   6  23
ATOM     23  C   UNL     1      10.166  13.785  21.273  0.00  0.00    +0.000 C 
BRANCH  23  24
ATOM     24  C   UNL     1      10.338  12.895  20.059  0.00  0.00    +0.000 A 
ATOM     25  C   UNL     1      11.214  13.241  19.019  0.00  0.00    +0.000 A 
ATOM     26  C   UNL     1      11.281  12.467  17.862  0.00  0.00    +0.000 A 
ATOM     27  C   UNL     1      10.503  11.319  17.747  0.00  0.00    +0.000 A 
ATOM     28  C   UNL     1       9.684  10.924  18.804  0.00  0.00    +0.000 A 
ATOM     29  C   UNL     1       9.608  11.702  19.959  0.00  0.00    +0.000 A 
ENDBRANCH  23  24
ENDBRANCH   6  23
TORSDOF 5
ENDMDL
