MODEL 1
REMARK VINA RESULT:      -7.9      0.000      0.000
REMARK  Name = 
REMARK  4 active torsions:
REMARK  status: ('A' for Active; 'I' for Inactive)
REMARK    1  A    between atoms: C_1  and  C_2
REMARK    2  A    between atoms: C_2  and  C_3
REMARK    3  A    between atoms: N_5  and  C_6
REMARK    4  A    between atoms: N_20  and  C_21
REMARK                            x       y       z     vdW  Elec       q    Type
REMARK                         _______ _______ _______ _____ _____    ______ ____
ROOT
ATOM      1  C   UNL     1       2.703   5.008  17.743  0.00  0.00    +0.000 C 
ATOM      2  O   UNL     1       1.500   4.746  17.784  0.00  0.00    +0.000 OA
ATOM      3  N   UNL     1       3.239   6.250  18.049  0.00  0.00    +0.000 N 
ATOM      4  H   UNL     1       4.193   6.416  17.742  0.00  0.00    +0.000 HD
ENDROOT
BRANCH   3   5
ATOM      5  C   UNL     1       2.512   7.351  18.563  0.00  0.00    +0.000 A 
ATOM      6  C   UNL     1       2.091   8.416  17.753  0.00  0.00    +0.000 A 
ATOM      7  C   UNL     1       1.359   9.485  18.279  0.00  0.00    +0.000 A 
ATOM      8  C   UNL     1       1.034   9.506  19.624  0.00  0.00    +0.000 A 
ATOM      9  C   UNL     1       1.421   8.444  20.448  0.00  0.00    +0.000 A 
ATOM     10  C   UNL     1       2.162   7.372  19.923  0.00  0.00    +0.000 A 
ATOM     11  O   UNL     1       1.112   8.400  21.784  0.00  0.00    +0.000 OA
ATOM     12  C   UNL     1       0.063   9.325  22.111  0.00  0.00    +0.000 C 
ATOM     13  C   UNL     1       0.310  10.686  21.479  0.00  0.00    +0.000 C 
ATOM     14  O   UNL     1       0.318  10.590  20.054  0.00  0.00    +0.000 OA
ENDBRANCH   3   5
BRANCH   1  16
ATOM     15  C   UNL     1       4.303   4.034  16.084  0.00  0.00    +0.000 C 
ATOM     16  C   UNL     1       3.721   3.856  17.496  0.00  0.00    +0.000 C 
ATOM     17  C   UNL     1       2.967   2.516  17.563  0.00  0.00    +0.000 C 
ATOM     18  C   UNL     1       3.126   2.040  18.998  0.00  0.00    +0.000 C 
ATOM     19  C   UNL     1       4.429   2.658  19.416  0.00  0.00    +0.000 C 
ATOM     20  O   UNL     1       5.099   2.297  20.371  0.00  0.00    +0.000 OA
ATOM     21  N   UNL     1       4.714   3.717  18.552  0.00  0.00    +0.000 N 
BRANCH  21  22
ATOM     22  C   UNL     1       6.004   4.336  18.526  0.00  0.00    +0.000 C 
ATOM     23  C   UNL     1       6.276   5.716  17.999  0.00  0.00    +0.000 C 
ATOM     24  C   UNL     1       6.312   5.466  19.475  0.00  0.00    +0.000 C 
ENDBRANCH  21  22
ENDBRANCH   1  16
TORSDOF 3
ENDMDL
MODEL 2
REMARK VINA RESULT:      -7.6      1.745      2.791
REMARK  Name = 
REMARK  4 active torsions:
REMARK  status: ('A' for Active; 'I' for Inactive)
REMARK    1  A    between atoms: C_1  and  C_2
REMARK    2  A    between atoms: C_2  and  C_3
REMARK    3  A    between atoms: N_5  and  C_6
REMARK    4  A    between atoms: N_20  and  C_21
REMARK                            x       y       z     vdW  Elec       q    Type
REMARK                         _______ _______ _______ _____ _____    ______ ____
ROOT
ATOM      1  C   UNL     1       3.696   5.556  18.831  0.00  0.00    +0.000 C 
ATOM      2  O   UNL     1       4.606   6.259  18.389  0.00  0.00    +0.000 OA
ATOM      3  N   UNL     1       2.485   6.051  19.293  0.00  0.00    +0.000 N 
ATOM      4  H   UNL     1       1.926   5.417  19.857  0.00  0.00    +0.000 HD
ENDROOT
BRANCH   3   5
ATOM      5  C   UNL     1       2.072   7.403  19.217  0.00  0.00    +0.000 A 
ATOM      6  C   UNL     1       2.082   8.125  18.014  0.00  0.00    +0.000 A 
ATOM      7  C   UNL     1       1.654   9.455  17.960  0.00  0.00    +0.000 A 
ATOM      8  C   UNL     1       1.205  10.085  19.108  0.00  0.00    +0.000 A 
ATOM      9  C   UNL     1       1.161   9.379  20.315  0.00  0.00    +0.000 A 
ATOM     10  C   UNL     1       1.598   8.046  20.372  0.00  0.00    +0.000 A 
ATOM     11  O   UNL     1       0.710   9.945  21.481  0.00  0.00    +0.000 OA
ATOM     12  C   UNL     1      -0.041  11.142  21.226  0.00  0.00    +0.000 C 
ATOM     13  C   UNL     1       0.671  12.040  20.227  0.00  0.00    +0.000 C 
ATOM     14  O   UNL     1       0.806  11.387  18.964  0.00  0.00    +0.000 OA
ENDBRANCH   3   5
BRANCH   1  16
ATOM     15  C   UNL     1       5.140   3.590  19.385  0.00  0.00    +0.000 C 
ATOM     16  C   UNL     1       3.816   4.007  18.727  0.00  0.00    +0.000 C 
ATOM     17  C   UNL     1       3.850   3.620  17.237  0.00  0.00    +0.000 C 
ATOM     18  C   UNL     1       2.408   3.304  16.874  0.00  0.00    +0.000 C 
ATOM     19  C   UNL     1       1.825   2.841  18.178  0.00  0.00    +0.000 C 
ATOM     20  O   UNL     1       0.794   2.197  18.292  0.00  0.00    +0.000 OA
ATOM     21  N   UNL     1       2.642   3.296  19.214  0.00  0.00    +0.000 N 
BRANCH  21  22
ATOM     22  C   UNL     1       2.500   2.804  20.550  0.00  0.00    +0.000 C 
ATOM     23  C   UNL     1       2.381   3.673  21.770  0.00  0.00    +0.000 C 
ATOM     24  C   UNL     1       1.179   2.939  21.263  0.00  0.00    +0.000 C 
ENDBRANCH  21  22
ENDBRANCH   1  16
TORSDOF 3
ENDMDL
MODEL 3
REMARK VINA RESULT:      -7.5      2.081      3.213
REMARK  Name = 
REMARK  4 active torsions:
REMARK  status: ('A' for Active; 'I' for Inactive)
REMARK    1  A    between atoms: C_1  and  C_2
REMARK    2  A    between atoms: C_2  and  C_3
REMARK    3  A    between atoms: N_5  and  C_6
REMARK    4  A    between atoms: N_20  and  C_21
REMARK                            x       y       z     vdW  Elec       q    Type
REMARK                         _______ _______ _______ _____ _____    ______ ____
ROOT
ATOM      1  C   UNL     1       2.610   6.696  19.082  0.00  0.00    +0.000 C 
ATOM      2  O   UNL     1       2.540   7.303  18.012  0.00  0.00    +0.000 OA
ATOM      3  N   UNL     1       2.160   7.201  20.293  0.00  0.00    +0.000 N 
ATOM      4  H   UNL     1       2.494   6.728  21.128  0.00  0.00    +0.000 HD
ENDROOT
BRANCH   3   5
ATOM      5  C   UNL     1       1.456   8.418  20.461  0.00  0.00    +0.000 A 
ATOM      6  C   UNL     1       1.167   9.273  19.388  0.00  0.00    +0.000 A 
ATOM      7  C   UNL     1       0.456  10.462  19.575  0.00  0.00    +0.000 A 
ATOM      8  C   UNL     1       0.021  10.816  20.841  0.00  0.00    +0.000 A 
ATOM      9  C   UNL     1       0.275   9.968  21.924  0.00  0.00    +0.000 A 
ATOM     10  C   UNL     1       0.995   8.776  21.739  0.00  0.00    +0.000 A 
ATOM     11  O   UNL     1      -0.147  10.257  23.198  0.00  0.00    +0.000 OA
ATOM     12  C   UNL     1      -1.165  11.269  23.196  0.00  0.00    +0.000 C 
ATOM     13  C   UNL     1      -0.789  12.430  22.289  0.00  0.00    +0.000 C 
ATOM     14  O   UNL     1      -0.666  11.997  20.934  0.00  0.00    +0.000 OA
ENDBRANCH   3   5
BRANCH   1  16
ATOM     15  C   UNL     1       4.500   5.159  19.652  0.00  0.00    +0.000 C 
ATOM     16  C   UNL     1       3.074   5.210  19.081  0.00  0.00    +0.000 C 
ATOM     17  C   UNL     1       3.098   4.708  17.626  0.00  0.00    +0.000 C 
ATOM     18  C   UNL     1       1.746   4.047  17.410  0.00  0.00    +0.000 C 
ATOM     19  C   UNL     1       1.372   3.585  18.789  0.00  0.00    +0.000 C 
ATOM     20  O   UNL     1       0.526   2.740  19.037  0.00  0.00    +0.000 OA
ATOM     21  N   UNL     1       2.130   4.302  19.717  0.00  0.00    +0.000 N 
BRANCH  21  22
ATOM     22  C   UNL     1       2.193   3.913  21.092  0.00  0.00    +0.000 C 
ATOM     23  C   UNL     1       1.377   2.810  21.704  0.00  0.00    +0.000 C 
ATOM     24  C   UNL     1       2.842   2.608  21.473  0.00  0.00    +0.000 C 
ENDBRANCH  21  22
ENDBRANCH   1  16
TORSDOF 3
ENDMDL
MODEL 4
REMARK VINA RESULT:      -7.5      1.571      2.398
REMARK  Name = 
REMARK  4 active torsions:
REMARK  status: ('A' for Active; 'I' for Inactive)
REMARK    1  A    between atoms: C_1  and  C_2
REMARK    2  A    between atoms: C_2  and  C_3
REMARK    3  A    between atoms: N_5  and  C_6
REMARK    4  A    between atoms: N_20  and  C_21
REMARK                            x       y       z     vdW  Elec       q    Type
REMARK                         _______ _______ _______ _____ _____    ______ ____
ROOT
ATOM      1  C   UNL     1       3.069   5.465  17.919  0.00  0.00    +0.000 C 
ATOM      2  O   UNL     1       1.932   4.995  17.980  0.00  0.00    +0.000 OA
ATOM      3  N   UNL     1       3.377   6.791  18.184  0.00  0.00    +0.000 N 
ATOM      4  H   UNL     1       4.285   7.115  17.863  0.00  0.00    +0.000 HD
ENDROOT
BRANCH   3   5
ATOM      5  C   UNL     1       2.468   7.761  18.672  0.00  0.00    +0.000 A 
ATOM      6  C   UNL     1       1.897   8.738  17.844  0.00  0.00    +0.000 A 
ATOM      7  C   UNL     1       0.988   9.675  18.344  0.00  0.00    +0.000 A 
ATOM      8  C   UNL     1       0.634   9.650  19.683  0.00  0.00    +0.000 A 
ATOM      9  C   UNL     1       1.170   8.670  20.524  0.00  0.00    +0.000 A 
ATOM     10  C   UNL     1       2.088   7.732  20.024  0.00  0.00    +0.000 A 
ATOM     11  O   UNL     1       0.843   8.583  21.854  0.00  0.00    +0.000 OA
ATOM     12  C   UNL     1      -0.350   9.325  22.149  0.00  0.00    +0.000 C 
ATOM     13  C   UNL     1      -0.316  10.705  21.512  0.00  0.00    +0.000 C 
ATOM     14  O   UNL     1      -0.260  10.604  20.088  0.00  0.00    +0.000 OA
ENDBRANCH   3   5
BRANCH   1  16
ATOM     15  C   UNL     1       3.722   3.153  17.221  0.00  0.00    +0.000 C 
ATOM     16  C   UNL     1       4.275   4.506  17.696  0.00  0.00    +0.000 C 
ATOM     17  C   UNL     1       4.997   4.309  19.041  0.00  0.00    +0.000 C 
ATOM     18  C   UNL     1       6.113   5.341  19.049  0.00  0.00    +0.000 C 
ATOM     19  C   UNL     1       6.414   5.525  17.589  0.00  0.00    +0.000 C 
ATOM     20  O   UNL     1       7.438   6.018  17.144  0.00  0.00    +0.000 OA
ATOM     21  N   UNL     1       5.320   5.068  16.852  0.00  0.00    +0.000 N 
BRANCH  21  22
ATOM     22  C   UNL     1       5.402   4.868  15.438  0.00  0.00    +0.000 C 
ATOM     23  C   UNL     1       6.651   5.050  14.623  0.00  0.00    +0.000 C 
ATOM     24  C   UNL     1       6.134   3.670  14.890  0.00  0.00    +0.000 C 
ENDBRANCH  21  22
ENDBRANCH   1  16
TORSDOF 3
ENDMDL
MODEL 5
REMARK VINA RESULT:      -7.5      0.826      1.644
REMARK  Name = 
REMARK  4 active torsions:
REMARK  status: ('A' for Active; 'I' for Inactive)
REMARK    1  A    between atoms: C_1  and  C_2
REMARK    2  A    between atoms: C_2  and  C_3
REMARK    3  A    between atoms: N_5  and  C_6
REMARK    4  A    between atoms: N_20  and  C_21
REMARK                            x       y       z     vdW  Elec       q    Type
REMARK                         _______ _______ _______ _____ _____    ______ ____
ROOT
ATOM      1  C   UNL     1       2.664   5.028  17.850  0.00  0.00    +0.000 C 
ATOM      2  O   UNL     1       1.466   4.861  17.613  0.00  0.00    +0.000 OA
ATOM      3  N   UNL     1       3.178   6.133  18.513  0.00  0.00    +0.000 N 
ATOM      4  H   UNL     1       4.179   6.282  18.428  0.00  0.00    +0.000 HD
ENDROOT
BRANCH   3   5
ATOM      5  C   UNL     1       2.408   7.159  19.112  0.00  0.00    +0.000 A 
ATOM      6  C   UNL     1       1.952   7.079  20.436  0.00  0.00    +0.000 A 
ATOM      7  C   UNL     1       1.207   8.112  21.013  0.00  0.00    +0.000 A 
ATOM      8  C   UNL     1       0.906   9.244  20.274  0.00  0.00    +0.000 A 
ATOM      9  C   UNL     1       1.369   9.358  18.959  0.00  0.00    +0.000 A 
ATOM     10  C   UNL     1       2.113   8.318  18.377  0.00  0.00    +0.000 A 
ATOM     11  O   UNL     1       1.118  10.463  18.185  0.00  0.00    +0.000 OA
ATOM     12  C   UNL     1       0.697  11.579  18.984  0.00  0.00    +0.000 C 
ATOM     13  C   UNL     1      -0.357  11.165  20.000  0.00  0.00    +0.000 C 
ATOM     14  O   UNL     1       0.171  10.204  20.916  0.00  0.00    +0.000 OA
ENDBRANCH   3   5
BRANCH   1  16
ATOM     15  C   UNL     1       4.189   4.067  16.115  0.00  0.00    +0.000 C 
ATOM     16  C   UNL     1       3.665   3.875  17.547  0.00  0.00    +0.000 C 
ATOM     17  C   UNL     1       2.907   2.537  17.630  0.00  0.00    +0.000 C 
ATOM     18  C   UNL     1       3.122   2.043  19.051  0.00  0.00    +0.000 C 
ATOM     19  C   UNL     1       4.445   2.650  19.422  0.00  0.00    +0.000 C 
ATOM     20  O   UNL     1       5.152   2.274  20.344  0.00  0.00    +0.000 OA
ATOM     21  N   UNL     1       4.699   3.718  18.560  0.00  0.00    +0.000 N 
BRANCH  21  22
ATOM     22  C   UNL     1       5.990   4.332  18.489  0.00  0.00    +0.000 C 
ATOM     23  C   UNL     1       6.245   5.726  17.990  0.00  0.00    +0.000 C 
ATOM     24  C   UNL     1       6.352   5.431  19.454  0.00  0.00    +0.000 C 
ENDBRANCH  21  22
ENDBRANCH   1  16
TORSDOF 3
ENDMDL
MODEL 6
REMARK VINA RESULT:      -7.5      1.378      1.469
REMARK  Name = 
REMARK  4 active torsions:
REMARK  status: ('A' for Active; 'I' for Inactive)
REMARK    1  A    between atoms: C_1  and  C_2
REMARK    2  A    between atoms: C_2  and  C_3
REMARK    3  A    between atoms: N_5  and  C_6
REMARK    4  A    between atoms: N_20  and  C_21
REMARK                            x       y       z     vdW  Elec       q    Type
REMARK                         _______ _______ _______ _____ _____    ______ ____
ROOT
ATOM      1  C   UNL     1       3.991   6.681  17.829  0.00  0.00    +0.000 C 
ATOM      2  O   UNL     1       4.525   7.700  17.386  0.00  0.00    +0.000 OA
ATOM      3  N   UNL     1       2.857   6.682  18.627  0.00  0.00    +0.000 N 
ATOM      4  H   UNL     1       2.661   5.822  19.130  0.00  0.00    +0.000 HD
ENDROOT
BRANCH   3   5
ATOM      5  C   UNL     1       2.083   7.824  18.948  0.00  0.00    +0.000 A 
ATOM      6  C   UNL     1       1.610   8.710  17.970  0.00  0.00    +0.000 A 
ATOM      7  C   UNL     1       0.834   9.822  18.309  0.00  0.00    +0.000 A 
ATOM      8  C   UNL     1       0.517  10.066  19.634  0.00  0.00    +0.000 A 
ATOM      9  C   UNL     1       0.956   9.184  20.627  0.00  0.00    +0.000 A 
ATOM     10  C   UNL     1       1.741   8.070  20.288  0.00  0.00    +0.000 A 
ATOM     11  O   UNL     1       0.658   9.364  21.954  0.00  0.00    +0.000 OA
ATOM     12  C   UNL     1      -0.429  10.285  22.127  0.00  0.00    +0.000 C 
ATOM     13  C   UNL     1      -0.249  11.523  21.263  0.00  0.00    +0.000 C 
ATOM     14  O   UNL     1      -0.245  11.178  19.877  0.00  0.00    +0.000 OA
ENDBRANCH   3   5
BRANCH   1  16
ATOM     15  C   UNL     1       5.071   5.456  15.933  0.00  0.00    +0.000 C 
ATOM     16  C   UNL     1       4.499   5.289  17.349  0.00  0.00    +0.000 C 
ATOM     17  C   UNL     1       3.301   4.325  17.298  0.00  0.00    +0.000 C 
ATOM     18  C   UNL     1       3.305   3.610  18.639  0.00  0.00    +0.000 C 
ATOM     19  C   UNL     1       4.755   3.636  19.030  0.00  0.00    +0.000 C 
ATOM     20  O   UNL     1       5.265   2.913  19.872  0.00  0.00    +0.000 OA
ATOM     21  N   UNL     1       5.394   4.637  18.295  0.00  0.00    +0.000 N 
BRANCH  21  22
ATOM     22  C   UNL     1       6.820   4.737  18.250  0.00  0.00    +0.000 C 
ATOM     23  C   UNL     1       7.575   5.971  17.843  0.00  0.00    +0.000 C 
ATOM     24  C   UNL     1       7.547   5.560  19.282  0.00  0.00    +0.000 C 
ENDBRANCH  21  22
ENDBRANCH   1  16
TORSDOF 3
ENDMDL
MODEL 7
REMARK VINA RESULT:      -7.3      1.698      2.717
REMARK  Name = 
REMARK  4 active torsions:
REMARK  status: ('A' for Active; 'I' for Inactive)
REMARK    1  A    between atoms: C_1  and  C_2
REMARK    2  A    between atoms: C_2  and  C_3
REMARK    3  A    between atoms: N_5  and  C_6
REMARK    4  A    between atoms: N_20  and  C_21
REMARK                            x       y       z     vdW  Elec       q    Type
REMARK                         _______ _______ _______ _____ _____    ______ ____
ROOT
ATOM      1  C   UNL     1       2.557   6.008  18.716  0.00  0.00    +0.000 C 
ATOM      2  O   UNL     1       1.631   6.068  17.905  0.00  0.00    +0.000 OA
ATOM      3  N   UNL     1       2.777   6.946  19.715  0.00  0.00    +0.000 N 
ATOM      4  H   UNL     1       3.694   6.931  20.151  0.00  0.00    +0.000 HD
ENDROOT
BRANCH   3   5
ATOM      5  C   UNL     1       1.919   8.029  20.023  0.00  0.00    +0.000 A 
ATOM      6  C   UNL     1       1.452   8.920  19.046  0.00  0.00    +0.000 A 
ATOM      7  C   UNL     1       0.592   9.973  19.372  0.00  0.00    +0.000 A 
ATOM      8  C   UNL     1       0.182  10.151  20.682  0.00  0.00    +0.000 A 
ATOM      9  C   UNL     1       0.613   9.262  21.671  0.00  0.00    +0.000 A 
ATOM     10  C   UNL     1       1.483   8.208  21.347  0.00  0.00    +0.000 A 
ATOM     11  O   UNL     1       0.226   9.378  22.983  0.00  0.00    +0.000 OA
ATOM     12  C   UNL     1      -0.923  10.227  23.117  0.00  0.00    +0.000 C 
ATOM     13  C   UNL     1      -0.766  11.503  22.305  0.00  0.00    +0.000 C 
ATOM     14  O   UNL     1      -0.658  11.207  20.912  0.00  0.00    +0.000 OA
ENDBRANCH   3   5
BRANCH   1  16
ATOM     15  C   UNL     1       4.712   5.065  19.568  0.00  0.00    +0.000 C 
ATOM     16  C   UNL     1       3.451   4.734  18.754  0.00  0.00    +0.000 C 
ATOM     17  C   UNL     1       3.862   4.385  17.312  0.00  0.00    +0.000 C 
ATOM     18  C   UNL     1       2.833   3.371  16.839  0.00  0.00    +0.000 C 
ATOM     19  C   UNL     1       2.404   2.705  18.115  0.00  0.00    +0.000 C 
ATOM     20  O   UNL     1       1.832   1.629  18.183  0.00  0.00    +0.000 OA
ATOM     21  N   UNL     1       2.744   3.537  19.184  0.00  0.00    +0.000 N 
BRANCH  21  22
ATOM     22  C   UNL     1       2.703   3.071  20.536  0.00  0.00    +0.000 C 
ATOM     23  C   UNL     1       2.295   3.911  21.714  0.00  0.00    +0.000 C 
ATOM     24  C   UNL     1       1.375   2.842  21.211  0.00  0.00    +0.000 C 
ENDBRANCH  21  22
ENDBRANCH   1  16
TORSDOF 3
ENDMDL
MODEL 8
REMARK VINA RESULT:      -7.3      1.118      1.483
REMARK  Name = 
REMARK  4 active torsions:
REMARK  status: ('A' for Active; 'I' for Inactive)
REMARK    1  A    between atoms: C_1  and  C_2
REMARK    2  A    between atoms: C_2  and  C_3
REMARK    3  A    between atoms: N_5  and  C_6
REMARK    4  A    between atoms: N_20  and  C_21
REMARK                            x       y       z     vdW  Elec       q    Type
REMARK                         _______ _______ _______ _____ _____    ______ ____
ROOT
ATOM      1  C   UNL     1       2.638   5.331  17.954  0.00  0.00    +0.000 C 
ATOM      2  O   UNL     1       1.445   5.030  17.887  0.00  0.00    +0.000 OA
ATOM      3  N   UNL     1       3.103   6.587  18.317  0.00  0.00    +0.000 N 
ATOM      4  H   UNL     1       4.074   6.788  18.096  0.00  0.00    +0.000 HD
ENDROOT
BRANCH   3   5
ATOM      5  C   UNL     1       2.296   7.658  18.773  0.00  0.00    +0.000 A 
ATOM      6  C   UNL     1       1.802   8.646  17.909  0.00  0.00    +0.000 A 
ATOM      7  C   UNL     1       0.993   9.685  18.379  0.00  0.00    +0.000 A 
ATOM      8  C   UNL     1       0.663   9.752  19.722  0.00  0.00    +0.000 A 
ATOM      9  C   UNL     1       1.123   8.765  20.599  0.00  0.00    +0.000 A 
ATOM     10  C   UNL     1       1.941   7.724  20.130  0.00  0.00    +0.000 A 
ATOM     11  O   UNL     1       0.814   8.769  21.936  0.00  0.00    +0.000 OA
ATOM     12  C   UNL     1      -0.300   9.631  22.215  0.00  0.00    +0.000 C 
ATOM     13  C   UNL     1      -0.151  10.972  21.513  0.00  0.00    +0.000 C 
ATOM     14  O   UNL     1      -0.131  10.803  20.095  0.00  0.00    +0.000 OA
ENDBRANCH   3   5
BRANCH   1  16
ATOM     15  C   UNL     1       3.376   3.420  16.518  0.00  0.00    +0.000 C 
ATOM     16  C   UNL     1       3.712   4.217  17.789  0.00  0.00    +0.000 C 
ATOM     17  C   UNL     1       3.632   3.278  19.006  0.00  0.00    +0.000 C 
ATOM     18  C   UNL     1       4.664   3.809  19.988  0.00  0.00    +0.000 C 
ATOM     19  C   UNL     1       5.678   4.460  19.092  0.00  0.00    +0.000 C 
ATOM     20  O   UNL     1       6.821   4.740  19.419  0.00  0.00    +0.000 OA
ATOM     21  N   UNL     1       5.080   4.710  17.855  0.00  0.00    +0.000 N 
BRANCH  21  22
ATOM     22  C   UNL     1       5.855   5.083  16.712  0.00  0.00    +0.000 C 
ATOM     23  C   UNL     1       5.343   5.914  15.570  0.00  0.00    +0.000 C 
ATOM     24  C   UNL     1       6.310   6.510  16.546  0.00  0.00    +0.000 C 
ENDBRANCH  21  22
ENDBRANCH   1  16
TORSDOF 3
ENDMDL
MODEL 9
REMARK VINA RESULT:      -7.2      1.609      2.460
REMARK  Name = 
REMARK  4 active torsions:
REMARK  status: ('A' for Active; 'I' for Inactive)
REMARK    1  A    between atoms: C_1  and  C_2
REMARK    2  A    between atoms: C_2  and  C_3
REMARK    3  A    between atoms: N_5  and  C_6
REMARK    4  A    between atoms: N_20  and  C_21
REMARK                            x       y       z     vdW  Elec       q    Type
REMARK                         _______ _______ _______ _____ _____    ______ ____
ROOT
ATOM      1  C   UNL     1       2.622   5.485  18.325  0.00  0.00    +0.000 C 
ATOM      2  O   UNL     1       1.551   5.339  17.733  0.00  0.00    +0.000 OA
ATOM      3  N   UNL     1       3.036   6.678  18.900  0.00  0.00    +0.000 N 
ATOM      4  H   UNL     1       4.023   6.745  19.133  0.00  0.00    +0.000 HD
ENDROOT
BRANCH   3   5
ATOM      5  C   UNL     1       2.254   7.854  18.996  0.00  0.00    +0.000 A 
ATOM      6  C   UNL     1       1.965   8.657  17.883  0.00  0.00    +0.000 A 
ATOM      7  C   UNL     1       1.177   9.806  18.000  0.00  0.00    +0.000 A 
ATOM      8  C   UNL     1       0.663  10.170  19.232  0.00  0.00    +0.000 A 
ATOM      9  C   UNL     1       0.916   9.373  20.353  0.00  0.00    +0.000 A 
ATOM     10  C   UNL     1       1.713   8.222  20.239  0.00  0.00    +0.000 A 
ATOM     11  O   UNL     1       0.419   9.674  21.596  0.00  0.00    +0.000 OA
ATOM     12  C   UNL     1      -0.656  10.622  21.516  0.00  0.00    +0.000 C 
ATOM     13  C   UNL     1      -0.308  11.776  20.589  0.00  0.00    +0.000 C 
ATOM     14  O   UNL     1      -0.096  11.310  19.256  0.00  0.00    +0.000 OA
ENDBRANCH   3   5
BRANCH   1  16
ATOM     15  C   UNL     1       4.807   4.719  19.272  0.00  0.00    +0.000 C 
ATOM     16  C   UNL     1       3.510   4.237  18.605  0.00  0.00    +0.000 C 
ATOM     17  C   UNL     1       3.853   3.572  17.259  0.00  0.00    +0.000 C 
ATOM     18  C   UNL     1       2.799   2.495  17.065  0.00  0.00    +0.000 C 
ATOM     19  C   UNL     1       2.424   2.133  18.474  0.00  0.00    +0.000 C 
ATOM     20  O   UNL     1       1.849   1.107  18.802  0.00  0.00    +0.000 OA
ATOM     21  N   UNL     1       2.816   3.174  19.317  0.00  0.00    +0.000 N 
BRANCH  21  22
ATOM     22  C   UNL     1       2.832   3.018  20.740  0.00  0.00    +0.000 C 
ATOM     23  C   UNL     1       2.334   4.047  21.715  0.00  0.00    +0.000 C 
ATOM     24  C   UNL     1       1.542   2.797  21.486  0.00  0.00    +0.000 C 
ENDBRANCH  21  22
ENDBRANCH   1  16
TORSDOF 3
ENDMDL
