MODEL 1
REMARK VINA RESULT:      -6.8      0.000      0.000
REMARK  Name = 
REMARK  7 active torsions:
REMARK  status: ('A' for Active; 'I' for Inactive)
REMARK    1  A    between atoms: C_1  and  O_2
REMARK    2  A    between atoms: O_2  and  C_3
REMARK    3  A    between atoms: C_3  and  C_4
REMARK    4  A    between atoms: C_4  and  N_5
REMARK    5  A    between atoms: C_13  and  N_14
REMARK    6  A    between atoms: N_14  and  C_15
REMARK    7  A    between atoms: C_15  and  C_16
REMARK                            x       y       z     vdW  Elec       q    Type
REMARK                         _______ _______ _______ _____ _____    ______ ____
ROOT
ATOM      1  N   UNL     1       2.981   2.829  20.452  0.00  0.00    +0.000 N 
ATOM      2  C   UNL     1       1.752   2.694  21.089  0.00  0.00    +0.000 C 
ATOM      3  O   UNL     1       1.540   2.253  22.202  0.00  0.00    +0.000 OA
ATOM      4  C   UNL     1       0.679   3.152  20.138  0.00  0.00    +0.000 C 
ATOM      5  C   UNL     1       1.439   4.036  19.162  0.00  0.00    +0.000 C 
ATOM      6  C   UNL     1       2.865   3.450  19.126  0.00  0.00    +0.000 C 
ATOM      7  C   UNL     1       3.896   4.586  18.917  0.00  0.00    +0.000 C 
ATOM      8  C   UNL     1       3.924   5.115  17.482  0.00  0.00    +0.000 C 
ATOM      9  C   UNL     1       4.156   3.994  16.452  0.00  0.00    +0.000 C 
ATOM     10  C   UNL     1       3.027   2.963  16.609  0.00  0.00    +0.000 C 
ATOM     11  C   UNL     1       2.975   2.369  18.021  0.00  0.00    +0.000 C 
ENDROOT
BRANCH   9  12
ATOM     12  N   UNL     1       5.502   3.439  16.627  0.00  0.00    +0.000 NA
ATOM     13  H   UNL     1       5.611   2.542  16.146  0.00  0.00    +0.000 HD
BRANCH  12  14
ATOM     14  C   UNL     1       6.575   4.316  16.138  0.00  0.00    +0.000 C 
BRANCH  14  15
ATOM     15  C   UNL     1       7.158   5.135  17.262  0.00  0.00    +0.000 A 
ATOM     16  N   UNL     1       7.619   4.620  18.387  0.00  0.00    +0.000 NA
ATOM     17  C   UNL     1       8.100   5.632  19.194  0.00  0.00    +0.000 A 
ATOM     18  C   UNL     1       8.015   6.903  18.670  0.00  0.00    +0.000 A 
ATOM     19  S   UNL     1       7.304   6.841  17.113  0.00  0.00    +0.000 S 
ENDBRANCH  14  15
ENDBRANCH  12  14
ENDBRANCH   9  12
BRANCH   1  20
ATOM     20  C   UNL     1       4.280   2.587  21.083  0.00  0.00    +0.000 C 
BRANCH  20  21
ATOM     21  C   UNL     1       4.933   1.217  20.890  0.00  0.00    +0.000 C 
BRANCH  21  23
ATOM     22  C   UNL     1       6.246  -0.265  22.184  0.00  0.00    +0.000 C 
ATOM     23  O   UNL     1       5.974   1.093  21.870  0.00  0.00    +0.000 OA
ENDBRANCH  21  23
ENDBRANCH  20  21
ENDBRANCH   1  20
TORSDOF 6
ENDMDL
MODEL 2
REMARK VINA RESULT:      -6.7      4.222      6.603
REMARK  Name = 
REMARK  7 active torsions:
REMARK  status: ('A' for Active; 'I' for Inactive)
REMARK    1  A    between atoms: C_1  and  O_2
REMARK    2  A    between atoms: O_2  and  C_3
REMARK    3  A    between atoms: C_3  and  C_4
REMARK    4  A    between atoms: C_4  and  N_5
REMARK    5  A    between atoms: C_13  and  N_14
REMARK    6  A    between atoms: N_14  and  C_15
REMARK    7  A    between atoms: C_15  and  C_16
REMARK                            x       y       z     vdW  Elec       q    Type
REMARK                         _______ _______ _______ _____ _____    ______ ____
ROOT
ATOM      1  N   UNL     1       6.183   5.382  17.421  0.00  0.00    +0.000 N 
ATOM      2  C   UNL     1       6.661   4.666  16.329  0.00  0.00    +0.000 C 
ATOM      3  O   UNL     1       7.749   4.771  15.794  0.00  0.00    +0.000 OA
ATOM      4  C   UNL     1       5.572   3.740  15.862  0.00  0.00    +0.000 C 
ATOM      5  C   UNL     1       4.679   3.614  17.086  0.00  0.00    +0.000 C 
ATOM      6  C   UNL     1       4.838   4.955  17.831  0.00  0.00    +0.000 C 
ATOM      7  C   UNL     1       4.735   4.725  19.358  0.00  0.00    +0.000 C 
ATOM      8  C   UNL     1       3.303   4.469  19.832  0.00  0.00    +0.000 C 
ATOM      9  C   UNL     1       2.338   5.588  19.399  0.00  0.00    +0.000 C 
ATOM     10  C   UNL     1       2.375   5.682  17.865  0.00  0.00    +0.000 C 
ATOM     11  C   UNL     1       3.783   5.975  17.334  0.00  0.00    +0.000 C 
ENDROOT
BRANCH   9  12
ATOM     12  N   UNL     1       2.695   6.836  20.083  0.00  0.00    +0.000 NA
ATOM     13  H   UNL     1       3.063   7.535  19.435  0.00  0.00    +0.000 HD
BRANCH  12  14
ATOM     14  C   UNL     1       1.574   7.464  20.796  0.00  0.00    +0.000 C 
BRANCH  14  15
ATOM     15  C   UNL     1       1.305   8.849  20.268  0.00  0.00    +0.000 A 
ATOM     16  N   UNL     1       0.935   9.867  21.022  0.00  0.00    +0.000 NA
ATOM     17  C   UNL     1       0.791  10.994  20.238  0.00  0.00    +0.000 A 
ATOM     18  C   UNL     1       1.067  10.827  18.899  0.00  0.00    +0.000 A 
ATOM     19  S   UNL     1       1.520   9.203  18.599  0.00  0.00    +0.000 S 
ENDBRANCH  14  15
ENDBRANCH  12  14
ENDBRANCH   9  12
BRANCH   1  20
ATOM     20  C   UNL     1       6.979   6.311  18.225  0.00  0.00    +0.000 C 
BRANCH  20  21
ATOM     21  C   UNL     1       7.520   7.572  17.549  0.00  0.00    +0.000 C 
BRANCH  21  23
ATOM     22  C   UNL     1       8.519   9.597  18.252  0.00  0.00    +0.000 C 
ATOM     23  O   UNL     1       8.430   8.197  18.467  0.00  0.00    +0.000 OA
ENDBRANCH  21  23
ENDBRANCH  20  21
ENDBRANCH   1  20
TORSDOF 6
ENDMDL
MODEL 3
REMARK VINA RESULT:      -6.6      4.275      6.716
REMARK  Name = 
REMARK  7 active torsions:
REMARK  status: ('A' for Active; 'I' for Inactive)
REMARK    1  A    between atoms: C_1  and  O_2
REMARK    2  A    between atoms: O_2  and  C_3
REMARK    3  A    between atoms: C_3  and  C_4
REMARK    4  A    between atoms: C_4  and  N_5
REMARK    5  A    between atoms: C_13  and  N_14
REMARK    6  A    between atoms: N_14  and  C_15
REMARK    7  A    between atoms: C_15  and  C_16
REMARK                            x       y       z     vdW  Elec       q    Type
REMARK                         _______ _______ _______ _____ _____    ______ ____
ROOT
ATOM      1  N   UNL     1       6.157   5.380  17.446  0.00  0.00    +0.000 N 
ATOM      2  C   UNL     1       6.641   4.670  16.353  0.00  0.00    +0.000 C 
ATOM      3  O   UNL     1       7.726   4.788  15.816  0.00  0.00    +0.000 OA
ATOM      4  C   UNL     1       5.561   3.731  15.889  0.00  0.00    +0.000 C 
ATOM      5  C   UNL     1       4.673   3.596  17.115  0.00  0.00    +0.000 C 
ATOM      6  C   UNL     1       4.819   4.939  17.859  0.00  0.00    +0.000 C 
ATOM      7  C   UNL     1       4.721   4.708  19.386  0.00  0.00    +0.000 C 
ATOM      8  C   UNL     1       3.293   4.436  19.862  0.00  0.00    +0.000 C 
ATOM      9  C   UNL     1       2.314   5.544  19.431  0.00  0.00    +0.000 C 
ATOM     10  C   UNL     1       2.347   5.637  17.897  0.00  0.00    +0.000 C 
ATOM     11  C   UNL     1       3.750   5.946  17.364  0.00  0.00    +0.000 C 
ENDROOT
BRANCH   9  12
ATOM     12  N   UNL     1       2.658   6.795  20.114  0.00  0.00    +0.000 NA
ATOM     13  H   UNL     1       3.664   6.978  20.093  0.00  0.00    +0.000 HD
BRANCH  12  14
ATOM     14  C   UNL     1       1.998   7.981  19.551  0.00  0.00    +0.000 C 
BRANCH  14  15
ATOM     15  C   UNL     1       1.208   8.712  20.606  0.00  0.00    +0.000 A 
ATOM     16  N   UNL     1       1.346   8.511  21.903  0.00  0.00    +0.000 NA
ATOM     17  C   UNL     1       0.495   9.351  22.594  0.00  0.00    +0.000 A 
ATOM     18  C   UNL     1      -0.271  10.193  21.817  0.00  0.00    +0.000 A 
ATOM     19  S   UNL     1       0.076   9.928  20.161  0.00  0.00    +0.000 S 
ENDBRANCH  14  15
ENDBRANCH  12  14
ENDBRANCH   9  12
BRANCH   1  20
ATOM     20  C   UNL     1       6.944   6.319  18.249  0.00  0.00    +0.000 C 
BRANCH  20  21
ATOM     21  C   UNL     1       7.316   7.666  17.627  0.00  0.00    +0.000 C 
BRANCH  21  23
ATOM     22  C   UNL     1       8.490   9.612  18.283  0.00  0.00    +0.000 C 
ATOM     23  O   UNL     1       8.420   8.197  18.376  0.00  0.00    +0.000 OA
ENDBRANCH  21  23
ENDBRANCH  20  21
ENDBRANCH   1  20
TORSDOF 6
ENDMDL
MODEL 4
REMARK VINA RESULT:      -6.4      3.362      4.927
REMARK  Name = 
REMARK  7 active torsions:
REMARK  status: ('A' for Active; 'I' for Inactive)
REMARK    1  A    between atoms: C_1  and  O_2
REMARK    2  A    between atoms: O_2  and  C_3
REMARK    3  A    between atoms: C_3  and  C_4
REMARK    4  A    between atoms: C_4  and  N_5
REMARK    5  A    between atoms: C_13  and  N_14
REMARK    6  A    between atoms: N_14  and  C_15
REMARK    7  A    between atoms: C_15  and  C_16
REMARK                            x       y       z     vdW  Elec       q    Type
REMARK                         _______ _______ _______ _____ _____    ______ ____
ROOT
ATOM      1  N   UNL     1       2.427   6.906  19.304  0.00  0.00    +0.000 N 
ATOM      2  C   UNL     1       1.701   7.077  20.477  0.00  0.00    +0.000 C 
ATOM      3  O   UNL     1       1.281   8.119  20.942  0.00  0.00    +0.000 OA
ATOM      4  C   UNL     1       1.546   5.731  21.133  0.00  0.00    +0.000 C 
ATOM      5  C   UNL     1       1.765   4.761  19.983  0.00  0.00    +0.000 C 
ATOM      6  C   UNL     1       2.726   5.495  19.025  0.00  0.00    +0.000 C 
ATOM      7  C   UNL     1       2.407   5.106  17.561  0.00  0.00    +0.000 C 
ATOM      8  C   UNL     1       2.888   3.700  17.195  0.00  0.00    +0.000 C 
ATOM      9  C   UNL     1       4.389   3.506  17.480  0.00  0.00    +0.000 C 
ATOM     10  C   UNL     1       4.627   3.769  18.975  0.00  0.00    +0.000 C 
ATOM     11  C   UNL     1       4.197   5.180  19.393  0.00  0.00    +0.000 C 
ENDROOT
BRANCH   9  12
ATOM     12  N   UNL     1       5.173   4.366  16.588  0.00  0.00    +0.000 NA
ATOM     13  H   UNL     1       4.909   5.350  16.677  0.00  0.00    +0.000 HD
BRANCH  12  14
ATOM     14  C   UNL     1       6.623   4.293  16.816  0.00  0.00    +0.000 C 
BRANCH  14  15
ATOM     15  C   UNL     1       7.163   5.615  17.298  0.00  0.00    +0.000 A 
ATOM     16  N   UNL     1       7.100   6.736  16.604  0.00  0.00    +0.000 NA
ATOM     17  C   UNL     1       7.663   7.763  17.334  0.00  0.00    +0.000 A 
ATOM     18  C   UNL     1       8.135   7.419  18.581  0.00  0.00    +0.000 A 
ATOM     19  S   UNL     1       7.873   5.749  18.858  0.00  0.00    +0.000 S 
ENDBRANCH  14  15
ENDBRANCH  12  14
ENDBRANCH   9  12
BRANCH   1  20
ATOM     20  C   UNL     1       2.699   7.963  18.328  0.00  0.00    +0.000 C 
BRANCH  20  21
ATOM     21  C   UNL     1       1.510   8.703  17.714  0.00  0.00    +0.000 C 
BRANCH  21  23
ATOM     22  C   UNL     1       0.267  10.501  18.616  0.00  0.00    +0.000 C 
ATOM     23  O   UNL     1       1.547  10.054  18.196  0.00  0.00    +0.000 OA
ENDBRANCH  21  23
ENDBRANCH  20  21
ENDBRANCH   1  20
TORSDOF 6
ENDMDL
MODEL 5
REMARK VINA RESULT:      -6.3      1.819      2.508
REMARK  Name = 
REMARK  7 active torsions:
REMARK  status: ('A' for Active; 'I' for Inactive)
REMARK    1  A    between atoms: C_1  and  O_2
REMARK    2  A    between atoms: O_2  and  C_3
REMARK    3  A    between atoms: C_3  and  C_4
REMARK    4  A    between atoms: C_4  and  N_5
REMARK    5  A    between atoms: C_13  and  N_14
REMARK    6  A    between atoms: N_14  and  C_15
REMARK    7  A    between atoms: C_15  and  C_16
REMARK                            x       y       z     vdW  Elec       q    Type
REMARK                         _______ _______ _______ _____ _____    ______ ____
ROOT
ATOM      1  N   UNL     1       3.373   2.840  20.467  0.00  0.00    +0.000 N 
ATOM      2  C   UNL     1       2.201   2.701  21.203  0.00  0.00    +0.000 C 
ATOM      3  O   UNL     1       2.063   2.143  22.275  0.00  0.00    +0.000 OA
ATOM      4  C   UNL     1       1.079   3.329  20.422  0.00  0.00    +0.000 C 
ATOM      5  C   UNL     1       1.804   4.278  19.481  0.00  0.00    +0.000 C 
ATOM      6  C   UNL     1       3.178   3.620  19.238  0.00  0.00    +0.000 C 
ATOM      7  C   UNL     1       4.260   4.712  19.057  0.00  0.00    +0.000 C 
ATOM      8  C   UNL     1       4.192   5.406  17.695  0.00  0.00    +0.000 C 
ATOM      9  C   UNL     1       4.251   4.403  16.528  0.00  0.00    +0.000 C 
ATOM     10  C   UNL     1       3.074   3.427  16.678  0.00  0.00    +0.000 C 
ATOM     11  C   UNL     1       3.112   2.673  18.013  0.00  0.00    +0.000 C 
ENDROOT
BRANCH   9  12
ATOM     12  N   UNL     1       5.567   3.756  16.504  0.00  0.00    +0.000 NA
ATOM     13  H   UNL     1       5.616   3.017  15.799  0.00  0.00    +0.000 HD
BRANCH  12  14
ATOM     14  C   UNL     1       6.678   4.678  16.232  0.00  0.00    +0.000 C 
BRANCH  14  15
ATOM     15  C   UNL     1       6.982   4.740  14.757  0.00  0.00    +0.000 A 
ATOM     16  N   UNL     1       7.909   5.516  14.227  0.00  0.00    +0.000 NA
ATOM     17  C   UNL     1       7.948   5.321  12.861  0.00  0.00    +0.000 A 
ATOM     18  C   UNL     1       7.063   4.388  12.367  0.00  0.00    +0.000 A 
ATOM     19  S   UNL     1       6.140   3.729  13.650  0.00  0.00    +0.000 S 
ENDBRANCH  14  15
ENDBRANCH  12  14
ENDBRANCH   9  12
BRANCH   1  20
ATOM     20  C   UNL     1       4.705   2.451  20.935  0.00  0.00    +0.000 C 
BRANCH  20  21
ATOM     21  C   UNL     1       5.078   0.968  20.902  0.00  0.00    +0.000 C 
BRANCH  21  23
ATOM     22  C   UNL     1       6.495  -0.406  22.205  0.00  0.00    +0.000 C 
ATOM     23  O   UNL     1       5.492   0.598  22.226  0.00  0.00    +0.000 OA
ENDBRANCH  21  23
ENDBRANCH  20  21
ENDBRANCH   1  20
TORSDOF 6
ENDMDL
MODEL 6
REMARK VINA RESULT:      -6.3      3.297      4.827
REMARK  Name = 
REMARK  7 active torsions:
REMARK  status: ('A' for Active; 'I' for Inactive)
REMARK    1  A    between atoms: C_1  and  O_2
REMARK    2  A    between atoms: O_2  and  C_3
REMARK    3  A    between atoms: C_3  and  C_4
REMARK    4  A    between atoms: C_4  and  N_5
REMARK    5  A    between atoms: C_13  and  N_14
REMARK    6  A    between atoms: N_14  and  C_15
REMARK    7  A    between atoms: C_15  and  C_16
REMARK                            x       y       z     vdW  Elec       q    Type
REMARK                         _______ _______ _______ _____ _____    ______ ____
ROOT
ATOM      1  N   UNL     1       2.428   6.862  19.227  0.00  0.00    +0.000 N 
ATOM      2  C   UNL     1       1.793   7.116  20.439  0.00  0.00    +0.000 C 
ATOM      3  O   UNL     1       1.468   8.197  20.891  0.00  0.00    +0.000 OA
ATOM      4  C   UNL     1       1.604   5.805  21.152  0.00  0.00    +0.000 C 
ATOM      5  C   UNL     1       1.688   4.785  20.027  0.00  0.00    +0.000 C 
ATOM      6  C   UNL     1       2.623   5.427  18.982  0.00  0.00    +0.000 C 
ATOM      7  C   UNL     1       2.184   5.011  17.557  0.00  0.00    +0.000 C 
ATOM      8  C   UNL     1       2.555   3.567  17.212  0.00  0.00    +0.000 C 
ATOM      9  C   UNL     1       4.057   3.290  17.406  0.00  0.00    +0.000 C 
ATOM     10  C   UNL     1       4.411   3.587  18.871  0.00  0.00    +0.000 C 
ATOM     11  C   UNL     1       4.095   5.034  19.264  0.00  0.00    +0.000 C 
ENDROOT
BRANCH   9  12
ATOM     12  N   UNL     1       4.829   4.071  16.433  0.00  0.00    +0.000 NA
ATOM     13  H   UNL     1       4.682   5.077  16.548  0.00  0.00    +0.000 HD
BRANCH  12  14
ATOM     14  C   UNL     1       6.279   3.842  16.504  0.00  0.00    +0.000 C 
BRANCH  14  15
ATOM     15  C   UNL     1       6.948   4.868  17.381  0.00  0.00    +0.000 A 
ATOM     16  N   UNL     1       7.662   4.572  18.451  0.00  0.00    +0.000 NA
ATOM     17  C   UNL     1       8.151   5.733  19.016  0.00  0.00    +0.000 A 
ATOM     18  C   UNL     1       7.817   6.899  18.364  0.00  0.00    +0.000 A 
ATOM     19  S   UNL     1       6.852   6.541  16.995  0.00  0.00    +0.000 S 
ENDBRANCH  14  15
ENDBRANCH  12  14
ENDBRANCH   9  12
BRANCH   1  20
ATOM     20  C   UNL     1       2.695   7.868  18.197  0.00  0.00    +0.000 C 
BRANCH  20  21
ATOM     21  C   UNL     1       1.542   8.768  17.749  0.00  0.00    +0.000 C 
BRANCH  21  23
ATOM     22  C   UNL     1       1.475  10.970  18.608  0.00  0.00    +0.000 C 
ATOM     23  O   UNL     1       2.054  10.104  17.644  0.00  0.00    +0.000 OA
ENDBRANCH  21  23
ENDBRANCH  20  21
ENDBRANCH   1  20
TORSDOF 6
ENDMDL
MODEL 7
REMARK VINA RESULT:      -6.3      4.451      6.806
REMARK  Name = 
REMARK  7 active torsions:
REMARK  status: ('A' for Active; 'I' for Inactive)
REMARK    1  A    between atoms: C_1  and  O_2
REMARK    2  A    between atoms: O_2  and  C_3
REMARK    3  A    between atoms: C_3  and  C_4
REMARK    4  A    between atoms: C_4  and  N_5
REMARK    5  A    between atoms: C_13  and  N_14
REMARK    6  A    between atoms: N_14  and  C_15
REMARK    7  A    between atoms: C_15  and  C_16
REMARK                            x       y       z     vdW  Elec       q    Type
REMARK                         _______ _______ _______ _____ _____    ______ ____
ROOT
ATOM      1  N   UNL     1       6.025   5.951  17.039  0.00  0.00    +0.000 N 
ATOM      2  C   UNL     1       6.503   5.208  15.965  0.00  0.00    +0.000 C 
ATOM      3  O   UNL     1       7.478   5.444  15.277  0.00  0.00    +0.000 OA
ATOM      4  C   UNL     1       5.570   4.048  15.746  0.00  0.00    +0.000 C 
ATOM      5  C   UNL     1       4.870   3.911  17.089  0.00  0.00    +0.000 C 
ATOM      6  C   UNL     1       4.849   5.339  17.671  0.00  0.00    +0.000 C 
ATOM      7  C   UNL     1       4.973   5.282  19.213  0.00  0.00    +0.000 C 
ATOM      8  C   UNL     1       3.685   4.828  19.903  0.00  0.00    +0.000 C 
ATOM      9  C   UNL     1       2.475   5.690  19.501  0.00  0.00    +0.000 C 
ATOM     10  C   UNL     1       2.311   5.601  17.975  0.00  0.00    +0.000 C 
ATOM     11  C   UNL     1       3.561   6.080  17.229  0.00  0.00    +0.000 C 
ENDROOT
BRANCH   9  12
ATOM     12  N   UNL     1       2.656   7.056  20.005  0.00  0.00    +0.000 NA
ATOM     13  H   UNL     1       3.643   7.323  20.038  0.00  0.00    +0.000 HD
BRANCH  12  14
ATOM     14  C   UNL     1       1.965   8.079  19.209  0.00  0.00    +0.000 C 
BRANCH  14  15
ATOM     15  C   UNL     1       1.160   8.999  20.092  0.00  0.00    +0.000 A 
ATOM     16  N   UNL     1       0.381   9.963  19.638  0.00  0.00    +0.000 NA
ATOM     17  C   UNL     1      -0.227  10.603  20.699  0.00  0.00    +0.000 A 
ATOM     18  C   UNL     1       0.082  10.112  21.948  0.00  0.00    +0.000 A 
ATOM     19  S   UNL     1       1.177   8.804  21.800  0.00  0.00    +0.000 S 
ENDBRANCH  14  15
ENDBRANCH  12  14
ENDBRANCH   9  12
BRANCH   1  20
ATOM     20  C   UNL     1       6.711   7.102  17.631  0.00  0.00    +0.000 C 
BRANCH  20  21
ATOM     21  C   UNL     1       7.946   6.841  18.495  0.00  0.00    +0.000 C 
BRANCH  21  23
ATOM     22  C   UNL     1       8.036   9.124  17.884  0.00  0.00    +0.000 C 
ATOM     23  O   UNL     1       8.634   8.090  18.653  0.00  0.00    +0.000 OA
ENDBRANCH  21  23
ENDBRANCH  20  21
ENDBRANCH   1  20
TORSDOF 6
ENDMDL
MODEL 8
REMARK VINA RESULT:      -6.2      3.519      5.209
REMARK  Name = 
REMARK  7 active torsions:
REMARK  status: ('A' for Active; 'I' for Inactive)
REMARK    1  A    between atoms: C_1  and  O_2
REMARK    2  A    between atoms: O_2  and  C_3
REMARK    3  A    between atoms: C_3  and  C_4
REMARK    4  A    between atoms: C_4  and  N_5
REMARK    5  A    between atoms: C_13  and  N_14
REMARK    6  A    between atoms: N_14  and  C_15
REMARK    7  A    between atoms: C_15  and  C_16
REMARK                            x       y       z     vdW  Elec       q    Type
REMARK                         _______ _______ _______ _____ _____    ______ ____
ROOT
ATOM      1  N   UNL     1       2.218   6.318  19.191  0.00  0.00    +0.000 N 
ATOM      2  C   UNL     1       1.740   6.420  20.493  0.00  0.00    +0.000 C 
ATOM      3  O   UNL     1       1.131   7.349  20.987  0.00  0.00    +0.000 OA
ATOM      4  C   UNL     1       2.147   5.178  21.239  0.00  0.00    +0.000 C 
ATOM      5  C   UNL     1       2.404   4.175  20.126  0.00  0.00    +0.000 C 
ATOM      6  C   UNL     1       2.867   5.027  18.926  0.00  0.00    +0.000 C 
ATOM      7  C   UNL     1       2.381   4.385  17.604  0.00  0.00    +0.000 C 
ATOM      8  C   UNL     1       3.179   3.140  17.212  0.00  0.00    +0.000 C 
ATOM      9  C   UNL     1       4.692   3.418  17.140  0.00  0.00    +0.000 C 
ATOM     10  C   UNL     1       5.150   3.922  18.518  0.00  0.00    +0.000 C 
ATOM     11  C   UNL     1       4.408   5.192  18.948  0.00  0.00    +0.000 C 
ENDROOT
BRANCH   9  12
ATOM     12  N   UNL     1       4.968   4.349  16.040  0.00  0.00    +0.000 NA
ATOM     13  H   UNL     1       4.427   5.212  16.126  0.00  0.00    +0.000 HD
BRANCH  12  14
ATOM     14  C   UNL     1       6.380   4.740  15.934  0.00  0.00    +0.000 C 
BRANCH  14  15
ATOM     15  C   UNL     1       6.829   4.762  14.495  0.00  0.00    +0.000 A 
ATOM     16  N   UNL     1       7.821   5.505  14.043  0.00  0.00    +0.000 NA
ATOM     17  C   UNL     1       7.990   5.278  12.692  0.00  0.00    +0.000 A 
ATOM     18  C   UNL     1       7.135   4.355  12.132  0.00  0.00    +0.000 A 
ATOM     19  S   UNL     1       6.075   3.745  13.331  0.00  0.00    +0.000 S 
ENDBRANCH  14  15
ENDBRANCH  12  14
ENDBRANCH   9  12
BRANCH   1  20
ATOM     20  C   UNL     1       1.941   7.279  18.121  0.00  0.00    +0.000 C 
BRANCH  20  21
ATOM     21  C   UNL     1       2.891   8.466  17.951  0.00  0.00    +0.000 C 
BRANCH  21  23
ATOM     22  C   UNL     1       0.945   9.776  18.248  0.00  0.00    +0.000 C 
ATOM     23  O   UNL     1       2.115   9.573  17.470  0.00  0.00    +0.000 OA
ENDBRANCH  21  23
ENDBRANCH  20  21
ENDBRANCH   1  20
TORSDOF 6
ENDMDL
MODEL 9
REMARK VINA RESULT:      -5.9      4.367      6.498
REMARK  Name = 
REMARK  7 active torsions:
REMARK  status: ('A' for Active; 'I' for Inactive)
REMARK    1  A    between atoms: C_1  and  O_2
REMARK    2  A    between atoms: O_2  and  C_3
REMARK    3  A    between atoms: C_3  and  C_4
REMARK    4  A    between atoms: C_4  and  N_5
REMARK    5  A    between atoms: C_13  and  N_14
REMARK    6  A    between atoms: N_14  and  C_15
REMARK    7  A    between atoms: C_15  and  C_16
REMARK                            x       y       z     vdW  Elec       q    Type
REMARK                         _______ _______ _______ _____ _____    ______ ____
ROOT
ATOM      1  N   UNL     1       5.543   5.995  16.980  0.00  0.00    +0.000 N 
ATOM      2  C   UNL     1       5.959   5.335  15.829  0.00  0.00    +0.000 C 
ATOM      3  O   UNL     1       6.840   5.671  15.061  0.00  0.00    +0.000 OA
ATOM      4  C   UNL     1       5.089   4.121  15.645  0.00  0.00    +0.000 C 
ATOM      5  C   UNL     1       4.540   3.876  17.042  0.00  0.00    +0.000 C 
ATOM      6  C   UNL     1       4.481   5.273  17.693  0.00  0.00    +0.000 C 
ATOM      7  C   UNL     1       4.766   5.159  19.211  0.00  0.00    +0.000 C 
ATOM      8  C   UNL     1       3.588   4.583  20.001  0.00  0.00    +0.000 C 
ATOM      9  C   UNL     1       2.288   5.373  19.764  0.00  0.00    +0.000 C 
ATOM     10  C   UNL     1       1.976   5.338  18.259  0.00  0.00    +0.000 C 
ATOM     11  C   UNL     1       3.109   5.938  17.418  0.00  0.00    +0.000 C 
ENDROOT
BRANCH   9  12
ATOM     12  N   UNL     1       2.427   6.725  20.315  0.00  0.00    +0.000 NA
ATOM     13  H   UNL     1       2.688   7.405  19.598  0.00  0.00    +0.000 HD
BRANCH  12  14
ATOM     14  C   UNL     1       1.208   7.233  20.960  0.00  0.00    +0.000 C 
BRANCH  14  15
ATOM     15  C   UNL     1       1.029   8.705  20.695  0.00  0.00    +0.000 A 
ATOM     16  N   UNL     1       1.140   9.259  19.502  0.00  0.00    +0.000 NA
ATOM     17  C   UNL     1       0.898  10.615  19.599  0.00  0.00    +0.000 A 
ATOM     18  C   UNL     1       0.591  11.077  20.859  0.00  0.00    +0.000 A 
ATOM     19  S   UNL     1       0.608   9.776  21.973  0.00  0.00    +0.000 S 
ENDBRANCH  14  15
ENDBRANCH  12  14
ENDBRANCH   9  12
BRANCH   1  20
ATOM     20  C   UNL     1       6.207   7.165  17.559  0.00  0.00    +0.000 C 
BRANCH  20  21
ATOM     21  C   UNL     1       7.725   7.282  17.411  0.00  0.00    +0.000 C 
BRANCH  21  23
ATOM     22  C   UNL     1       8.131   5.839  19.240  0.00  0.00    +0.000 C 
ATOM     23  O   UNL     1       8.298   7.150  18.720  0.00  0.00    +0.000 OA
ENDBRANCH  21  23
ENDBRANCH  20  21
ENDBRANCH   1  20
TORSDOF 6
ENDMDL
