MODEL 1
REMARK VINA RESULT:      -9.0      0.000      0.000
REMARK  Name = 
REMARK  8 active torsions:
REMARK  status: ('A' for Active; 'I' for Inactive)
REMARK    1  A    between atoms: C_1  and  C_2
REMARK    2  A    between atoms: C_5  and  C_6
REMARK    3  A    between atoms: C_7  and  N_8
REMARK    4  A    between atoms: C_9  and  C_11
REMARK    5  A    between atoms: C_11  and  C_12
REMARK    6  A    between atoms: C_20  and  C_21
REMARK    7  A    between atoms: C_21  and  C_22
REMARK    8  A    between atoms: C_21  and  C_23
REMARK                            x       y       z     vdW  Elec       q    Type
REMARK                         _______ _______ _______ _____ _____    ______ ____
ROOT
ATOM      1  C   UNL     1       3.269   4.368  18.147  0.00  0.00    +0.000 C 
ATOM      2  O   UNL     1       2.365   4.040  17.360  0.00  0.00    +0.000 OA
ATOM      3  N   UNL     1       4.539   4.676  17.676  0.00  0.00    +0.000 N 
ATOM      4  C   UNL     1       5.623   5.283  18.488  0.00  0.00    +0.000 C 
ATOM      5  C   UNL     1       6.541   6.244  17.685  0.00  0.00    +0.000 C 
ATOM      6  C   UNL     1       6.781   5.677  16.338  0.00  0.00    +0.000 A 
ATOM      7  N   UNL     1       7.703   6.058  15.415  0.00  0.00    +0.000 N 
ATOM      8  N   UNL     1       7.620   5.353  14.271  0.00  0.00    +0.000 NA
ATOM      9  C   UNL     1       6.589   4.511  14.466  0.00  0.00    +0.000 A 
ATOM     10  C   UNL     1       6.036   4.677  15.758  0.00  0.00    +0.000 A 
ATOM     11  C   UNL     1       4.915   3.991  16.426  0.00  0.00    +0.000 C 
ATOM     12  H   UNL     1       8.406   6.786  15.478  0.00  0.00    +0.000 HD
ENDROOT
BRANCH   9  13
ATOM     13  C   UNL     1       6.136   3.564  13.384  0.00  0.00    +0.000 C 
ATOM     14  C   UNL     1       4.693   3.839  12.951  0.00  0.00    +0.000 C 
ATOM     15  C   UNL     1       7.067   3.570  12.171  0.00  0.00    +0.000 C 
ENDBRANCH   9  13
BRANCH   1  16
ATOM     16  C   UNL     1       2.988   4.428  19.624  0.00  0.00    +0.000 C 
BRANCH  16  18
ATOM     17  N   UNL     1       2.475   6.826  19.844  0.00  0.00    +0.000 N 
ATOM     18  C   UNL     1       2.035   5.534  20.049  0.00  0.00    +0.000 C 
ATOM     19  O   UNL     1       0.991   5.244  20.637  0.00  0.00    +0.000 OA
ATOM     20  H   UNL     1       3.438   6.952  19.538  0.00  0.00    +0.000 HD
BRANCH  17  27
ATOM     21  C   UNL     1       0.028   9.438  23.253  0.00  0.00    +0.000 C 
ATOM     22  C   UNL     1       0.548   9.292  21.854  0.00  0.00    +0.000 A 
ATOM     23  C   UNL     1       0.287  10.261  20.883  0.00  0.00    +0.000 A 
ATOM     24  C   UNL     1       0.732  10.083  19.571  0.00  0.00    +0.000 A 
ATOM     25  C   UNL     1       1.443   8.932  19.201  0.00  0.00    +0.000 A 
ATOM     26  C   UNL     1       1.939   8.795  17.789  0.00  0.00    +0.000 C 
ATOM     27  C   UNL     1       1.750   7.981  20.189  0.00  0.00    +0.000 A 
ATOM     28  C   UNL     1       1.299   8.162  21.502  0.00  0.00    +0.000 A 
ENDBRANCH  17  27
ENDBRANCH  16  18
ENDBRANCH   1  16
TORSDOF 4
ENDMDL
MODEL 2
REMARK VINA RESULT:      -8.1      3.869      6.475
REMARK  Name = 
REMARK  8 active torsions:
REMARK  status: ('A' for Active; 'I' for Inactive)
REMARK    1  A    between atoms: C_1  and  C_2
REMARK    2  A    between atoms: C_5  and  C_6
REMARK    3  A    between atoms: C_7  and  N_8
REMARK    4  A    between atoms: C_9  and  C_11
REMARK    5  A    between atoms: C_11  and  C_12
REMARK    6  A    between atoms: C_20  and  C_21
REMARK    7  A    between atoms: C_21  and  C_22
REMARK    8  A    between atoms: C_21  and  C_23
REMARK                            x       y       z     vdW  Elec       q    Type
REMARK                         _______ _______ _______ _____ _____    ______ ____
ROOT
ATOM      1  C   UNL     1       0.587   9.089  20.581  0.00  0.00    +0.000 C 
ATOM      2  O   UNL     1      -0.196   8.538  21.374  0.00  0.00    +0.000 OA
ATOM      3  N   UNL     1       1.480   8.337  19.829  0.00  0.00    +0.000 N 
ATOM      4  C   UNL     1       2.299   8.861  18.706  0.00  0.00    +0.000 C 
ATOM      5  C   UNL     1       2.532   7.829  17.571  0.00  0.00    +0.000 C 
ATOM      6  C   UNL     1       2.763   6.492  18.165  0.00  0.00    +0.000 A 
ATOM      7  N   UNL     1       3.240   5.372  17.561  0.00  0.00    +0.000 N 
ATOM      8  N   UNL     1       3.285   4.311  18.390  0.00  0.00    +0.000 NA
ATOM      9  C   UNL     1       2.794   4.769  19.555  0.00  0.00    +0.000 A 
ATOM     10  C   UNL     1       2.459   6.141  19.460  0.00  0.00    +0.000 A 
ATOM     11  C   UNL     1       1.900   7.072  20.457  0.00  0.00    +0.000 C 
ATOM     12  H   UNL     1       3.540   5.242  16.601  0.00  0.00    +0.000 HD
ENDROOT
BRANCH   9  13
ATOM     13  C   UNL     1       2.634   3.862  20.748  0.00  0.00    +0.000 C 
ATOM     14  C   UNL     1       1.181   3.417  20.937  0.00  0.00    +0.000 C 
ATOM     15  C   UNL     1       3.560   2.647  20.690  0.00  0.00    +0.000 C 
ENDBRANCH   9  13
BRANCH   1  16
ATOM     16  C   UNL     1       0.570  10.588  20.437  0.00  0.00    +0.000 C 
BRANCH  16  18
ATOM     17  N   UNL     1      -1.455  10.357  19.056  0.00  0.00    +0.000 N 
ATOM     18  C   UNL     1      -0.335  11.114  19.335  0.00  0.00    +0.000 C 
ATOM     19  O   UNL     1       0.009  12.104  18.686  0.00  0.00    +0.000 OA
ATOM     20  H   UNL     1      -1.536   9.451  19.515  0.00  0.00    +0.000 HD
BRANCH  17  27
ATOM     21  C   UNL     1      -2.979   9.916  14.374  0.00  0.00    +0.000 C 
ATOM     22  C   UNL     1      -3.177  10.454  15.760  0.00  0.00    +0.000 A 
ATOM     23  C   UNL     1      -4.256  11.287  16.063  0.00  0.00    +0.000 A 
ATOM     24  C   UNL     1      -4.396  11.823  17.345  0.00  0.00    +0.000 A 
ATOM     25  C   UNL     1      -3.457  11.542  18.350  0.00  0.00    +0.000 A 
ATOM     26  C   UNL     1      -3.663  12.106  19.727  0.00  0.00    +0.000 C 
ATOM     27  C   UNL     1      -2.400  10.664  18.060  0.00  0.00    +0.000 A 
ATOM     28  C   UNL     1      -2.262  10.131  16.773  0.00  0.00    +0.000 A 
ENDBRANCH  17  27
ENDBRANCH  16  18
ENDBRANCH   1  16
TORSDOF 4
ENDMDL
MODEL 3
REMARK VINA RESULT:      -7.9      2.407      3.299
REMARK  Name = 
REMARK  8 active torsions:
REMARK  status: ('A' for Active; 'I' for Inactive)
REMARK    1  A    between atoms: C_1  and  C_2
REMARK    2  A    between atoms: C_5  and  C_6
REMARK    3  A    between atoms: C_7  and  N_8
REMARK    4  A    between atoms: C_9  and  C_11
REMARK    5  A    between atoms: C_11  and  C_12
REMARK    6  A    between atoms: C_20  and  C_21
REMARK    7  A    between atoms: C_21  and  C_22
REMARK    8  A    between atoms: C_21  and  C_23
REMARK                            x       y       z     vdW  Elec       q    Type
REMARK                         _______ _______ _______ _____ _____    ______ ____
ROOT
ATOM      1  C   UNL     1       2.976   7.309  18.188  0.00  0.00    +0.000 C 
ATOM      2  O   UNL     1       2.856   8.092  17.231  0.00  0.00    +0.000 OA
ATOM      3  N   UNL     1       3.984   6.353  18.198  0.00  0.00    +0.000 N 
ATOM      4  C   UNL     1       4.355   5.520  19.369  0.00  0.00    +0.000 C 
ATOM      5  C   UNL     1       5.870   5.194  19.448  0.00  0.00    +0.000 C 
ATOM      6  C   UNL     1       6.382   4.919  18.085  0.00  0.00    +0.000 A 
ATOM      7  N   UNL     1       7.570   4.366  17.727  0.00  0.00    +0.000 N 
ATOM      8  N   UNL     1       7.734   4.300  16.391  0.00  0.00    +0.000 NA
ATOM      9  C   UNL     1       6.619   4.856  15.885  0.00  0.00    +0.000 A 
ATOM     10  C   UNL     1       5.737   5.254  16.918  0.00  0.00    +0.000 A 
ATOM     11  C   UNL     1       4.410   5.895  16.863  0.00  0.00    +0.000 C 
ATOM     12  H   UNL     1       8.320   4.024  18.318  0.00  0.00    +0.000 HD
ENDROOT
BRANCH   9  13
ATOM     13  C   UNL     1       6.429   5.016  14.398  0.00  0.00    +0.000 C 
ATOM     14  C   UNL     1       7.762   5.200  13.668  0.00  0.00    +0.000 C 
ATOM     15  C   UNL     1       5.638   3.862  13.780  0.00  0.00    +0.000 C 
ENDBRANCH   9  13
BRANCH   1  16
ATOM     16  C   UNL     1       2.020   7.394  19.347  0.00  0.00    +0.000 C 
BRANCH  16  18
ATOM     17  N   UNL     1       1.200   9.564  18.522  0.00  0.00    +0.000 N 
ATOM     18  C   UNL     1       1.477   8.787  19.628  0.00  0.00    +0.000 C 
ATOM     19  O   UNL     1       1.409   9.189  20.791  0.00  0.00    +0.000 OA
ATOM     20  H   UNL     1       1.485   9.206  17.612  0.00  0.00    +0.000 HD
BRANCH  17  27
ATOM     21  C   UNL     1       2.077  14.386  19.169  0.00  0.00    +0.000 C 
ATOM     22  C   UNL     1       1.123  13.266  18.880  0.00  0.00    +0.000 A 
ATOM     23  C   UNL     1      -0.242  13.508  18.705  0.00  0.00    +0.000 A 
ATOM     24  C   UNL     1      -1.125  12.448  18.490  0.00  0.00    +0.000 A 
ATOM     25  C   UNL     1      -0.664  11.123  18.449  0.00  0.00    +0.000 A 
ATOM     26  C   UNL     1      -1.639  10.013  18.177  0.00  0.00    +0.000 C 
ATOM     27  C   UNL     1       0.714  10.883  18.574  0.00  0.00    +0.000 A 
ATOM     28  C   UNL     1       1.596  11.949  18.793  0.00  0.00    +0.000 A 
ENDBRANCH  17  27
ENDBRANCH  16  18
ENDBRANCH   1  16
TORSDOF 4
ENDMDL
MODEL 4
REMARK VINA RESULT:      -7.9      4.836      7.045
REMARK  Name = 
REMARK  8 active torsions:
REMARK  status: ('A' for Active; 'I' for Inactive)
REMARK    1  A    between atoms: C_1  and  C_2
REMARK    2  A    between atoms: C_5  and  C_6
REMARK    3  A    between atoms: C_7  and  N_8
REMARK    4  A    between atoms: C_9  and  C_11
REMARK    5  A    between atoms: C_11  and  C_12
REMARK    6  A    between atoms: C_20  and  C_21
REMARK    7  A    between atoms: C_21  and  C_22
REMARK    8  A    between atoms: C_21  and  C_23
REMARK                            x       y       z     vdW  Elec       q    Type
REMARK                         _______ _______ _______ _____ _____    ______ ____
ROOT
ATOM      1  C   UNL     1       7.447   6.787  18.278  0.00  0.00    +0.000 C 
ATOM      2  O   UNL     1       8.014   6.247  19.243  0.00  0.00    +0.000 OA
ATOM      3  N   UNL     1       6.135   6.462  17.956  0.00  0.00    +0.000 N 
ATOM      4  C   UNL     1       5.294   7.192  16.974  0.00  0.00    +0.000 C 
ATOM      5  C   UNL     1       3.789   7.233  17.351  0.00  0.00    +0.000 C 
ATOM      6  C   UNL     1       3.392   5.923  17.917  0.00  0.00    +0.000 A 
ATOM      7  N   UNL     1       2.139   5.450  18.148  0.00  0.00    +0.000 N 
ATOM      8  N   UNL     1       2.138   4.228  18.715  0.00  0.00    +0.000 NA
ATOM      9  C   UNL     1       3.439   3.928  18.875  0.00  0.00    +0.000 A 
ATOM     10  C   UNL     1       4.264   4.966  18.379  0.00  0.00    +0.000 A 
ATOM     11  C   UNL     1       5.732   5.094  18.327  0.00  0.00    +0.000 C 
ATOM     12  H   UNL     1       1.245   5.892  17.963  0.00  0.00    +0.000 HD
ENDROOT
BRANCH   9  13
ATOM     13  C   UNL     1       3.871   2.640  19.528  0.00  0.00    +0.000 C 
ATOM     14  C   UNL     1       3.204   2.439  20.892  0.00  0.00    +0.000 C 
ATOM     15  C   UNL     1       3.637   1.421  18.635  0.00  0.00    +0.000 C 
ENDBRANCH   9  13
BRANCH   1  16
ATOM     16  C   UNL     1       8.188   7.800  17.448  0.00  0.00    +0.000 C 
BRANCH  16  18
ATOM     17  N   UNL     1       9.246   9.347  19.044  0.00  0.00    +0.000 N 
ATOM     18  C   UNL     1       8.286   9.186  18.067  0.00  0.00    +0.000 C 
ATOM     19  O   UNL     1       7.462  10.050  17.758  0.00  0.00    +0.000 OA
ATOM     20  H   UNL     1       9.736   8.513  19.365  0.00  0.00    +0.000 HD
BRANCH  17  27
ATOM     21  C   UNL     1       8.469  12.121  23.062  0.00  0.00    +0.000 C 
ATOM     22  C   UNL     1       9.117  11.924  21.724  0.00  0.00    +0.000 A 
ATOM     23  C   UNL     1       9.907  12.924  21.151  0.00  0.00    +0.000 A 
ATOM     24  C   UNL     1      10.458  12.746  19.881  0.00  0.00    +0.000 A 
ATOM     25  C   UNL     1      10.229  11.568  19.153  0.00  0.00    +0.000 A 
ATOM     26  C   UNL     1      10.872  11.399  17.806  0.00  0.00    +0.000 C 
ATOM     27  C   UNL     1       9.477  10.542  19.749  0.00  0.00    +0.000 A 
ATOM     28  C   UNL     1       8.924  10.725  21.022  0.00  0.00    +0.000 A 
ENDBRANCH  17  27
ENDBRANCH  16  18
ENDBRANCH   1  16
TORSDOF 4
ENDMDL
MODEL 5
REMARK VINA RESULT:      -7.7      2.332      3.060
REMARK  Name = 
REMARK  8 active torsions:
REMARK  status: ('A' for Active; 'I' for Inactive)
REMARK    1  A    between atoms: C_1  and  C_2
REMARK    2  A    between atoms: C_5  and  C_6
REMARK    3  A    between atoms: C_7  and  N_8
REMARK    4  A    between atoms: C_9  and  C_11
REMARK    5  A    between atoms: C_11  and  C_12
REMARK    6  A    between atoms: C_20  and  C_21
REMARK    7  A    between atoms: C_21  and  C_22
REMARK    8  A    between atoms: C_21  and  C_23
REMARK                            x       y       z     vdW  Elec       q    Type
REMARK                         _______ _______ _______ _____ _____    ______ ____
ROOT
ATOM      1  C   UNL     1       2.913   7.258  18.339  0.00  0.00    +0.000 C 
ATOM      2  O   UNL     1       2.773   8.060  17.400  0.00  0.00    +0.000 OA
ATOM      3  N   UNL     1       3.929   6.310  18.314  0.00  0.00    +0.000 N 
ATOM      4  C   UNL     1       4.324   5.456  19.462  0.00  0.00    +0.000 C 
ATOM      5  C   UNL     1       5.842   5.141  19.512  0.00  0.00    +0.000 C 
ATOM      6  C   UNL     1       6.337   4.900  18.137  0.00  0.00    +0.000 A 
ATOM      7  N   UNL     1       7.525   4.366  17.750  0.00  0.00    +0.000 N 
ATOM      8  N   UNL     1       7.670   4.329  16.411  0.00  0.00    +0.000 NA
ATOM      9  C   UNL     1       6.543   4.886  15.933  0.00  0.00    +0.000 A 
ATOM     10  C   UNL     1       5.673   5.255  16.986  0.00  0.00    +0.000 A 
ATOM     11  C   UNL     1       4.340   5.885  16.964  0.00  0.00    +0.000 C 
ATOM     12  H   UNL     1       8.286   4.017  18.323  0.00  0.00    +0.000 HD
ENDROOT
BRANCH   9  13
ATOM     13  C   UNL     1       6.331   5.075  14.453  0.00  0.00    +0.000 C 
ATOM     14  C   UNL     1       7.655   5.229  13.700  0.00  0.00    +0.000 C 
ATOM     15  C   UNL     1       5.491   3.958  13.832  0.00  0.00    +0.000 C 
ENDBRANCH   9  13
BRANCH   1  16
ATOM     16  C   UNL     1       1.973   7.310  19.513  0.00  0.00    +0.000 C 
BRANCH  16  18
ATOM     17  N   UNL     1       0.857   9.390  18.814  0.00  0.00    +0.000 N 
ATOM     18  C   UNL     1       1.447   8.696  19.850  0.00  0.00    +0.000 C 
ATOM     19  O   UNL     1       1.656   9.170  20.969  0.00  0.00    +0.000 OA
ATOM     20  H   UNL     1       0.919   8.985  17.881  0.00  0.00    +0.000 HD
BRANCH  17  27
ATOM     21  C   UNL     1      -2.940  12.354  19.927  0.00  0.00    +0.000 C 
ATOM     22  C   UNL     1      -1.523  12.173  19.471  0.00  0.00    +0.000 A 
ATOM     23  C   UNL     1      -0.736  13.268  19.109  0.00  0.00    +0.000 A 
ATOM     24  C   UNL     1       0.563  13.079  18.635  0.00  0.00    +0.000 A 
ATOM     25  C   UNL     1       1.103  11.789  18.507  0.00  0.00    +0.000 A 
ATOM     26  C   UNL     1       2.519  11.628  18.030  0.00  0.00    +0.000 C 
ATOM     27  C   UNL     1       0.331  10.691  18.919  0.00  0.00    +0.000 A 
ATOM     28  C   UNL     1      -0.972  10.885  19.391  0.00  0.00    +0.000 A 
ENDBRANCH  17  27
ENDBRANCH  16  18
ENDBRANCH   1  16
TORSDOF 4
ENDMDL
MODEL 6
REMARK VINA RESULT:      -7.6      3.864      9.620
REMARK  Name = 
REMARK  8 active torsions:
REMARK  status: ('A' for Active; 'I' for Inactive)
REMARK    1  A    between atoms: C_1  and  C_2
REMARK    2  A    between atoms: C_5  and  C_6
REMARK    3  A    between atoms: C_7  and  N_8
REMARK    4  A    between atoms: C_9  and  C_11
REMARK    5  A    between atoms: C_11  and  C_12
REMARK    6  A    between atoms: C_20  and  C_21
REMARK    7  A    between atoms: C_21  and  C_22
REMARK    8  A    between atoms: C_21  and  C_23
REMARK                            x       y       z     vdW  Elec       q    Type
REMARK                         _______ _______ _______ _____ _____    ______ ____
ROOT
ATOM      1  C   UNL     1       1.109  10.531  18.612  0.00  0.00    +0.000 C 
ATOM      2  O   UNL     1       1.833  11.325  19.236  0.00  0.00    +0.000 OA
ATOM      3  N   UNL     1      -0.274  10.665  18.637  0.00  0.00    +0.000 N 
ATOM      4  C   UNL     1      -1.216   9.919  17.766  0.00  0.00    +0.000 C 
ATOM      5  C   UNL     1      -2.475  10.734  17.367  0.00  0.00    +0.000 C 
ATOM      6  C   UNL     1      -2.930  11.530  18.530  0.00  0.00    +0.000 A 
ATOM      7  N   UNL     1      -4.110  12.184  18.694  0.00  0.00    +0.000 N 
ATOM      8  N   UNL     1      -4.181  12.850  19.862  0.00  0.00    +0.000 NA
ATOM      9  C   UNL     1      -2.990  12.631  20.449  0.00  0.00    +0.000 A 
ATOM     10  C   UNL     1      -2.174  11.799  19.646  0.00  0.00    +0.000 A 
ATOM     11  C   UNL     1      -0.809  11.284  19.862  0.00  0.00    +0.000 C 
ATOM     12  H   UNL     1      -4.903  12.239  18.064  0.00  0.00    +0.000 HD
ENDROOT
BRANCH   9  13
ATOM     13  C   UNL     1      -2.647  13.252  21.779  0.00  0.00    +0.000 C 
ATOM     14  C   UNL     1      -3.498  14.491  22.068  0.00  0.00    +0.000 C 
ATOM     15  C   UNL     1      -2.746  12.256  22.936  0.00  0.00    +0.000 C 
ENDBRANCH   9  13
BRANCH   1  16
ATOM     16  C   UNL     1       1.734   9.411  17.825  0.00  0.00    +0.000 C 
BRANCH  16  18
ATOM     17  N   UNL     1       2.489   7.069  17.913  0.00  0.00    +0.000 N 
ATOM     18  C   UNL     1       2.059   8.164  18.633  0.00  0.00    +0.000 C 
ATOM     19  O   UNL     1       1.833   8.150  19.845  0.00  0.00    +0.000 OA
ATOM     20  H   UNL     1       2.446   7.128  16.897  0.00  0.00    +0.000 HD
BRANCH  17  27
ATOM     21  C   UNL     1       1.093   3.054  20.437  0.00  0.00    +0.000 C 
ATOM     22  C   UNL     1       2.150   3.828  19.708  0.00  0.00    +0.000 A 
ATOM     23  C   UNL     1       3.460   3.351  19.617  0.00  0.00    +0.000 A 
ATOM     24  C   UNL     1       4.445   4.110  18.981  0.00  0.00    +0.000 A 
ATOM     25  C   UNL     1       4.144   5.364  18.427  0.00  0.00    +0.000 A 
ATOM     26  C   UNL     1       5.222   6.132  17.717  0.00  0.00    +0.000 C 
ATOM     27  C   UNL     1       2.817   5.821  18.474  0.00  0.00    +0.000 A 
ATOM     28  C   UNL     1       1.833   5.059  19.115  0.00  0.00    +0.000 A 
ENDBRANCH  17  27
ENDBRANCH  16  18
ENDBRANCH   1  16
TORSDOF 4
ENDMDL
MODEL 7
REMARK VINA RESULT:      -7.5      2.600      8.676
REMARK  Name = 
REMARK  8 active torsions:
REMARK  status: ('A' for Active; 'I' for Inactive)
REMARK    1  A    between atoms: C_1  and  C_2
REMARK    2  A    between atoms: C_5  and  C_6
REMARK    3  A    between atoms: C_7  and  N_8
REMARK    4  A    between atoms: C_9  and  C_11
REMARK    5  A    between atoms: C_11  and  C_12
REMARK    6  A    between atoms: C_20  and  C_21
REMARK    7  A    between atoms: C_21  and  C_22
REMARK    8  A    between atoms: C_21  and  C_23
REMARK                            x       y       z     vdW  Elec       q    Type
REMARK                         _______ _______ _______ _____ _____    ______ ____
ROOT
ATOM      1  C   UNL     1       1.961   7.672  19.221  0.00  0.00    +0.000 C 
ATOM      2  O   UNL     1       2.070   7.856  17.996  0.00  0.00    +0.000 OA
ATOM      3  N   UNL     1       1.352   8.625  20.028  0.00  0.00    +0.000 N 
ATOM      4  C   UNL     1       0.976   8.420  21.450  0.00  0.00    +0.000 C 
ATOM      5  C   UNL     1      -0.316   9.172  21.867  0.00  0.00    +0.000 C 
ATOM      6  C   UNL     1      -0.332  10.507  21.227  0.00  0.00    +0.000 A 
ATOM      7  N   UNL     1      -1.138  11.566  21.504  0.00  0.00    +0.000 N 
ATOM      8  N   UNL     1      -0.912  12.621  20.697  0.00  0.00    +0.000 NA
ATOM      9  C   UNL     1       0.054  12.205  19.859  0.00  0.00    +0.000 A 
ATOM     10  C   UNL     1       0.454  10.881  20.162  0.00  0.00    +0.000 A 
ATOM     11  C   UNL     1       1.466  10.010  19.538  0.00  0.00    +0.000 C 
ATOM     12  H   UNL     1      -1.865  11.649  22.207  0.00  0.00    +0.000 HD
ENDROOT
BRANCH   9  13
ATOM     13  C   UNL     1       0.568  13.093  18.755  0.00  0.00    +0.000 C 
ATOM     14  C   UNL     1      -0.245  14.385  18.635  0.00  0.00    +0.000 C 
ATOM     15  C   UNL     1       2.057  13.412  18.902  0.00  0.00    +0.000 C 
ENDBRANCH   9  13
BRANCH   1  16
ATOM     16  C   UNL     1       2.496   6.407  19.836  0.00  0.00    +0.000 C 
BRANCH  16  18
ATOM     17  N   UNL     1       4.494   6.159  18.420  0.00  0.00    +0.000 N 
ATOM     18  C   UNL     1       3.353   5.558  18.910  0.00  0.00    +0.000 C 
ATOM     19  O   UNL     1       2.954   4.445  18.564  0.00  0.00    +0.000 OA
ATOM     20  H   UNL     1       4.623   7.151  18.611  0.00  0.00    +0.000 HD
BRANCH  17  27
ATOM     21  C   UNL     1       5.434   4.234  13.965  0.00  0.00    +0.000 C 
ATOM     22  C   UNL     1       5.893   4.603  15.344  0.00  0.00    +0.000 A 
ATOM     23  C   UNL     1       7.188   4.311  15.775  0.00  0.00    +0.000 A 
ATOM     24  C   UNL     1       7.583   4.612  17.081  0.00  0.00    +0.000 A 
ATOM     25  C   UNL     1       6.689   5.208  17.984  0.00  0.00    +0.000 A 
ATOM     26  C   UNL     1       7.163   5.552  19.368  0.00  0.00    +0.000 C 
ATOM     27  C   UNL     1       5.402   5.548  17.536  0.00  0.00    +0.000 A 
ATOM     28  C   UNL     1       5.010   5.242  16.227  0.00  0.00    +0.000 A 
ENDBRANCH  17  27
ENDBRANCH  16  18
ENDBRANCH   1  16
TORSDOF 4
ENDMDL
MODEL 8
REMARK VINA RESULT:      -7.5      1.700      2.808
REMARK  Name = 
REMARK  8 active torsions:
REMARK  status: ('A' for Active; 'I' for Inactive)
REMARK    1  A    between atoms: C_1  and  C_2
REMARK    2  A    between atoms: C_5  and  C_6
REMARK    3  A    between atoms: C_7  and  N_8
REMARK    4  A    between atoms: C_9  and  C_11
REMARK    5  A    between atoms: C_11  and  C_12
REMARK    6  A    between atoms: C_20  and  C_21
REMARK    7  A    between atoms: C_21  and  C_22
REMARK    8  A    between atoms: C_21  and  C_23
REMARK                            x       y       z     vdW  Elec       q    Type
REMARK                         _______ _______ _______ _____ _____    ______ ____
ROOT
ATOM      1  C   UNL     1       4.426   3.656  16.816  0.00  0.00    +0.000 C 
ATOM      2  O   UNL     1       3.319   3.379  16.325  0.00  0.00    +0.000 OA
ATOM      3  N   UNL     1       5.507   3.960  15.998  0.00  0.00    +0.000 N 
ATOM      4  C   UNL     1       6.802   4.512  16.471  0.00  0.00    +0.000 C 
ATOM      5  C   UNL     1       7.468   5.488  15.464  0.00  0.00    +0.000 C 
ATOM      6  C   UNL     1       7.279   4.974  14.088  0.00  0.00    +0.000 A 
ATOM      7  N   UNL     1       7.896   5.377  12.946  0.00  0.00    +0.000 N 
ATOM      8  N   UNL     1       7.454   4.722  11.855  0.00  0.00    +0.000 NA
ATOM      9  C   UNL     1       6.503   3.892  12.320  0.00  0.00    +0.000 A 
ATOM     10  C   UNL     1       6.365   4.014  13.723  0.00  0.00    +0.000 A 
ATOM     11  C   UNL     1       5.473   3.321  14.671  0.00  0.00    +0.000 C 
ATOM     12  H   UNL     1       8.608   6.088  12.821  0.00  0.00    +0.000 HD
ENDROOT
BRANCH   9  13
ATOM     13  C   UNL     1       5.720   3.000  11.390  0.00  0.00    +0.000 C 
ATOM     14  C   UNL     1       6.067   1.522  11.588  0.00  0.00    +0.000 C 
ATOM     15  C   UNL     1       4.210   3.213  11.506  0.00  0.00    +0.000 C 
ENDBRANCH   9  13
BRANCH   1  16
ATOM     16  C   UNL     1       4.600   3.659  18.311  0.00  0.00    +0.000 C 
BRANCH  16  18
ATOM     17  N   UNL     1       2.917   5.429  18.621  0.00  0.00    +0.000 N 
ATOM     18  C   UNL     1       4.146   4.934  19.005  0.00  0.00    +0.000 C 
ATOM     19  O   UNL     1       4.914   5.511  19.778  0.00  0.00    +0.000 OA
ATOM     20  H   UNL     1       2.457   4.984  17.829  0.00  0.00    +0.000 HD
BRANCH  17  27
ATOM     21  C   UNL     1       1.870  10.228  18.063  0.00  0.00    +0.000 C 
ATOM     22  C   UNL     1       1.799   8.968  18.873  0.00  0.00    +0.000 A 
ATOM     23  C   UNL     1       1.204   8.956  20.136  0.00  0.00    +0.000 A 
ATOM     24  C   UNL     1       1.194   7.787  20.900  0.00  0.00    +0.000 A 
ATOM     25  C   UNL     1       1.782   6.607  20.420  0.00  0.00    +0.000 A 
ATOM     26  C   UNL     1       1.716   5.359  21.255  0.00  0.00    +0.000 C 
ATOM     27  C   UNL     1       2.335   6.605  19.129  0.00  0.00    +0.000 A 
ATOM     28  C   UNL     1       2.346   7.779  18.368  0.00  0.00    +0.000 A 
ENDBRANCH  17  27
ENDBRANCH  16  18
ENDBRANCH   1  16
TORSDOF 4
ENDMDL
MODEL 9
REMARK VINA RESULT:      -7.5      2.849      4.905
REMARK  Name = 
REMARK  8 active torsions:
REMARK  status: ('A' for Active; 'I' for Inactive)
REMARK    1  A    between atoms: C_1  and  C_2
REMARK    2  A    between atoms: C_5  and  C_6
REMARK    3  A    between atoms: C_7  and  N_8
REMARK    4  A    between atoms: C_9  and  C_11
REMARK    5  A    between atoms: C_11  and  C_12
REMARK    6  A    between atoms: C_20  and  C_21
REMARK    7  A    between atoms: C_21  and  C_22
REMARK    8  A    between atoms: C_21  and  C_23
REMARK                            x       y       z     vdW  Elec       q    Type
REMARK                         _______ _______ _______ _____ _____    ______ ____
ROOT
ATOM      1  C   UNL     1       1.430   8.072  20.591  0.00  0.00    +0.000 C 
ATOM      2  O   UNL     1       1.982   9.095  20.152  0.00  0.00    +0.000 OA
ATOM      3  N   UNL     1       1.900   6.811  20.247  0.00  0.00    +0.000 N 
ATOM      4  C   UNL     1       1.462   5.540  20.876  0.00  0.00    +0.000 C 
ATOM      5  C   UNL     1       2.585   4.473  20.973  0.00  0.00    +0.000 C 
ATOM      6  C   UNL     1       3.399   4.507  19.736  0.00  0.00    +0.000 A 
ATOM      7  N   UNL     1       4.313   3.600  19.302  0.00  0.00    +0.000 N 
ATOM      8  N   UNL     1       4.905   3.964  18.149  0.00  0.00    +0.000 NA
ATOM      9  C   UNL     1       4.365   5.160  17.854  0.00  0.00    +0.000 A 
ATOM     10  C   UNL     1       3.406   5.537  18.824  0.00  0.00    +0.000 A 
ATOM     11  C   UNL     1       2.558   6.739  18.931  0.00  0.00    +0.000 C 
ATOM     12  H   UNL     1       4.598   2.726  19.731  0.00  0.00    +0.000 HD
ENDROOT
BRANCH   9  13
ATOM     13  C   UNL     1       4.802   5.939  16.639  0.00  0.00    +0.000 C 
ATOM     14  C   UNL     1       5.816   7.029  16.993  0.00  0.00    +0.000 C 
ATOM     15  C   UNL     1       5.352   5.039  15.531  0.00  0.00    +0.000 C 
ENDBRANCH   9  13
BRANCH   1  16
ATOM     16  C   UNL     1       0.239   8.200  21.503  0.00  0.00    +0.000 C 
BRANCH  16  18
ATOM     17  N   UNL     1      -0.458  10.561  21.510  0.00  0.00    +0.000 N 
ATOM     18  C   UNL     1       0.125   9.534  22.224  0.00  0.00    +0.000 C 
ATOM     19  O   UNL     1       0.634   9.668  23.338  0.00  0.00    +0.000 OA
ATOM     20  H   UNL     1      -0.659  10.395  20.525  0.00  0.00    +0.000 HD
BRANCH  17  27
ATOM     21  C   UNL     1      -3.093  13.782  24.179  0.00  0.00    +0.000 C 
ATOM     22  C   UNL     1      -1.910  13.475  23.310  0.00  0.00    +0.000 A 
ATOM     23  C   UNL     1      -1.009  14.476  22.938  0.00  0.00    +0.000 A 
ATOM     24  C   UNL     1       0.057  14.185  22.084  0.00  0.00    +0.000 A 
ATOM     25  C   UNL     1       0.242  12.889  21.579  0.00  0.00    +0.000 A 
ATOM     26  C   UNL     1       1.424  12.606  20.694  0.00  0.00    +0.000 C 
ATOM     27  C   UNL     1      -0.633  11.871  21.993  0.00  0.00    +0.000 A 
ATOM     28  C   UNL     1      -1.702  12.168  22.846  0.00  0.00    +0.000 A 
ENDBRANCH  17  27
ENDBRANCH  16  18
ENDBRANCH   1  16
TORSDOF 4
ENDMDL
