MODEL 1
REMARK VINA RESULT:      -8.0      0.000      0.000
REMARK  Name = 
REMARK  4 active torsions:
REMARK  status: ('A' for Active; 'I' for Inactive)
REMARK    1  A    between atoms: C_2  and  O_9
REMARK    2  A    between atoms: N_3  and  C_4
REMARK    3  A    between atoms: O_9  and  C_10
REMARK    4  A    between atoms: C_10  and  C_11
REMARK                            x       y       z     vdW  Elec       q    Type
REMARK                         _______ _______ _______ _____ _____    ______ ____
ROOT
ATOM      1  O   UNL     1       5.725   5.394  15.291  0.00  0.00    +0.000 OA
ENDROOT
BRANCH   1   3
ATOM      2  O   UNL     1       7.694   5.199  14.127  0.00  0.00    +0.000 OA
ATOM      3  C   UNL     1       7.061   5.194  15.174  0.00  0.00    +0.000 C 
ATOM      4  N   UNL     1       7.684   4.965  16.369  0.00  0.00    +0.000 N 
ATOM      5  H   UNL     1       8.672   4.776  16.237  0.00  0.00    +0.000 HD
BRANCH   4   6
ATOM      6  C   UNL     1       7.274   5.567  17.660  0.00  0.00    +0.000 C 
ATOM      7  C   UNL     1       8.170   5.322  18.894  0.00  0.00    +0.000 C 
ATOM      8  N   UNL     1       8.170   6.781  19.108  0.00  0.00    +0.000 N 
ATOM      9  C   UNL     1       7.715   7.050  17.858  0.00  0.00    +0.000 C 
ATOM     10  O   UNL     1       7.773   8.060  17.196  0.00  0.00    +0.000 OA
ATOM     11  H   UNL     1       8.918   7.363  19.457  0.00  0.00    +0.000 HD
ENDBRANCH   4   6
ENDBRANCH   1   3
BRANCH   1  12
ATOM     12  C   UNL     1       4.955   4.217  15.594  0.00  0.00    +0.000 C 
BRANCH  12  13
ATOM     13  C   UNL     1       4.103   4.398  16.831  0.00  0.00    +0.000 A 
ATOM     14  C   UNL     1       3.862   5.674  17.357  0.00  0.00    +0.000 A 
ATOM     15  C   UNL     1       3.093   5.838  18.515  0.00  0.00    +0.000 A 
ATOM     16  C   UNL     1       2.538   4.729  19.168  0.00  0.00    +0.000 A 
ATOM     17  C   UNL     1       2.784   3.442  18.660  0.00  0.00    +0.000 A 
ATOM     18  C   UNL     1       3.551   3.290  17.489  0.00  0.00    +0.000 A 
ATOM     19  C   UNL     1       2.196   2.210  19.312  0.00  0.00    +0.000 C 
ATOM     20  C   UNL     1       1.679   2.452  20.729  0.00  0.00    +0.000 C 
ATOM     21  C   UNL     1       0.855   3.733  20.784  0.00  0.00    +0.000 C 
ATOM     22  C   UNL     1       1.720   4.939  20.421  0.00  0.00    +0.000 C 
ENDBRANCH  12  13
ENDBRANCH   1  12
TORSDOF 4
ENDMDL
MODEL 2
REMARK VINA RESULT:      -7.8      1.621      3.167
REMARK  Name = 
REMARK  4 active torsions:
REMARK  status: ('A' for Active; 'I' for Inactive)
REMARK    1  A    between atoms: C_2  and  O_9
REMARK    2  A    between atoms: N_3  and  C_4
REMARK    3  A    between atoms: O_9  and  C_10
REMARK    4  A    between atoms: C_10  and  C_11
REMARK                            x       y       z     vdW  Elec       q    Type
REMARK                         _______ _______ _______ _____ _____    ______ ____
ROOT
ATOM      1  O   UNL     1       7.537   5.586  17.995  0.00  0.00    +0.000 OA
ENDROOT
BRANCH   1   3
ATOM      2  O   UNL     1       7.744   7.743  17.235  0.00  0.00    +0.000 OA
ATOM      3  C   UNL     1       7.434   6.571  17.069  0.00  0.00    +0.000 C 
ATOM      4  N   UNL     1       6.922   6.144  15.875  0.00  0.00    +0.000 N 
ATOM      5  H   UNL     1       6.818   6.915  15.224  0.00  0.00    +0.000 HD
BRANCH   4   6
ATOM      6  C   UNL     1       7.141   4.795  15.301  0.00  0.00    +0.000 C 
ATOM      7  C   UNL     1       5.909   3.895  15.065  0.00  0.00    +0.000 C 
ATOM      8  N   UNL     1       6.387   3.705  13.684  0.00  0.00    +0.000 N 
ATOM      9  C   UNL     1       7.243   4.756  13.746  0.00  0.00    +0.000 C 
ATOM     10  O   UNL     1       7.753   5.413  12.868  0.00  0.00    +0.000 OA
ATOM     11  H   UNL     1       5.841   3.609  12.839  0.00  0.00    +0.000 HD
ENDBRANCH   4   6
ENDBRANCH   1   3
BRANCH   1  12
ATOM     12  C   UNL     1       6.717   5.759  19.165  0.00  0.00    +0.000 C 
BRANCH  12  13
ATOM     13  C   UNL     1       5.297   5.289  18.937  0.00  0.00    +0.000 A 
ATOM     14  C   UNL     1       4.397   6.060  18.191  0.00  0.00    +0.000 A 
ATOM     15  C   UNL     1       3.076   5.635  18.001  0.00  0.00    +0.000 A 
ATOM     16  C   UNL     1       2.629   4.423  18.545  0.00  0.00    +0.000 A 
ATOM     17  C   UNL     1       3.518   3.648  19.309  0.00  0.00    +0.000 A 
ATOM     18  C   UNL     1       4.846   4.080  19.485  0.00  0.00    +0.000 A 
ATOM     19  C   UNL     1       3.097   2.323  19.904  0.00  0.00    +0.000 C 
ATOM     20  C   UNL     1       1.583   2.118  19.941  0.00  0.00    +0.000 C 
ATOM     21  C   UNL     1       0.960   2.514  18.608  0.00  0.00    +0.000 C 
ATOM     22  C   UNL     1       1.196   3.998  18.330  0.00  0.00    +0.000 C 
ENDBRANCH  12  13
ENDBRANCH   1  12
TORSDOF 4
ENDMDL
MODEL 3
REMARK VINA RESULT:      -7.7      3.351      4.950
REMARK  Name = 
REMARK  4 active torsions:
REMARK  status: ('A' for Active; 'I' for Inactive)
REMARK    1  A    between atoms: C_2  and  O_9
REMARK    2  A    between atoms: N_3  and  C_4
REMARK    3  A    between atoms: O_9  and  C_10
REMARK    4  A    between atoms: C_10  and  C_11
REMARK                            x       y       z     vdW  Elec       q    Type
REMARK                         _______ _______ _______ _____ _____    ______ ____
ROOT
ATOM      1  O   UNL     1       3.441   4.186  18.747  0.00  0.00    +0.000 OA
ENDROOT
BRANCH   1   3
ATOM      2  O   UNL     1       4.031   2.025  19.249  0.00  0.00    +0.000 OA
ATOM      3  C   UNL     1       4.322   3.188  19.003  0.00  0.00    +0.000 C 
ATOM      4  N   UNL     1       5.627   3.594  18.976  0.00  0.00    +0.000 N 
ATOM      5  H   UNL     1       6.253   2.831  19.216  0.00  0.00    +0.000 HD
BRANCH   4   6
ATOM      6  C   UNL     1       6.159   4.656  18.091  0.00  0.00    +0.000 C 
ATOM      7  C   UNL     1       7.691   4.797  17.962  0.00  0.00    +0.000 C 
ATOM      8  N   UNL     1       7.513   4.754  16.500  0.00  0.00    +0.000 N 
ATOM      9  C   UNL     1       6.249   4.266  16.584  0.00  0.00    +0.000 C 
ATOM     10  O   UNL     1       5.576   3.673  15.773  0.00  0.00    +0.000 OA
ATOM     11  H   UNL     1       8.118   4.338  15.806  0.00  0.00    +0.000 HD
ENDBRANCH   4   6
ENDBRANCH   1   3
BRANCH   1  12
ATOM     12  C   UNL     1       3.001   4.925  19.901  0.00  0.00    +0.000 C 
BRANCH  12  13
ATOM     13  C   UNL     1       2.518   6.311  19.538  0.00  0.00    +0.000 A 
ATOM     14  C   UNL     1       2.756   6.845  18.265  0.00  0.00    +0.000 A 
ATOM     15  C   UNL     1       2.328   8.137  17.938  0.00  0.00    +0.000 A 
ATOM     16  C   UNL     1       1.642   8.922  18.875  0.00  0.00    +0.000 A 
ATOM     17  C   UNL     1       1.410   8.404  20.161  0.00  0.00    +0.000 A 
ATOM     18  C   UNL     1       1.835   7.100  20.475  0.00  0.00    +0.000 A 
ATOM     19  C   UNL     1       0.658   9.198  21.206  0.00  0.00    +0.000 C 
ATOM     20  C   UNL     1       0.544  10.687  20.883  0.00  0.00    +0.000 C 
ATOM     21  C   UNL     1       0.137  10.887  19.429  0.00  0.00    +0.000 C 
ATOM     22  C   UNL     1       1.202  10.316  18.494  0.00  0.00    +0.000 C 
ENDBRANCH  12  13
ENDBRANCH   1  12
TORSDOF 4
ENDMDL
MODEL 4
REMARK VINA RESULT:      -7.7      0.670      1.672
REMARK  Name = 
REMARK  4 active torsions:
REMARK  status: ('A' for Active; 'I' for Inactive)
REMARK    1  A    between atoms: C_2  and  O_9
REMARK    2  A    between atoms: N_3  and  C_4
REMARK    3  A    between atoms: O_9  and  C_10
REMARK    4  A    between atoms: C_10  and  C_11
REMARK                            x       y       z     vdW  Elec       q    Type
REMARK                         _______ _______ _______ _____ _____    ______ ____
ROOT
ATOM      1  O   UNL     1       5.664   5.499  15.567  0.00  0.00    +0.000 OA
ENDROOT
BRANCH   1   3
ATOM      2  O   UNL     1       7.590   5.102  14.382  0.00  0.00    +0.000 OA
ATOM      3  C   UNL     1       6.978   5.191  15.438  0.00  0.00    +0.000 C 
ATOM      4  N   UNL     1       7.604   4.964  16.632  0.00  0.00    +0.000 N 
ATOM      5  H   UNL     1       8.572   4.692  16.492  0.00  0.00    +0.000 HD
BRANCH   4   6
ATOM      6  C   UNL     1       7.267   5.649  17.901  0.00  0.00    +0.000 C 
ATOM      7  C   UNL     1       8.210   5.452  19.108  0.00  0.00    +0.000 C 
ATOM      8  N   UNL     1       8.255   6.920  19.237  0.00  0.00    +0.000 N 
ATOM      9  C   UNL     1       7.752   7.129  17.994  0.00  0.00    +0.000 C 
ATOM     10  O   UNL     1       7.805   8.097  17.272  0.00  0.00    +0.000 OA
ATOM     11  H   UNL     1       9.032   7.501  19.518  0.00  0.00    +0.000 HD
ENDBRANCH   4   6
ENDBRANCH   1   3
BRANCH   1  12
ATOM     12  C   UNL     1       4.758   4.392  15.412  0.00  0.00    +0.000 C 
BRANCH  12  13
ATOM     13  C   UNL     1       4.127   3.986  16.725  0.00  0.00    +0.000 A 
ATOM     14  C   UNL     1       4.064   2.639  17.105  0.00  0.00    +0.000 A 
ATOM     15  C   UNL     1       3.459   2.263  18.310  0.00  0.00    +0.000 A 
ATOM     16  C   UNL     1       2.912   3.227  19.168  0.00  0.00    +0.000 A 
ATOM     17  C   UNL     1       2.957   4.580  18.792  0.00  0.00    +0.000 A 
ATOM     18  C   UNL     1       3.576   4.949  17.583  0.00  0.00    +0.000 A 
ATOM     19  C   UNL     1       2.401   5.666  19.687  0.00  0.00    +0.000 C 
ATOM     20  C   UNL     1       1.473   5.144  20.783  0.00  0.00    +0.000 C 
ATOM     21  C   UNL     1       2.084   3.925  21.462  0.00  0.00    +0.000 C 
ATOM     22  C   UNL     1       2.258   2.787  20.457  0.00  0.00    +0.000 C 
ENDBRANCH  12  13
ENDBRANCH   1  12
TORSDOF 4
ENDMDL
MODEL 5
REMARK VINA RESULT:      -7.7      1.448      1.810
REMARK  Name = 
REMARK  4 active torsions:
REMARK  status: ('A' for Active; 'I' for Inactive)
REMARK    1  A    between atoms: C_2  and  O_9
REMARK    2  A    between atoms: N_3  and  C_4
REMARK    3  A    between atoms: O_9  and  C_10
REMARK    4  A    between atoms: C_10  and  C_11
REMARK                            x       y       z     vdW  Elec       q    Type
REMARK                         _______ _______ _______ _____ _____    ______ ____
ROOT
ATOM      1  O   UNL     1       6.426   6.351  16.351  0.00  0.00    +0.000 OA
ENDROOT
BRANCH   1   3
ATOM      2  O   UNL     1       7.413   5.220  14.613  0.00  0.00    +0.000 OA
ATOM      3  C   UNL     1       7.125   5.330  15.798  0.00  0.00    +0.000 C 
ATOM      4  N   UNL     1       7.498   4.373  16.700  0.00  0.00    +0.000 N 
ATOM      5  H   UNL     1       7.978   3.605  16.243  0.00  0.00    +0.000 HD
BRANCH   4   6
ATOM      6  C   UNL     1       7.841   4.642  18.117  0.00  0.00    +0.000 C 
ATOM      7  C   UNL     1       7.812   6.107  18.608  0.00  0.00    +0.000 C 
ATOM      8  N   UNL     1       6.953   5.655  19.717  0.00  0.00    +0.000 N 
ATOM      9  C   UNL     1       6.659   4.472  19.119  0.00  0.00    +0.000 C 
ATOM     10  O   UNL     1       5.743   3.702  19.297  0.00  0.00    +0.000 OA
ATOM     11  H   UNL     1       6.188   6.145  20.158  0.00  0.00    +0.000 HD
ENDBRANCH   4   6
ENDBRANCH   1   3
BRANCH   1  12
ATOM     12  C   UNL     1       5.046   6.433  15.955  0.00  0.00    +0.000 C 
BRANCH  12  13
ATOM     13  C   UNL     1       4.116   5.897  17.022  0.00  0.00    +0.000 A 
ATOM     14  C   UNL     1       3.735   6.694  18.109  0.00  0.00    +0.000 A 
ATOM     15  C   UNL     1       2.894   6.189  19.107  0.00  0.00    +0.000 A 
ATOM     16  C   UNL     1       2.405   4.877  19.035  0.00  0.00    +0.000 A 
ATOM     17  C   UNL     1       2.791   4.063  17.957  0.00  0.00    +0.000 A 
ATOM     18  C   UNL     1       3.630   4.584  16.954  0.00  0.00    +0.000 A 
ATOM     19  C   UNL     1       2.280   2.646  17.817  0.00  0.00    +0.000 C 
ATOM     20  C   UNL     1       1.668   2.083  19.100  0.00  0.00    +0.000 C 
ATOM     21  C   UNL     1       0.733   3.103  19.736  0.00  0.00    +0.000 C 
ATOM     22  C   UNL     1       1.506   4.360  20.133  0.00  0.00    +0.000 C 
ENDBRANCH  12  13
ENDBRANCH   1  12
TORSDOF 4
ENDMDL
MODEL 6
REMARK VINA RESULT:      -7.6      1.548      2.416
REMARK  Name = 
REMARK  4 active torsions:
REMARK  status: ('A' for Active; 'I' for Inactive)
REMARK    1  A    between atoms: C_2  and  O_9
REMARK    2  A    between atoms: N_3  and  C_4
REMARK    3  A    between atoms: O_9  and  C_10
REMARK    4  A    between atoms: C_10  and  C_11
REMARK                            x       y       z     vdW  Elec       q    Type
REMARK                         _______ _______ _______ _____ _____    ______ ____
ROOT
ATOM      1  O   UNL     1       6.449   6.694  16.615  0.00  0.00    +0.000 OA
ENDROOT
BRANCH   1   3
ATOM      2  O   UNL     1       6.964   8.832  17.275  0.00  0.00    +0.000 OA
ATOM      3  C   UNL     1       7.113   7.620  17.350  0.00  0.00    +0.000 C 
ATOM      4  N   UNL     1       8.017   7.078  18.220  0.00  0.00    +0.000 N 
ATOM      5  H   UNL     1       8.526   7.801  18.718  0.00  0.00    +0.000 HD
BRANCH   4   6
ATOM      6  C   UNL     1       7.850   5.773  18.902  0.00  0.00    +0.000 C 
ATOM      7  C   UNL     1       6.442   5.393  19.410  0.00  0.00    +0.000 C 
ATOM      8  N   UNL     1       6.593   4.114  18.694  0.00  0.00    +0.000 N 
ATOM      9  C   UNL     1       7.636   4.559  17.947  0.00  0.00    +0.000 C 
ATOM     10  O   UNL     1       8.084   4.160  16.897  0.00  0.00    +0.000 OA
ATOM     11  H   UNL     1       5.886   3.576  18.215  0.00  0.00    +0.000 HD
ENDBRANCH   4   6
ENDBRANCH   1   3
BRANCH   1  12
ATOM     12  C   UNL     1       5.093   7.038  16.280  0.00  0.00    +0.000 C 
BRANCH  12  13
ATOM     13  C   UNL     1       4.089   6.283  17.123  0.00  0.00    +0.000 A 
ATOM     14  C   UNL     1       3.315   6.945  18.084  0.00  0.00    +0.000 A 
ATOM     15  C   UNL     1       2.404   6.241  18.879  0.00  0.00    +0.000 A 
ATOM     16  C   UNL     1       2.239   4.858  18.724  0.00  0.00    +0.000 A 
ATOM     17  C   UNL     1       3.019   4.178  17.773  0.00  0.00    +0.000 A 
ATOM     18  C   UNL     1       3.926   4.898  16.972  0.00  0.00    +0.000 A 
ATOM     19  C   UNL     1       2.870   2.690  17.548  0.00  0.00    +0.000 C 
ATOM     20  C   UNL     1       2.128   1.970  18.673  0.00  0.00    +0.000 C 
ATOM     21  C   UNL     1       0.877   2.745  19.067  0.00  0.00    +0.000 C 
ATOM     22  C   UNL     1       1.254   4.126  19.604  0.00  0.00    +0.000 C 
ENDBRANCH  12  13
ENDBRANCH   1  12
TORSDOF 4
ENDMDL
MODEL 7
REMARK VINA RESULT:      -7.6      3.396      4.845
REMARK  Name = 
REMARK  4 active torsions:
REMARK  status: ('A' for Active; 'I' for Inactive)
REMARK    1  A    between atoms: C_2  and  O_9
REMARK    2  A    between atoms: N_3  and  C_4
REMARK    3  A    between atoms: O_9  and  C_10
REMARK    4  A    between atoms: C_10  and  C_11
REMARK                            x       y       z     vdW  Elec       q    Type
REMARK                         _______ _______ _______ _____ _____    ______ ____
ROOT
ATOM      1  O   UNL     1       4.570   5.158  19.752  0.00  0.00    +0.000 OA
ENDROOT
BRANCH   1   3
ATOM      2  O   UNL     1       4.836   2.887  19.541  0.00  0.00    +0.000 OA
ATOM      3  C   UNL     1       5.125   4.036  19.232  0.00  0.00    +0.000 C 
ATOM      4  N   UNL     1       6.087   4.289  18.295  0.00  0.00    +0.000 N 
ATOM      5  H   UNL     1       6.510   3.428  17.962  0.00  0.00    +0.000 HD
BRANCH   4   6
ATOM      6  C   UNL     1       6.072   5.442  17.364  0.00  0.00    +0.000 C 
ATOM      7  C   UNL     1       6.922   6.680  17.726  0.00  0.00    +0.000 C 
ATOM      8  N   UNL     1       7.506   6.599  16.375  0.00  0.00    +0.000 N 
ATOM      9  C   UNL     1       7.069   5.331  16.170  0.00  0.00    +0.000 C 
ATOM     10  O   UNL     1       7.445   4.480  15.398  0.00  0.00    +0.000 OA
ATOM     11  H   UNL     1       8.452   6.808  16.087  0.00  0.00    +0.000 HD
ENDBRANCH   4   6
ENDBRANCH   1   3
BRANCH   1  12
ATOM     12  C   UNL     1       3.132   5.161  19.806  0.00  0.00    +0.000 C 
BRANCH  12  13
ATOM     13  C   UNL     1       2.554   6.523  19.489  0.00  0.00    +0.000 A 
ATOM     14  C   UNL     1       2.732   7.103  18.227  0.00  0.00    +0.000 A 
ATOM     15  C   UNL     1       2.217   8.373  17.944  0.00  0.00    +0.000 A 
ATOM     16  C   UNL     1       1.502   9.089  18.914  0.00  0.00    +0.000 A 
ATOM     17  C   UNL     1       1.328   8.524  20.189  0.00  0.00    +0.000 A 
ATOM     18  C   UNL     1       1.842   7.242  20.460  0.00  0.00    +0.000 A 
ATOM     19  C   UNL     1       0.549   9.241  21.270  0.00  0.00    +0.000 C 
ATOM     20  C   UNL     1       0.334  10.727  20.990  0.00  0.00    +0.000 C 
ATOM     21  C   UNL     1      -0.115  10.938  19.549  0.00  0.00    +0.000 C 
ATOM     22  C   UNL     1       0.967  10.461  18.580  0.00  0.00    +0.000 C 
ENDBRANCH  12  13
ENDBRANCH   1  12
TORSDOF 4
ENDMDL
MODEL 8
REMARK VINA RESULT:      -7.6      4.483      6.138
REMARK  Name = 
REMARK  4 active torsions:
REMARK  status: ('A' for Active; 'I' for Inactive)
REMARK    1  A    between atoms: C_2  and  O_9
REMARK    2  A    between atoms: N_3  and  C_4
REMARK    3  A    between atoms: O_9  and  C_10
REMARK    4  A    between atoms: C_10  and  C_11
REMARK                            x       y       z     vdW  Elec       q    Type
REMARK                         _______ _______ _______ _____ _____    ______ ____
ROOT
ATOM      1  O   UNL     1       4.155   5.682  19.396  0.00  0.00    +0.000 OA
ENDROOT
BRANCH   1   3
ATOM      2  O   UNL     1       5.589   3.892  19.281  0.00  0.00    +0.000 OA
ATOM      3  C   UNL     1       4.460   4.365  19.288  0.00  0.00    +0.000 C 
ATOM      4  N   UNL     1       3.362   3.560  19.170  0.00  0.00    +0.000 N 
ATOM      5  H   UNL     1       3.631   2.589  19.046  0.00  0.00    +0.000 HD
BRANCH   4   6
ATOM      6  C   UNL     1       2.053   3.825  19.810  0.00  0.00    +0.000 C 
ATOM      7  C   UNL     1       0.859   2.923  19.429  0.00  0.00    +0.000 C 
ATOM      8  N   UNL     1       0.639   2.707  20.870  0.00  0.00    +0.000 N 
ATOM      9  C   UNL     1       1.867   3.172  21.214  0.00  0.00    +0.000 C 
ATOM     10  O   UNL     1       2.526   2.999  22.212  0.00  0.00    +0.000 OA
ATOM     11  H   UNL     1       0.320   1.870  21.338  0.00  0.00    +0.000 HD
ENDBRANCH   4   6
ENDBRANCH   1   3
BRANCH   1  12
ATOM     12  C   UNL     1       3.525   6.260  18.239  0.00  0.00    +0.000 C 
BRANCH  12  13
ATOM     13  C   UNL     1       2.641   7.434  18.601  0.00  0.00    +0.000 A 
ATOM     14  C   UNL     1       2.355   8.434  17.663  0.00  0.00    +0.000 A 
ATOM     15  C   UNL     1       1.557   9.531  18.007  0.00  0.00    +0.000 A 
ATOM     16  C   UNL     1       1.016   9.647  19.295  0.00  0.00    +0.000 A 
ATOM     17  C   UNL     1       1.307   8.658  20.250  0.00  0.00    +0.000 A 
ATOM     18  C   UNL     1       2.103   7.554  19.891  0.00  0.00    +0.000 A 
ATOM     19  C   UNL     1       0.736   8.721  21.649  0.00  0.00    +0.000 C 
ATOM     20  C   UNL     1       0.182  10.094  22.026  0.00  0.00    +0.000 C 
ATOM     21  C   UNL     1      -0.676  10.651  20.897  0.00  0.00    +0.000 C 
ATOM     22  C   UNL     1       0.166  10.848  19.636  0.00  0.00    +0.000 C 
ENDBRANCH  12  13
ENDBRANCH   1  12
TORSDOF 4
ENDMDL
MODEL 9
REMARK VINA RESULT:      -7.5      2.679      4.373
REMARK  Name = 
REMARK  4 active torsions:
REMARK  status: ('A' for Active; 'I' for Inactive)
REMARK    1  A    between atoms: C_2  and  O_9
REMARK    2  A    between atoms: N_3  and  C_4
REMARK    3  A    between atoms: O_9  and  C_10
REMARK    4  A    between atoms: C_10  and  C_11
REMARK                            x       y       z     vdW  Elec       q    Type
REMARK                         _______ _______ _______ _____ _____    ______ ____
ROOT
ATOM      1  O   UNL     1       6.426   5.486  14.387  0.00  0.00    +0.000 OA
ENDROOT
BRANCH   1   3
ATOM      2  O   UNL     1       8.576   5.745  13.623  0.00  0.00    +0.000 OA
ATOM      3  C   UNL     1       7.455   5.260  13.534  0.00  0.00    +0.000 C 
ATOM      4  N   UNL     1       7.137   4.417  12.507  0.00  0.00    +0.000 N 
ATOM      5  H   UNL     1       7.917   4.308  11.866  0.00  0.00    +0.000 HD
BRANCH   4   6
ATOM      6  C   UNL     1       6.181   3.289  12.611  0.00  0.00    +0.000 C 
ATOM      7  C   UNL     1       4.802   3.439  11.932  0.00  0.00    +0.000 C 
ATOM      8  N   UNL     1       5.051   2.143  11.275  0.00  0.00    +0.000 N 
ATOM      9  C   UNL     1       6.380   2.164  11.550  0.00  0.00    +0.000 C 
ATOM     10  O   UNL     1       7.302   1.574  11.036  0.00  0.00    +0.000 OA
ATOM     11  H   UNL     1       4.781   1.848  10.348  0.00  0.00    +0.000 HD
ENDBRANCH   4   6
ENDBRANCH   1   3
BRANCH   1  12
ATOM     12  C   UNL     1       6.662   5.090  15.749  0.00  0.00    +0.000 C 
BRANCH  12  13
ATOM     13  C   UNL     1       5.374   4.922  16.524  0.00  0.00    +0.000 A 
ATOM     14  C   UNL     1       4.660   6.037  16.982  0.00  0.00    +0.000 A 
ATOM     15  C   UNL     1       3.481   5.880  17.719  0.00  0.00    +0.000 A 
ATOM     16  C   UNL     1       2.981   4.602  18.005  0.00  0.00    +0.000 A 
ATOM     17  C   UNL     1       3.695   3.475  17.564  0.00  0.00    +0.000 A 
ATOM     18  C   UNL     1       4.875   3.645  16.816  0.00  0.00    +0.000 A 
ATOM     19  C   UNL     1       3.194   2.072  17.827  0.00  0.00    +0.000 C 
ATOM     20  C   UNL     1       2.118   1.996  18.910  0.00  0.00    +0.000 C 
ATOM     21  C   UNL     1       1.071   3.083  18.698  0.00  0.00    +0.000 C 
ATOM     22  C   UNL     1       1.711   4.466  18.810  0.00  0.00    +0.000 C 
ENDBRANCH  12  13
ENDBRANCH   1  12
TORSDOF 4
ENDMDL
