MODEL 1
REMARK VINA RESULT:      -6.4      0.000      0.000
REMARK  Name = 
REMARK  22 active torsions:
REMARK  status: ('A' for Active; 'I' for Inactive)
REMARK    1  A    between atoms: C_1  and  C_2
REMARK    2  A    between atoms: C_2  and  C_3
REMARK    3  A    between atoms: C_3  and  C_4
REMARK    4  A    between atoms: C_4  and  C_5
REMARK    5  A    between atoms: C_5  and  C_6
REMARK    6  A    between atoms: C_6  and  C_7
REMARK    7  A    between atoms: C_7  and  C_8
REMARK    8  A    between atoms: C_8  and  C_9
REMARK    9  A    between atoms: C_9  and  C_10
REMARK   10  A    between atoms: C_10  and  C_11
REMARK   11  A    between atoms: C_11  and  C_12
REMARK   12  A    between atoms: C_12  and  C_13
REMARK   13  A    between atoms: C_13  and  C_14
REMARK   14  A    between atoms: C_14  and  C_15
REMARK   15  A    between atoms: C_15  and  C_16
REMARK   16  A    between atoms: N_18  and  S_19
REMARK   17  A    between atoms: S_19  and  O_22
REMARK   18  A    between atoms: O_22  and  C_23
REMARK   19  A    between atoms: C_26  and  C_27
REMARK   20  A    between atoms: C_27  and  C_28
REMARK   21  A    between atoms: C_28  and  O_30
REMARK   22  A    between atoms: O_30  and  C_31
REMARK                            x       y       z     vdW  Elec       q    Type
REMARK                         _______ _______ _______ _____ _____    ______ ____
ROOT
ATOM      1  C   UNL     1       1.754   8.122  20.117  0.00  0.00    +0.000 C 
ATOM      2  O   UNL     1       1.487   8.211  21.318  0.00  0.00    +0.000 OA
ATOM      3  N   UNL     1       1.265   9.082  19.179  0.00  0.00    +0.000 N 
ATOM      4  H   UNL     1       1.682   9.116  18.239  0.00  0.00    +0.000 HD
ENDROOT
BRANCH   3   5
ATOM      5  S   UNL     1       0.334  10.440  19.619  0.00  0.00    +0.000 S 
ATOM      6  O   UNL     1      -0.717  10.078  20.553  0.00  0.00    +0.000 OA
ATOM      7  O   UNL     1       1.298  11.456  19.995  0.00  0.00    +0.000 OA
BRANCH   5   8
ATOM      8  O   UNL     1      -0.425  10.941  18.246  0.00  0.00    +0.000 OA
BRANCH   8   9
ATOM      9  C   UNL     1      -1.803  10.916  18.221  0.00  0.00    +0.000 A 
ATOM     10  C   UNL     1      -2.529   9.906  17.601  0.00  0.00    +0.000 A 
ATOM     11  C   UNL     1      -3.934   9.936  17.551  0.00  0.00    +0.000 A 
ATOM     12  C   UNL     1      -4.664  10.938  18.205  0.00  0.00    +0.000 A 
ATOM     13  C   UNL     1      -3.916  11.962  18.804  0.00  0.00    +0.000 A 
ATOM     14  C   UNL     1      -2.513  11.942  18.826  0.00  0.00    +0.000 A 
BRANCH  12  15
ATOM     15  C   UNL     1      -6.203  10.891  18.302  0.00  0.00    +0.000 C 
BRANCH  15  16
ATOM     16  C   UNL     1      -6.750  10.077  19.473  0.00  0.00    +0.000 C 
ATOM     17  O   UNL     1      -7.076   8.880  19.371  0.00  0.00    +0.000 OA
BRANCH  16  18
ATOM     18  O   UNL     1      -6.881  10.763  20.645  0.00  0.00    +0.000 OA
ATOM     19  C   UNL     1      -7.458  12.060  20.437  0.00  0.00    +0.000 C 
ENDBRANCH  16  18
ENDBRANCH  15  16
ENDBRANCH  12  15
ENDBRANCH   8   9
ENDBRANCH   5   8
ENDBRANCH   3   5
BRANCH   1  20
ATOM     20  C   UNL     1       2.566   6.948  19.625  0.00  0.00    +0.000 C 
BRANCH  20  21
ATOM     21  C   UNL     1       1.736   5.675  19.804  0.00  0.00    +0.000 C 
BRANCH  21  22
ATOM     22  C   UNL     1       2.092   4.936  21.087  0.00  0.00    +0.000 C 
BRANCH  22  23
ATOM     23  C   UNL     1       1.390   3.582  21.139  0.00  0.00    +0.000 C 
BRANCH  23  24
ATOM     24  C   UNL     1       2.403   2.469  21.363  0.00  0.00    +0.000 C 
BRANCH  24  25
ATOM     25  C   UNL     1       3.413   2.433  20.228  0.00  0.00    +0.000 C 
BRANCH  25  26
ATOM     26  C   UNL     1       2.728   2.027  18.934  0.00  0.00    +0.000 C 
BRANCH  26  27
ATOM     27  C   UNL     1       3.593   2.409  17.747  0.00  0.00    +0.000 C 
BRANCH  27  28
ATOM     28  C   UNL     1       4.317   3.711  18.033  0.00  0.00    +0.000 C 
BRANCH  28  29
ATOM     29  C   UNL     1       3.971   4.739  16.969  0.00  0.00    +0.000 C 
BRANCH  29  30
ATOM     30  C   UNL     1       5.233   5.431  16.487  0.00  0.00    +0.000 C 
BRANCH  30  31
ATOM     31  C   UNL     1       6.291   4.398  16.141  0.00  0.00    +0.000 C 
BRANCH  31  32
ATOM     32  C   UNL     1       7.513   4.587  17.024  0.00  0.00    +0.000 C 
BRANCH  32  34
ATOM     33  C   UNL     1       7.755   5.767  19.207  0.00  0.00    +0.000 C 
ATOM     34  C   UNL     1       7.456   5.934  17.730  0.00  0.00    +0.000 C 
ENDBRANCH  32  34
ENDBRANCH  31  32
ENDBRANCH  30  31
ENDBRANCH  29  30
ENDBRANCH  28  29
ENDBRANCH  27  28
ENDBRANCH  26  27
ENDBRANCH  25  26
ENDBRANCH  24  25
ENDBRANCH  23  24
ENDBRANCH  22  23
ENDBRANCH  21  22
ENDBRANCH  20  21
ENDBRANCH   1  20
TORSDOF 20
ENDMDL
MODEL 2
REMARK VINA RESULT:      -6.2      6.444     10.472
REMARK  Name = 
REMARK  22 active torsions:
REMARK  status: ('A' for Active; 'I' for Inactive)
REMARK    1  A    between atoms: C_1  and  C_2
REMARK    2  A    between atoms: C_2  and  C_3
REMARK    3  A    between atoms: C_3  and  C_4
REMARK    4  A    between atoms: C_4  and  C_5
REMARK    5  A    between atoms: C_5  and  C_6
REMARK    6  A    between atoms: C_6  and  C_7
REMARK    7  A    between atoms: C_7  and  C_8
REMARK    8  A    between atoms: C_8  and  C_9
REMARK    9  A    between atoms: C_9  and  C_10
REMARK   10  A    between atoms: C_10  and  C_11
REMARK   11  A    between atoms: C_11  and  C_12
REMARK   12  A    between atoms: C_12  and  C_13
REMARK   13  A    between atoms: C_13  and  C_14
REMARK   14  A    between atoms: C_14  and  C_15
REMARK   15  A    between atoms: C_15  and  C_16
REMARK   16  A    between atoms: N_18  and  S_19
REMARK   17  A    between atoms: S_19  and  O_22
REMARK   18  A    between atoms: O_22  and  C_23
REMARK   19  A    between atoms: C_26  and  C_27
REMARK   20  A    between atoms: C_27  and  C_28
REMARK   21  A    between atoms: C_28  and  O_30
REMARK   22  A    between atoms: O_30  and  C_31
REMARK                            x       y       z     vdW  Elec       q    Type
REMARK                         _______ _______ _______ _____ _____    ______ ____
ROOT
ATOM      1  C   UNL     1       7.674   7.572  17.683  0.00  0.00    +0.000 C 
ATOM      2  O   UNL     1       8.257   6.939  18.567  0.00  0.00    +0.000 OA
ATOM      3  N   UNL     1       7.117   6.911  16.545  0.00  0.00    +0.000 N 
ATOM      4  H   UNL     1       6.450   7.421  15.950  0.00  0.00    +0.000 HD
ENDROOT
BRANCH   3   5
ATOM      5  S   UNL     1       7.152   5.221  16.327  0.00  0.00    +0.000 S 
ATOM      6  O   UNL     1       7.762   4.867  15.057  0.00  0.00    +0.000 OA
ATOM      7  O   UNL     1       7.712   4.690  17.554  0.00  0.00    +0.000 OA
BRANCH   5   8
ATOM      8  O   UNL     1       5.582   4.737  16.231  0.00  0.00    +0.000 OA
BRANCH   8   9
ATOM      9  C   UNL     1       4.822   4.768  17.382  0.00  0.00    +0.000 A 
ATOM     10  C   UNL     1       3.931   5.794  17.672  0.00  0.00    +0.000 A 
ATOM     11  C   UNL     1       3.208   5.820  18.877  0.00  0.00    +0.000 A 
ATOM     12  C   UNL     1       3.285   4.764  19.795  0.00  0.00    +0.000 A 
ATOM     13  C   UNL     1       4.206   3.749  19.499  0.00  0.00    +0.000 A 
ATOM     14  C   UNL     1       4.948   3.744  18.307  0.00  0.00    +0.000 A 
BRANCH  12  15
ATOM     15  C   UNL     1       2.372   4.697  21.036  0.00  0.00    +0.000 C 
BRANCH  15  16
ATOM     16  C   UNL     1       1.420   3.504  21.073  0.00  0.00    +0.000 C 
ATOM     17  O   UNL     1       1.463   2.630  21.958  0.00  0.00    +0.000 OA
BRANCH  16  18
ATOM     18  O   UNL     1       0.523   3.446  20.046  0.00  0.00    +0.000 OA
ATOM     19  C   UNL     1       0.831   2.381  19.135  0.00  0.00    +0.000 C 
ENDBRANCH  16  18
ENDBRANCH  15  16
ENDBRANCH  12  15
ENDBRANCH   8   9
ENDBRANCH   5   8
ENDBRANCH   3   5
BRANCH   1  20
ATOM     20  C   UNL     1       7.597   9.077  17.780  0.00  0.00    +0.000 C 
BRANCH  20  21
ATOM     21  C   UNL     1       8.828   9.578  18.536  0.00  0.00    +0.000 C 
BRANCH  21  22
ATOM     22  C   UNL     1       9.011  11.084  18.398  0.00  0.00    +0.000 C 
BRANCH  22  23
ATOM     23  C   UNL     1      10.421  11.413  17.918  0.00  0.00    +0.000 C 
BRANCH  23  24
ATOM     24  C   UNL     1      11.038  12.494  18.792  0.00  0.00    +0.000 C 
BRANCH  24  25
ATOM     25  C   UNL     1      10.585  13.871  18.335  0.00  0.00    +0.000 C 
BRANCH  25  26
ATOM     26  C   UNL     1      10.155  14.702  19.531  0.00  0.00    +0.000 C 
BRANCH  26  27
ATOM     27  C   UNL     1      10.658  14.066  20.814  0.00  0.00    +0.000 C 
BRANCH  27  28
ATOM     28  C   UNL     1       9.556  14.064  21.857  0.00  0.00    +0.000 C 
BRANCH  28  29
ATOM     29  C   UNL     1       8.368  13.263  21.352  0.00  0.00    +0.000 C 
BRANCH  29  30
ATOM     30  C   UNL     1       8.323  11.912  22.043  0.00  0.00    +0.000 C 
BRANCH  30  31
ATOM     31  C   UNL     1       8.815  12.044  23.473  0.00  0.00    +0.000 C 
BRANCH  31  32
ATOM     32  C   UNL     1       7.661  11.844  24.442  0.00  0.00    +0.000 C 
BRANCH  32  34
ATOM     33  C   UNL     1       5.736  13.075  25.439  0.00  0.00    +0.000 C 
ATOM     34  C   UNL     1       7.174  13.186  24.971  0.00  0.00    +0.000 C 
ENDBRANCH  32  34
ENDBRANCH  31  32
ENDBRANCH  30  31
ENDBRANCH  29  30
ENDBRANCH  28  29
ENDBRANCH  27  28
ENDBRANCH  26  27
ENDBRANCH  25  26
ENDBRANCH  24  25
ENDBRANCH  23  24
ENDBRANCH  22  23
ENDBRANCH  21  22
ENDBRANCH  20  21
ENDBRANCH   1  20
TORSDOF 20
ENDMDL
MODEL 3
REMARK VINA RESULT:      -6.0      6.407     10.147
REMARK  Name = 
REMARK  22 active torsions:
REMARK  status: ('A' for Active; 'I' for Inactive)
REMARK    1  A    between atoms: C_1  and  C_2
REMARK    2  A    between atoms: C_2  and  C_3
REMARK    3  A    between atoms: C_3  and  C_4
REMARK    4  A    between atoms: C_4  and  C_5
REMARK    5  A    between atoms: C_5  and  C_6
REMARK    6  A    between atoms: C_6  and  C_7
REMARK    7  A    between atoms: C_7  and  C_8
REMARK    8  A    between atoms: C_8  and  C_9
REMARK    9  A    between atoms: C_9  and  C_10
REMARK   10  A    between atoms: C_10  and  C_11
REMARK   11  A    between atoms: C_11  and  C_12
REMARK   12  A    between atoms: C_12  and  C_13
REMARK   13  A    between atoms: C_13  and  C_14
REMARK   14  A    between atoms: C_14  and  C_15
REMARK   15  A    between atoms: C_15  and  C_16
REMARK   16  A    between atoms: N_18  and  S_19
REMARK   17  A    between atoms: S_19  and  O_22
REMARK   18  A    between atoms: O_22  and  C_23
REMARK   19  A    between atoms: C_26  and  C_27
REMARK   20  A    between atoms: C_27  and  C_28
REMARK   21  A    between atoms: C_28  and  O_30
REMARK   22  A    between atoms: O_30  and  C_31
REMARK                            x       y       z     vdW  Elec       q    Type
REMARK                         _______ _______ _______ _____ _____    ______ ____
ROOT
ATOM      1  C   UNL     1       7.876   6.660  17.967  0.00  0.00    +0.000 C 
ATOM      2  O   UNL     1       7.807   5.587  18.573  0.00  0.00    +0.000 OA
ATOM      3  N   UNL     1       7.621   6.733  16.563  0.00  0.00    +0.000 N 
ATOM      4  H   UNL     1       7.462   7.654  16.133  0.00  0.00    +0.000 HD
ENDROOT
BRANCH   3   5
ATOM      5  S   UNL     1       7.154   5.392  15.619  0.00  0.00    +0.000 S 
ATOM      6  O   UNL     1       7.617   5.526  14.249  0.00  0.00    +0.000 OA
ATOM      7  O   UNL     1       7.547   4.228  16.389  0.00  0.00    +0.000 OA
BRANCH   5   8
ATOM      8  O   UNL     1       5.510   5.428  15.552  0.00  0.00    +0.000 OA
BRANCH   8   9
ATOM      9  C   UNL     1       4.808   5.258  16.728  0.00  0.00    +0.000 A 
ATOM     10  C   UNL     1       4.683   4.028  17.361  0.00  0.00    +0.000 A 
ATOM     11  C   UNL     1       3.920   3.879  18.532  0.00  0.00    +0.000 A 
ATOM     12  C   UNL     1       3.329   4.984  19.161  0.00  0.00    +0.000 A 
ATOM     13  C   UNL     1       3.444   6.213  18.495  0.00  0.00    +0.000 A 
ATOM     14  C   UNL     1       4.183   6.350  17.310  0.00  0.00    +0.000 A 
BRANCH  12  15
ATOM     15  C   UNL     1       2.634   4.864  20.533  0.00  0.00    +0.000 C 
BRANCH  15  16
ATOM     16  C   UNL     1       1.593   3.752  20.632  0.00  0.00    +0.000 C 
ATOM     17  O   UNL     1       1.554   2.943  21.578  0.00  0.00    +0.000 OA
BRANCH  16  18
ATOM     18  O   UNL     1       0.712   3.687  19.592  0.00  0.00    +0.000 OA
ATOM     19  C   UNL     1       0.769   2.415  18.930  0.00  0.00    +0.000 C 
ENDBRANCH  16  18
ENDBRANCH  15  16
ENDBRANCH  12  15
ENDBRANCH   8   9
ENDBRANCH   5   8
ENDBRANCH   3   5
BRANCH   1  20
ATOM     20  C   UNL     1       8.291   7.905  18.713  0.00  0.00    +0.000 C 
BRANCH  20  21
ATOM     21  C   UNL     1       8.299   9.078  17.732  0.00  0.00    +0.000 C 
BRANCH  21  22
ATOM     22  C   UNL     1       8.397  10.421  18.445  0.00  0.00    +0.000 C 
BRANCH  22  23
ATOM     23  C   UNL     1       9.721  11.106  18.121  0.00  0.00    +0.000 C 
BRANCH  23  24
ATOM     24  C   UNL     1       9.472  12.469  17.494  0.00  0.00    +0.000 C 
BRANCH  24  25
ATOM     25  C   UNL     1       7.981  12.748  17.403  0.00  0.00    +0.000 C 
BRANCH  25  26
ATOM     26  C   UNL     1       7.706  14.213  17.697  0.00  0.00    +0.000 C 
BRANCH  26  27
ATOM     27  C   UNL     1       8.738  14.750  18.671  0.00  0.00    +0.000 C 
BRANCH  27  28
ATOM     28  C   UNL     1       8.320  14.431  20.094  0.00  0.00    +0.000 C 
BRANCH  28  29
ATOM     29  C   UNL     1       9.484  14.667  21.040  0.00  0.00    +0.000 C 
BRANCH  29  30
ATOM     30  C   UNL     1       9.449  13.653  22.169  0.00  0.00    +0.000 C 
BRANCH  30  31
ATOM     31  C   UNL     1       8.300  12.682  21.958  0.00  0.00    +0.000 C 
BRANCH  31  32
ATOM     32  C   UNL     1       8.341  11.589  23.013  0.00  0.00    +0.000 C 
BRANCH  32  34
ATOM     33  C   UNL     1       7.866  12.233  25.374  0.00  0.00    +0.000 C 
ATOM     34  C   UNL     1       7.252  11.813  24.053  0.00  0.00    +0.000 C 
ENDBRANCH  32  34
ENDBRANCH  31  32
ENDBRANCH  30  31
ENDBRANCH  29  30
ENDBRANCH  28  29
ENDBRANCH  27  28
ENDBRANCH  26  27
ENDBRANCH  25  26
ENDBRANCH  24  25
ENDBRANCH  23  24
ENDBRANCH  22  23
ENDBRANCH  21  22
ENDBRANCH  20  21
ENDBRANCH   1  20
TORSDOF 20
ENDMDL
MODEL 4
REMARK VINA RESULT:      -5.9      6.596     10.696
REMARK  Name = 
REMARK  22 active torsions:
REMARK  status: ('A' for Active; 'I' for Inactive)
REMARK    1  A    between atoms: C_1  and  C_2
REMARK    2  A    between atoms: C_2  and  C_3
REMARK    3  A    between atoms: C_3  and  C_4
REMARK    4  A    between atoms: C_4  and  C_5
REMARK    5  A    between atoms: C_5  and  C_6
REMARK    6  A    between atoms: C_6  and  C_7
REMARK    7  A    between atoms: C_7  and  C_8
REMARK    8  A    between atoms: C_8  and  C_9
REMARK    9  A    between atoms: C_9  and  C_10
REMARK   10  A    between atoms: C_10  and  C_11
REMARK   11  A    between atoms: C_11  and  C_12
REMARK   12  A    between atoms: C_12  and  C_13
REMARK   13  A    between atoms: C_13  and  C_14
REMARK   14  A    between atoms: C_14  and  C_15
REMARK   15  A    between atoms: C_15  and  C_16
REMARK   16  A    between atoms: N_18  and  S_19
REMARK   17  A    between atoms: S_19  and  O_22
REMARK   18  A    between atoms: O_22  and  C_23
REMARK   19  A    between atoms: C_26  and  C_27
REMARK   20  A    between atoms: C_27  and  C_28
REMARK   21  A    between atoms: C_28  and  O_30
REMARK   22  A    between atoms: O_30  and  C_31
REMARK                            x       y       z     vdW  Elec       q    Type
REMARK                         _______ _______ _______ _____ _____    ______ ____
ROOT
ATOM      1  C   UNL     1       7.935   7.142  18.169  0.00  0.00    +0.000 C 
ATOM      2  O   UNL     1       7.737   6.195  18.934  0.00  0.00    +0.000 OA
ATOM      3  N   UNL     1       7.712   7.015  16.763  0.00  0.00    +0.000 N 
ATOM      4  H   UNL     1       7.665   7.867  16.188  0.00  0.00    +0.000 HD
ENDROOT
BRANCH   3   5
ATOM      5  S   UNL     1       7.113   5.598  16.028  0.00  0.00    +0.000 S 
ATOM      6  O   UNL     1       7.363   5.601  14.598  0.00  0.00    +0.000 OA
ATOM      7  O   UNL     1       7.622   4.506  16.834  0.00  0.00    +0.000 OA
BRANCH   5   8
ATOM      8  O   UNL     1       5.477   5.645  16.208  0.00  0.00    +0.000 OA
BRANCH   8   9
ATOM      9  C   UNL     1       4.902   4.813  17.145  0.00  0.00    +0.000 A 
ATOM     10  C   UNL     1       4.461   3.530  16.846  0.00  0.00    +0.000 A 
ATOM     11  C   UNL     1       3.835   2.724  17.813  0.00  0.00    +0.000 A 
ATOM     12  C   UNL     1       3.714   3.147  19.144  0.00  0.00    +0.000 A 
ATOM     13  C   UNL     1       4.141   4.454  19.422  0.00  0.00    +0.000 A 
ATOM     14  C   UNL     1       4.739   5.264  18.445  0.00  0.00    +0.000 A 
BRANCH  12  15
ATOM     15  C   UNL     1       3.184   2.211  20.250  0.00  0.00    +0.000 C 
BRANCH  15  16
ATOM     16  C   UNL     1       2.145   2.834  21.179  0.00  0.00    +0.000 C 
ATOM     17  O   UNL     1       2.361   3.055  22.385  0.00  0.00    +0.000 OA
BRANCH  16  18
ATOM     18  O   UNL     1       0.943   3.116  20.598  0.00  0.00    +0.000 OA
ATOM     19  C   UNL     1       0.786   4.523  20.365  0.00  0.00    +0.000 C 
ENDBRANCH  16  18
ENDBRANCH  15  16
ENDBRANCH  12  15
ENDBRANCH   8   9
ENDBRANCH   5   8
ENDBRANCH   3   5
BRANCH   1  20
ATOM     20  C   UNL     1       8.476   8.439  18.721  0.00  0.00    +0.000 C 
BRANCH  20  21
ATOM     21  C   UNL     1       8.433   9.493  17.614  0.00  0.00    +0.000 C 
BRANCH  21  22
ATOM     22  C   UNL     1       7.998  10.856  18.138  0.00  0.00    +0.000 C 
BRANCH  22  23
ATOM     23  C   UNL     1       9.104  11.887  17.934  0.00  0.00    +0.000 C 
BRANCH  23  24
ATOM     24  C   UNL     1      10.406  11.199  17.553  0.00  0.00    +0.000 C 
BRANCH  24  25
ATOM     25  C   UNL     1      11.591  12.104  17.846  0.00  0.00    +0.000 C 
BRANCH  25  26
ATOM     26  C   UNL     1      12.067  11.895  19.273  0.00  0.00    +0.000 C 
BRANCH  26  27
ATOM     27  C   UNL     1      12.063  13.215  20.021  0.00  0.00    +0.000 C 
BRANCH  27  28
ATOM     28  C   UNL     1      10.711  13.435  20.674  0.00  0.00    +0.000 C 
BRANCH  28  29
ATOM     29  C   UNL     1      10.263  14.871  20.463  0.00  0.00    +0.000 C 
BRANCH  29  30
ATOM     30  C   UNL     1      11.325  15.639  19.698  0.00  0.00    +0.000 C 
BRANCH  30  31
ATOM     31  C   UNL     1      10.703  16.330  18.498  0.00  0.00    +0.000 C 
BRANCH  31  32
ATOM     32  C   UNL     1       9.664  15.424  17.856  0.00  0.00    +0.000 C 
BRANCH  32  34
ATOM     33  C   UNL     1       7.209  15.002  17.769  0.00  0.00    +0.000 C 
ATOM     34  C   UNL     1       8.283  16.058  17.939  0.00  0.00    +0.000 C 
ENDBRANCH  32  34
ENDBRANCH  31  32
ENDBRANCH  30  31
ENDBRANCH  29  30
ENDBRANCH  28  29
ENDBRANCH  27  28
ENDBRANCH  26  27
ENDBRANCH  25  26
ENDBRANCH  24  25
ENDBRANCH  23  24
ENDBRANCH  22  23
ENDBRANCH  21  22
ENDBRANCH  20  21
ENDBRANCH   1  20
TORSDOF 20
ENDMDL
MODEL 5
REMARK VINA RESULT:      -5.9      3.553      4.453
REMARK  Name = 
REMARK  22 active torsions:
REMARK  status: ('A' for Active; 'I' for Inactive)
REMARK    1  A    between atoms: C_1  and  C_2
REMARK    2  A    between atoms: C_2  and  C_3
REMARK    3  A    between atoms: C_3  and  C_4
REMARK    4  A    between atoms: C_4  and  C_5
REMARK    5  A    between atoms: C_5  and  C_6
REMARK    6  A    between atoms: C_6  and  C_7
REMARK    7  A    between atoms: C_7  and  C_8
REMARK    8  A    between atoms: C_8  and  C_9
REMARK    9  A    between atoms: C_9  and  C_10
REMARK   10  A    between atoms: C_10  and  C_11
REMARK   11  A    between atoms: C_11  and  C_12
REMARK   12  A    between atoms: C_12  and  C_13
REMARK   13  A    between atoms: C_13  and  C_14
REMARK   14  A    between atoms: C_14  and  C_15
REMARK   15  A    between atoms: C_15  and  C_16
REMARK   16  A    between atoms: N_18  and  S_19
REMARK   17  A    between atoms: S_19  and  O_22
REMARK   18  A    between atoms: O_22  and  C_23
REMARK   19  A    between atoms: C_26  and  C_27
REMARK   20  A    between atoms: C_27  and  C_28
REMARK   21  A    between atoms: C_28  and  O_30
REMARK   22  A    between atoms: O_30  and  C_31
REMARK                            x       y       z     vdW  Elec       q    Type
REMARK                         _______ _______ _______ _____ _____    ______ ____
ROOT
ATOM      1  C   UNL     1       1.874   8.766  18.418  0.00  0.00    +0.000 C 
ATOM      2  O   UNL     1       1.662   9.416  17.391  0.00  0.00    +0.000 OA
ATOM      3  N   UNL     1       1.482   9.260  19.700  0.00  0.00    +0.000 N 
ATOM      4  H   UNL     1       1.462   8.612  20.498  0.00  0.00    +0.000 HD
ENDROOT
BRANCH   3   5
ATOM      5  S   UNL     1       0.654  10.733  19.929  0.00  0.00    +0.000 S 
ATOM      6  O   UNL     1       1.333  11.828  19.260  0.00  0.00    +0.000 OA
ATOM      7  O   UNL     1      -0.728  10.448  19.599  0.00  0.00    +0.000 OA
BRANCH   5   8
ATOM      8  O   UNL     1       0.737  11.059  21.540  0.00  0.00    +0.000 OA
BRANCH   8   9
ATOM      9  C   UNL     1      -0.324  11.721  22.124  0.00  0.00    +0.000 A 
ATOM     10  C   UNL     1      -1.297  11.074  22.875  0.00  0.00    +0.000 A 
ATOM     11  C   UNL     1      -2.391  11.771  23.415  0.00  0.00    +0.000 A 
ATOM     12  C   UNL     1      -2.497  13.164  23.297  0.00  0.00    +0.000 A 
ATOM     13  C   UNL     1      -1.521  13.797  22.515  0.00  0.00    +0.000 A 
ATOM     14  C   UNL     1      -0.446  13.091  21.953  0.00  0.00    +0.000 A 
BRANCH  12  15
ATOM     15  C   UNL     1      -3.599  13.960  24.026  0.00  0.00    +0.000 C 
BRANCH  15  16
ATOM     16  C   UNL     1      -3.095  15.120  24.882  0.00  0.00    +0.000 C 
ATOM     17  O   UNL     1      -2.332  14.964  25.853  0.00  0.00    +0.000 OA
BRANCH  16  18
ATOM     18  O   UNL     1      -3.561  16.352  24.522  0.00  0.00    +0.000 OA
ATOM     19  C   UNL     1      -2.915  17.398  25.262  0.00  0.00    +0.000 C 
ENDBRANCH  16  18
ENDBRANCH  15  16
ENDBRANCH  12  15
ENDBRANCH   8   9
ENDBRANCH   5   8
ENDBRANCH   3   5
BRANCH   1  20
ATOM     20  C   UNL     1       2.610   7.451  18.321  0.00  0.00    +0.000 C 
BRANCH  20  21
ATOM     21  C   UNL     1       2.500   6.734  19.668  0.00  0.00    +0.000 C 
BRANCH  21  22
ATOM     22  C   UNL     1       1.692   5.446  19.566  0.00  0.00    +0.000 C 
BRANCH  22  23
ATOM     23  C   UNL     1       1.798   4.855  18.163  0.00  0.00    +0.000 C 
BRANCH  23  24
ATOM     24  C   UNL     1       1.293   3.421  18.154  0.00  0.00    +0.000 C 
BRANCH  24  25
ATOM     25  C   UNL     1       1.842   2.656  19.346  0.00  0.00    +0.000 C 
BRANCH  25  26
ATOM     26  C   UNL     1       3.205   2.076  19.011  0.00  0.00    +0.000 C 
BRANCH  26  27
ATOM     27  C   UNL     1       4.292   2.858  19.725  0.00  0.00    +0.000 C 
BRANCH  27  28
ATOM     28  C   UNL     1       5.191   3.539  18.710  0.00  0.00    +0.000 C 
BRANCH  28  29
ATOM     29  C   UNL     1       5.529   4.943  19.179  0.00  0.00    +0.000 C 
BRANCH  29  30
ATOM     30  C   UNL     1       5.818   5.833  17.984  0.00  0.00    +0.000 C 
BRANCH  30  31
ATOM     31  C   UNL     1       7.180   5.495  17.402  0.00  0.00    +0.000 C 
BRANCH  31  32
ATOM     32  C   UNL     1       7.071   5.296  15.899  0.00  0.00    +0.000 C 
BRANCH  32  34
ATOM     33  C   UNL     1       5.632   4.221  14.171  0.00  0.00    +0.000 C 
ATOM     34  C   UNL     1       5.646   4.922  15.515  0.00  0.00    +0.000 C 
ENDBRANCH  32  34
ENDBRANCH  31  32
ENDBRANCH  30  31
ENDBRANCH  29  30
ENDBRANCH  28  29
ENDBRANCH  27  28
ENDBRANCH  26  27
ENDBRANCH  25  26
ENDBRANCH  24  25
ENDBRANCH  23  24
ENDBRANCH  22  23
ENDBRANCH  21  22
ENDBRANCH  20  21
ENDBRANCH   1  20
TORSDOF 20
ENDMDL
MODEL 6
REMARK VINA RESULT:      -5.9      4.663     10.223
REMARK  Name = 
REMARK  22 active torsions:
REMARK  status: ('A' for Active; 'I' for Inactive)
REMARK    1  A    between atoms: C_1  and  C_2
REMARK    2  A    between atoms: C_2  and  C_3
REMARK    3  A    between atoms: C_3  and  C_4
REMARK    4  A    between atoms: C_4  and  C_5
REMARK    5  A    between atoms: C_5  and  C_6
REMARK    6  A    between atoms: C_6  and  C_7
REMARK    7  A    between atoms: C_7  and  C_8
REMARK    8  A    between atoms: C_8  and  C_9
REMARK    9  A    between atoms: C_9  and  C_10
REMARK   10  A    between atoms: C_10  and  C_11
REMARK   11  A    between atoms: C_11  and  C_12
REMARK   12  A    between atoms: C_12  and  C_13
REMARK   13  A    between atoms: C_13  and  C_14
REMARK   14  A    between atoms: C_14  and  C_15
REMARK   15  A    between atoms: C_15  and  C_16
REMARK   16  A    between atoms: N_18  and  S_19
REMARK   17  A    between atoms: S_19  and  O_22
REMARK   18  A    between atoms: O_22  and  C_23
REMARK   19  A    between atoms: C_26  and  C_27
REMARK   20  A    between atoms: C_27  and  C_28
REMARK   21  A    between atoms: C_28  and  O_30
REMARK   22  A    between atoms: O_30  and  C_31
REMARK                            x       y       z     vdW  Elec       q    Type
REMARK                         _______ _______ _______ _____ _____    ______ ____
ROOT
ATOM      1  C   UNL     1       1.599   4.959  20.543  0.00  0.00    +0.000 C 
ATOM      2  O   UNL     1       2.132   4.437  21.527  0.00  0.00    +0.000 OA
ATOM      3  N   UNL     1       1.238   4.181  19.400  0.00  0.00    +0.000 N 
ATOM      4  H   UNL     1       0.601   4.589  18.702  0.00  0.00    +0.000 HD
ENDROOT
BRANCH   3   5
ATOM      5  S   UNL     1       1.450   2.493  19.303  0.00  0.00    +0.000 S 
ATOM      6  O   UNL     1       2.038   1.965  20.522  0.00  0.00    +0.000 OA
ATOM      7  O   UNL     1       0.173   1.974  18.851  0.00  0.00    +0.000 OA
BRANCH   5   8
ATOM      8  O   UNL     1       2.555   2.236  18.112  0.00  0.00    +0.000 OA
BRANCH   8   9
ATOM      9  C   UNL     1       3.680   3.035  18.086  0.00  0.00    +0.000 A 
ATOM     10  C   UNL     1       4.424   3.328  19.221  0.00  0.00    +0.000 A 
ATOM     11  C   UNL     1       5.536   4.186  19.169  0.00  0.00    +0.000 A 
ATOM     12  C   UNL     1       5.997   4.706  17.951  0.00  0.00    +0.000 A 
ATOM     13  C   UNL     1       5.220   4.420  16.820  0.00  0.00    +0.000 A 
ATOM     14  C   UNL     1       4.093   3.587  16.883  0.00  0.00    +0.000 A 
BRANCH  12  15
ATOM     15  C   UNL     1       7.312   5.508  17.855  0.00  0.00    +0.000 C 
BRANCH  15  16
ATOM     16  C   UNL     1       7.331   6.585  16.774  0.00  0.00    +0.000 C 
ATOM     17  O   UNL     1       7.565   6.339  15.576  0.00  0.00    +0.000 OA
BRANCH  16  18
ATOM     18  O   UNL     1       7.095   7.855  17.215  0.00  0.00    +0.000 OA
ATOM     19  C   UNL     1       8.158   8.328  18.055  0.00  0.00    +0.000 C 
ENDBRANCH  16  18
ENDBRANCH  15  16
ENDBRANCH  12  15
ENDBRANCH   8   9
ENDBRANCH   5   8
ENDBRANCH   3   5
BRANCH   1  20
ATOM     20  C   UNL     1       1.378   6.452  20.527  0.00  0.00    +0.000 C 
BRANCH  20  21
ATOM     21  C   UNL     1       2.594   7.116  19.880  0.00  0.00    +0.000 C 
BRANCH  21  22
ATOM     22  C   UNL     1       2.431   7.263  18.372  0.00  0.00    +0.000 C 
BRANCH  22  23
ATOM     23  C   UNL     1       2.329   8.735  17.984  0.00  0.00    +0.000 C 
BRANCH  23  24
ATOM     24  C   UNL     1       0.902   9.079  17.584  0.00  0.00    +0.000 C 
BRANCH  24  25
ATOM     25  C   UNL     1       0.347  10.171  18.484  0.00  0.00    +0.000 C 
BRANCH  25  26
ATOM     26  C   UNL     1       1.476  10.843  19.246  0.00  0.00    +0.000 C 
BRANCH  26  27
ATOM     27  C   UNL     1       1.361  12.351  19.123  0.00  0.00    +0.000 C 
BRANCH  27  28
ATOM     28  C   UNL     1       0.119  12.835  19.847  0.00  0.00    +0.000 C 
BRANCH  28  29
ATOM     29  C   UNL     1       0.465  13.199  21.280  0.00  0.00    +0.000 C 
BRANCH  29  30
ATOM     30  C   UNL     1      -0.790  13.618  22.026  0.00  0.00    +0.000 C 
BRANCH  30  31
ATOM     31  C   UNL     1      -1.239  12.502  22.952  0.00  0.00    +0.000 C 
BRANCH  31  32
ATOM     32  C   UNL     1      -1.166  11.165  22.232  0.00  0.00    +0.000 C 
BRANCH  32  34
ATOM     33  C   UNL     1       0.574   9.395  22.467  0.00  0.00    +0.000 C 
ATOM     34  C   UNL     1      -0.583  10.099  23.149  0.00  0.00    +0.000 C 
ENDBRANCH  32  34
ENDBRANCH  31  32
ENDBRANCH  30  31
ENDBRANCH  29  30
ENDBRANCH  28  29
ENDBRANCH  27  28
ENDBRANCH  26  27
ENDBRANCH  25  26
ENDBRANCH  24  25
ENDBRANCH  23  24
ENDBRANCH  22  23
ENDBRANCH  21  22
ENDBRANCH  20  21
ENDBRANCH   1  20
TORSDOF 20
ENDMDL
MODEL 7
REMARK VINA RESULT:      -5.8      2.292      4.436
REMARK  Name = 
REMARK  22 active torsions:
REMARK  status: ('A' for Active; 'I' for Inactive)
REMARK    1  A    between atoms: C_1  and  C_2
REMARK    2  A    between atoms: C_2  and  C_3
REMARK    3  A    between atoms: C_3  and  C_4
REMARK    4  A    between atoms: C_4  and  C_5
REMARK    5  A    between atoms: C_5  and  C_6
REMARK    6  A    between atoms: C_6  and  C_7
REMARK    7  A    between atoms: C_7  and  C_8
REMARK    8  A    between atoms: C_8  and  C_9
REMARK    9  A    between atoms: C_9  and  C_10
REMARK   10  A    between atoms: C_10  and  C_11
REMARK   11  A    between atoms: C_11  and  C_12
REMARK   12  A    between atoms: C_12  and  C_13
REMARK   13  A    between atoms: C_13  and  C_14
REMARK   14  A    between atoms: C_14  and  C_15
REMARK   15  A    between atoms: C_15  and  C_16
REMARK   16  A    between atoms: N_18  and  S_19
REMARK   17  A    between atoms: S_19  and  O_22
REMARK   18  A    between atoms: O_22  and  C_23
REMARK   19  A    between atoms: C_26  and  C_27
REMARK   20  A    between atoms: C_27  and  C_28
REMARK   21  A    between atoms: C_28  and  O_30
REMARK   22  A    between atoms: O_30  and  C_31
REMARK                            x       y       z     vdW  Elec       q    Type
REMARK                         _______ _______ _______ _____ _____    ______ ____
ROOT
ATOM      1  C   UNL     1       1.107   9.538  18.846  0.00  0.00    +0.000 C 
ATOM      2  O   UNL     1       0.075  10.170  18.606  0.00  0.00    +0.000 OA
ATOM      3  N   UNL     1       1.528   9.293  20.189  0.00  0.00    +0.000 N 
ATOM      4  H   UNL     1       2.252   8.583  20.362  0.00  0.00    +0.000 HD
ENDROOT
BRANCH   3   5
ATOM      5  S   UNL     1       0.642   9.786  21.559  0.00  0.00    +0.000 S 
ATOM      6  O   UNL     1      -0.735   9.330  21.488  0.00  0.00    +0.000 OA
ATOM      7  O   UNL     1       1.456   9.406  22.697  0.00  0.00    +0.000 OA
BRANCH   5   8
ATOM      8  O   UNL     1       0.583  11.430  21.500  0.00  0.00    +0.000 OA
BRANCH   8   9
ATOM      9  C   UNL     1      -0.639  12.044  21.682  0.00  0.00    +0.000 A 
ATOM     10  C   UNL     1      -1.334  12.661  20.649  0.00  0.00    +0.000 A 
ATOM     11  C   UNL     1      -2.555  13.320  20.878  0.00  0.00    +0.000 A 
ATOM     12  C   UNL     1      -3.167  13.301  22.138  0.00  0.00    +0.000 A 
ATOM     13  C   UNL     1      -2.440  12.696  23.174  0.00  0.00    +0.000 A 
ATOM     14  C   UNL     1      -1.207  12.065  22.946  0.00  0.00    +0.000 A 
BRANCH  12  15
ATOM     15  C   UNL     1      -4.583  13.872  22.364  0.00  0.00    +0.000 C 
BRANCH  15  16
ATOM     16  C   UNL     1      -5.702  13.121  21.646  0.00  0.00    +0.000 C 
ATOM     17  O   UNL     1      -5.685  11.889  21.467  0.00  0.00    +0.000 OA
BRANCH  16  18
ATOM     18  O   UNL     1      -6.722  13.902  21.187  0.00  0.00    +0.000 OA
ATOM     19  C   UNL     1      -7.052  13.594  19.825  0.00  0.00    +0.000 C 
ENDBRANCH  16  18
ENDBRANCH  15  16
ENDBRANCH  12  15
ENDBRANCH   8   9
ENDBRANCH   5   8
ENDBRANCH   3   5
BRANCH   1  20
ATOM     20  C   UNL     1       1.968   9.066  17.699  0.00  0.00    +0.000 C 
BRANCH  20  21
ATOM     21  C   UNL     1       2.486   7.664  18.027  0.00  0.00    +0.000 C 
BRANCH  21  22
ATOM     22  C   UNL     1       3.986   7.540  17.795  0.00  0.00    +0.000 C 
BRANCH  22  23
ATOM     23  C   UNL     1       4.268   6.863  16.457  0.00  0.00    +0.000 C 
BRANCH  23  24
ATOM     24  C   UNL     1       5.730   6.451  16.370  0.00  0.00    +0.000 C 
BRANCH  24  25
ATOM     25  C   UNL     1       6.470   6.846  17.637  0.00  0.00    +0.000 C 
BRANCH  25  26
ATOM     26  C   UNL     1       6.906   5.604  18.394  0.00  0.00    +0.000 C 
BRANCH  26  27
ATOM     27  C   UNL     1       6.115   4.399  17.918  0.00  0.00    +0.000 C 
BRANCH  27  28
ATOM     28  C   UNL     1       5.117   3.983  18.982  0.00  0.00    +0.000 C 
BRANCH  28  29
ATOM     29  C   UNL     1       3.935   3.281  18.336  0.00  0.00    +0.000 C 
BRANCH  29  30
ATOM     30  C   UNL     1       2.686   4.132  18.477  0.00  0.00    +0.000 C 
BRANCH  30  31
ATOM     31  C   UNL     1       1.456   3.307  18.143  0.00  0.00    +0.000 C 
BRANCH  31  32
ATOM     32  C   UNL     1       0.764   2.861  19.421  0.00  0.00    +0.000 C 
BRANCH  32  34
ATOM     33  C   UNL     1       1.812   2.866  21.682  0.00  0.00    +0.000 C 
ATOM     34  C   UNL     1       1.204   3.727  20.592  0.00  0.00    +0.000 C 
ENDBRANCH  32  34
ENDBRANCH  31  32
ENDBRANCH  30  31
ENDBRANCH  29  30
ENDBRANCH  28  29
ENDBRANCH  27  28
ENDBRANCH  26  27
ENDBRANCH  25  26
ENDBRANCH  24  25
ENDBRANCH  23  24
ENDBRANCH  22  23
ENDBRANCH  21  22
ENDBRANCH  20  21
ENDBRANCH   1  20
TORSDOF 20
ENDMDL
MODEL 8
REMARK VINA RESULT:      -5.8      3.617     10.843
REMARK  Name = 
REMARK  22 active torsions:
REMARK  status: ('A' for Active; 'I' for Inactive)
REMARK    1  A    between atoms: C_1  and  C_2
REMARK    2  A    between atoms: C_2  and  C_3
REMARK    3  A    between atoms: C_3  and  C_4
REMARK    4  A    between atoms: C_4  and  C_5
REMARK    5  A    between atoms: C_5  and  C_6
REMARK    6  A    between atoms: C_6  and  C_7
REMARK    7  A    between atoms: C_7  and  C_8
REMARK    8  A    between atoms: C_8  and  C_9
REMARK    9  A    between atoms: C_9  and  C_10
REMARK   10  A    between atoms: C_10  and  C_11
REMARK   11  A    between atoms: C_11  and  C_12
REMARK   12  A    between atoms: C_12  and  C_13
REMARK   13  A    between atoms: C_13  and  C_14
REMARK   14  A    between atoms: C_14  and  C_15
REMARK   15  A    between atoms: C_15  and  C_16
REMARK   16  A    between atoms: N_18  and  S_19
REMARK   17  A    between atoms: S_19  and  O_22
REMARK   18  A    between atoms: O_22  and  C_23
REMARK   19  A    between atoms: C_26  and  C_27
REMARK   20  A    between atoms: C_27  and  C_28
REMARK   21  A    between atoms: C_28  and  O_30
REMARK   22  A    between atoms: O_30  and  C_31
REMARK                            x       y       z     vdW  Elec       q    Type
REMARK                         _______ _______ _______ _____ _____    ______ ____
ROOT
ATOM      1  C   UNL     1       1.814   5.723  20.146  0.00  0.00    +0.000 C 
ATOM      2  O   UNL     1       0.807   5.361  19.532  0.00  0.00    +0.000 OA
ATOM      3  N   UNL     1       2.560   4.805  20.947  0.00  0.00    +0.000 N 
ATOM      4  H   UNL     1       3.505   5.069  21.257  0.00  0.00    +0.000 HD
ENDROOT
BRANCH   3   5
ATOM      5  S   UNL     1       2.177   3.150  21.088  0.00  0.00    +0.000 S 
ATOM      6  O   UNL     1       2.620   2.614  22.364  0.00  0.00    +0.000 OA
ATOM      7  O   UNL     1       0.777   3.050  20.726  0.00  0.00    +0.000 OA
BRANCH   5   8
ATOM      8  O   UNL     1       3.059   2.374  19.934  0.00  0.00    +0.000 OA
BRANCH   8   9
ATOM      9  C   UNL     1       3.710   3.141  18.991  0.00  0.00    +0.000 A 
ATOM     10  C   UNL     1       3.199   3.368  17.719  0.00  0.00    +0.000 A 
ATOM     11  C   UNL     1       3.912   4.114  16.764  0.00  0.00    +0.000 A 
ATOM     12  C   UNL     1       5.126   4.738  17.086  0.00  0.00    +0.000 A 
ATOM     13  C   UNL     1       5.639   4.477  18.365  0.00  0.00    +0.000 A 
ATOM     14  C   UNL     1       4.936   3.707  19.304  0.00  0.00    +0.000 A 
BRANCH  12  15
ATOM     15  C   UNL     1       5.833   5.696  16.105  0.00  0.00    +0.000 C 
BRANCH  15  16
ATOM     16  C   UNL     1       6.648   5.011  15.011  0.00  0.00    +0.000 C 
ATOM     17  O   UNL     1       7.657   5.526  14.495  0.00  0.00    +0.000 OA
BRANCH  16  18
ATOM     18  O   UNL     1       6.178   3.793  14.613  0.00  0.00    +0.000 OA
ATOM     19  C   UNL     1       6.260   3.634  13.189  0.00  0.00    +0.000 C 
ENDBRANCH  16  18
ENDBRANCH  15  16
ENDBRANCH  12  15
ENDBRANCH   8   9
ENDBRANCH   5   8
ENDBRANCH   3   5
BRANCH   1  20
ATOM     20  C   UNL     1       2.232   7.172  20.092  0.00  0.00    +0.000 C 
BRANCH  20  21
ATOM     21  C   UNL     1       2.524   7.540  18.636  0.00  0.00    +0.000 C 
BRANCH  21  22
ATOM     22  C   UNL     1       1.555   8.589  18.106  0.00  0.00    +0.000 C 
BRANCH  22  23
ATOM     23  C   UNL     1       1.055   9.480  19.238  0.00  0.00    +0.000 C 
BRANCH  23  24
ATOM     24  C   UNL     1       0.196  10.607  18.685  0.00  0.00    +0.000 C 
BRANCH  24  25
ATOM     25  C   UNL     1      -1.222  10.121  18.436  0.00  0.00    +0.000 C 
BRANCH  25  26
ATOM     26  C   UNL     1      -1.763  10.725  17.151  0.00  0.00    +0.000 C 
BRANCH  26  27
ATOM     27  C   UNL     1      -3.154  11.285  17.385  0.00  0.00    +0.000 C 
BRANCH  27  28
ATOM     28  C   UNL     1      -4.057  10.206  17.952  0.00  0.00    +0.000 C 
BRANCH  28  29
ATOM     29  C   UNL     1      -5.417  10.793  18.286  0.00  0.00    +0.000 C 
BRANCH  29  30
ATOM     30  C   UNL     1      -5.294  12.288  18.517  0.00  0.00    +0.000 C 
BRANCH  30  31
ATOM     31  C   UNL     1      -5.944  12.663  19.838  0.00  0.00    +0.000 C 
BRANCH  31  32
ATOM     32  C   UNL     1      -4.916  12.615  20.957  0.00  0.00    +0.000 C 
BRANCH  32  34
ATOM     33  C   UNL     1      -2.424  12.605  20.909  0.00  0.00    +0.000 C 
ATOM     34  C   UNL     1      -3.671  13.398  20.568  0.00  0.00    +0.000 C 
ENDBRANCH  32  34
ENDBRANCH  31  32
ENDBRANCH  30  31
ENDBRANCH  29  30
ENDBRANCH  28  29
ENDBRANCH  27  28
ENDBRANCH  26  27
ENDBRANCH  25  26
ENDBRANCH  24  25
ENDBRANCH  23  24
ENDBRANCH  22  23
ENDBRANCH  21  22
ENDBRANCH  20  21
ENDBRANCH   1  20
TORSDOF 20
ENDMDL
MODEL 9
REMARK VINA RESULT:      -5.8      6.614     10.601
REMARK  Name = 
REMARK  22 active torsions:
REMARK  status: ('A' for Active; 'I' for Inactive)
REMARK    1  A    between atoms: C_1  and  C_2
REMARK    2  A    between atoms: C_2  and  C_3
REMARK    3  A    between atoms: C_3  and  C_4
REMARK    4  A    between atoms: C_4  and  C_5
REMARK    5  A    between atoms: C_5  and  C_6
REMARK    6  A    between atoms: C_6  and  C_7
REMARK    7  A    between atoms: C_7  and  C_8
REMARK    8  A    between atoms: C_8  and  C_9
REMARK    9  A    between atoms: C_9  and  C_10
REMARK   10  A    between atoms: C_10  and  C_11
REMARK   11  A    between atoms: C_11  and  C_12
REMARK   12  A    between atoms: C_12  and  C_13
REMARK   13  A    between atoms: C_13  and  C_14
REMARK   14  A    between atoms: C_14  and  C_15
REMARK   15  A    between atoms: C_15  and  C_16
REMARK   16  A    between atoms: N_18  and  S_19
REMARK   17  A    between atoms: S_19  and  O_22
REMARK   18  A    between atoms: O_22  and  C_23
REMARK   19  A    between atoms: C_26  and  C_27
REMARK   20  A    between atoms: C_27  and  C_28
REMARK   21  A    between atoms: C_28  and  O_30
REMARK   22  A    between atoms: O_30  and  C_31
REMARK                            x       y       z     vdW  Elec       q    Type
REMARK                         _______ _______ _______ _____ _____    ______ ____
ROOT
ATOM      1  C   UNL     1       7.712   7.746  17.743  0.00  0.00    +0.000 C 
ATOM      2  O   UNL     1       8.165   6.982  18.600  0.00  0.00    +0.000 OA
ATOM      3  N   UNL     1       7.192   7.247  16.509  0.00  0.00    +0.000 N 
ATOM      4  H   UNL     1       6.623   7.870  15.921  0.00  0.00    +0.000 HD
ENDROOT
BRANCH   3   5
ATOM      5  S   UNL     1       7.095   5.588  16.129  0.00  0.00    +0.000 S 
ATOM      6  O   UNL     1       7.687   5.309  14.833  0.00  0.00    +0.000 OA
ATOM      7  O   UNL     1       7.599   4.899  17.301  0.00  0.00    +0.000 OA
BRANCH   5   8
ATOM      8  O   UNL     1       5.492   5.244  15.985  0.00  0.00    +0.000 OA
BRANCH   8   9
ATOM      9  C   UNL     1       4.768   5.027  17.139  0.00  0.00    +0.000 A 
ATOM     10  C   UNL     1       4.749   3.805  17.800  0.00  0.00    +0.000 A 
ATOM     11  C   UNL     1       3.961   3.603  18.947  0.00  0.00    +0.000 A 
ATOM     12  C   UNL     1       3.235   4.654  19.525  0.00  0.00    +0.000 A 
ATOM     13  C   UNL     1       3.246   5.872  18.831  0.00  0.00    +0.000 A 
ATOM     14  C   UNL     1       4.011   6.059  17.670  0.00  0.00    +0.000 A 
BRANCH  12  15
ATOM     15  C   UNL     1       2.505   4.492  20.874  0.00  0.00    +0.000 C 
BRANCH  15  16
ATOM     16  C   UNL     1       2.225   3.048  21.286  0.00  0.00    +0.000 C 
ATOM     17  O   UNL     1       2.891   2.451  22.153  0.00  0.00    +0.000 OA
BRANCH  16  18
ATOM     18  O   UNL     1       1.202   2.442  20.618  0.00  0.00    +0.000 OA
ATOM     19  C   UNL     1       0.377   3.398  19.935  0.00  0.00    +0.000 C 
ENDBRANCH  16  18
ENDBRANCH  15  16
ENDBRANCH  12  15
ENDBRANCH   8   9
ENDBRANCH   5   8
ENDBRANCH   3   5
BRANCH   1  20
ATOM     20  C   UNL     1       7.762   9.236  17.981  0.00  0.00    +0.000 C 
BRANCH  20  21
ATOM     21  C   UNL     1       9.084   9.573  18.672  0.00  0.00    +0.000 C 
BRANCH  21  22
ATOM     22  C   UNL     1       9.127  11.020  19.149  0.00  0.00    +0.000 C 
BRANCH  22  23
ATOM     23  C   UNL     1       9.997  11.148  20.396  0.00  0.00    +0.000 C 
BRANCH  23  24
ATOM     24  C   UNL     1      10.730  12.480  20.395  0.00  0.00    +0.000 C 
BRANCH  24  25
ATOM     25  C   UNL     1      12.129  12.317  19.825  0.00  0.00    +0.000 C 
BRANCH  25  26
ATOM     26  C   UNL     1      12.158  12.770  18.375  0.00  0.00    +0.000 C 
BRANCH  26  27
ATOM     27  C   UNL     1      12.332  14.276  18.305  0.00  0.00    +0.000 C 
BRANCH  27  28
ATOM     28  C   UNL     1      11.103  14.910  17.683  0.00  0.00    +0.000 C 
BRANCH  28  29
ATOM     29  C   UNL     1      10.515  15.940  18.632  0.00  0.00    +0.000 C 
BRANCH  29  30
ATOM     30  C   UNL     1       9.058  16.190  18.288  0.00  0.00    +0.000 C 
BRANCH  30  31
ATOM     31  C   UNL     1       8.347  14.869  18.052  0.00  0.00    +0.000 C 
BRANCH  31  32
ATOM     32  C   UNL     1       7.341  14.612  19.161  0.00  0.00    +0.000 C 
BRANCH  32  34
ATOM     33  C   UNL     1       5.066  15.251  19.956  0.00  0.00    +0.000 C 
ATOM     34  C   UNL     1       5.955  15.081  18.740  0.00  0.00    +0.000 C 
ENDBRANCH  32  34
ENDBRANCH  31  32
ENDBRANCH  30  31
ENDBRANCH  29  30
ENDBRANCH  28  29
ENDBRANCH  27  28
ENDBRANCH  26  27
ENDBRANCH  25  26
ENDBRANCH  24  25
ENDBRANCH  23  24
ENDBRANCH  22  23
ENDBRANCH  21  22
ENDBRANCH  20  21
ENDBRANCH   1  20
TORSDOF 20
ENDMDL
