MODEL 1
REMARK VINA RESULT:      -6.3      0.000      0.000
REMARK  Name = 
REMARK  8 active torsions:
REMARK  status: ('A' for Active; 'I' for Inactive)
REMARK    1  A    between atoms: C_2  and  C_3
REMARK    2  A    between atoms: C_3  and  N_4
REMARK    3  A    between atoms: C_5  and  S_6
REMARK    4  A    between atoms: S_6  and  C_7
REMARK    5  A    between atoms: C_7  and  C_8
REMARK    6  A    between atoms: C_8  and  O_9
REMARK    7  A    between atoms: O_9  and  C_10
REMARK    8  A    between atoms: N_19  and  C_20
REMARK                            x       y       z     vdW  Elec       q    Type
REMARK                         _______ _______ _______ _____ _____    ______ ____
ROOT
ATOM      1  N   UNL     1       3.613   4.357  18.768  0.00  0.00    +0.000 N 
ATOM      2  C   UNL     1       4.018   4.876  17.556  0.00  0.00    +0.000 A 
ATOM      3  N   UNL     1       3.661   6.136  17.415  0.00  0.00    +0.000 NA
ATOM      4  C   UNL     1       2.990   6.431  18.562  0.00  0.00    +0.000 A 
ATOM      5  C   UNL     1       2.945   5.364  19.416  0.00  0.00    +0.000 A 
ATOM      6  C   UNL     1       2.297   5.423  20.681  0.00  0.00    +0.000 A 
ATOM      7  O   UNL     1       2.208   4.499  21.482  0.00  0.00    +0.000 OA
ATOM      8  N   UNL     1       1.745   6.658  20.933  0.00  0.00    +0.000 N 
ATOM      9  C   UNL     1       1.749   7.764  20.104  0.00  0.00    +0.000 A 
ATOM     10  O   UNL     1       1.183   8.789  20.483  0.00  0.00    +0.000 OA
ATOM     11  N   UNL     1       2.399   7.638  18.880  0.00  0.00    +0.000 N 
ATOM     12  C   UNL     1       2.438   8.752  17.953  0.00  0.00    +0.000 C 
ATOM     13  H   UNL     1       1.263   6.766  21.810  0.00  0.00    +0.000 HD
ENDROOT
BRANCH   1  14
ATOM     14  C   UNL     1       3.817   3.009  19.280  0.00  0.00    +0.000 C 
BRANCH  14  16
ATOM     15  C   UNL     1       1.510   2.067  18.936  0.00  0.00    +0.000 C 
ATOM     16  C   UNL     1       2.830   2.035  18.702  0.00  0.00    +0.000 C 
ENDBRANCH  14  16
ENDBRANCH   1  14
BRANCH   2  17
ATOM     17  S   UNL     1       4.875   3.935  16.378  0.00  0.00    +0.000 S 
BRANCH  17  18
ATOM     18  C   UNL     1       6.613   4.316  16.753  0.00  0.00    +0.000 C 
BRANCH  18  19
ATOM     19  C   UNL     1       7.268   5.155  15.661  0.00  0.00    +0.000 C 
BRANCH  19  20
ATOM     20  O   UNL     1       7.476   6.481  16.165  0.00  0.00    +0.000 OA
ATOM     21  C   UNL     1       7.365   6.526  17.582  0.00  0.00    +0.000 C 
ENDBRANCH  19  20
ENDBRANCH  18  19
ENDBRANCH  17  18
ENDBRANCH   2  17
TORSDOF 6
ENDMDL
MODEL 2
REMARK VINA RESULT:      -6.2      1.234      1.622
REMARK  Name = 
REMARK  8 active torsions:
REMARK  status: ('A' for Active; 'I' for Inactive)
REMARK    1  A    between atoms: C_2  and  C_3
REMARK    2  A    between atoms: C_3  and  N_4
REMARK    3  A    between atoms: C_5  and  S_6
REMARK    4  A    between atoms: S_6  and  C_7
REMARK    5  A    between atoms: C_7  and  C_8
REMARK    6  A    between atoms: C_8  and  O_9
REMARK    7  A    between atoms: O_9  and  C_10
REMARK    8  A    between atoms: N_19  and  C_20
REMARK                            x       y       z     vdW  Elec       q    Type
REMARK                         _______ _______ _______ _____ _____    ______ ____
ROOT
ATOM      1  N   UNL     1       3.710   4.254  18.746  0.00  0.00    +0.000 N 
ATOM      2  C   UNL     1       4.141   4.771  17.542  0.00  0.00    +0.000 A 
ATOM      3  N   UNL     1       3.787   6.031  17.391  0.00  0.00    +0.000 NA
ATOM      4  C   UNL     1       3.090   6.327  18.523  0.00  0.00    +0.000 A 
ATOM      5  C   UNL     1       3.027   5.261  19.377  0.00  0.00    +0.000 A 
ATOM      6  C   UNL     1       2.352   5.322  20.628  0.00  0.00    +0.000 A 
ATOM      7  O   UNL     1       2.246   4.400  21.428  0.00  0.00    +0.000 OA
ATOM      8  N   UNL     1       1.793   6.557  20.865  0.00  0.00    +0.000 N 
ATOM      9  C   UNL     1       1.815   7.662  20.035  0.00  0.00    +0.000 A 
ATOM     10  O   UNL     1       1.240   8.687  20.400  0.00  0.00    +0.000 OA
ATOM     11  N   UNL     1       2.491   7.534  18.826  0.00  0.00    +0.000 N 
ATOM     12  C   UNL     1       2.550   8.646  17.897  0.00  0.00    +0.000 C 
ATOM     13  H   UNL     1       1.292   6.667  21.732  0.00  0.00    +0.000 HD
ENDROOT
BRANCH   1  14
ATOM     14  C   UNL     1       3.904   2.907  19.264  0.00  0.00    +0.000 C 
BRANCH  14  16
ATOM     15  C   UNL     1       1.565   2.152  18.729  0.00  0.00    +0.000 C 
ATOM     16  C   UNL     1       2.890   1.944  18.716  0.00  0.00    +0.000 C 
ENDBRANCH  14  16
ENDBRANCH   1  14
BRANCH   2  17
ATOM     17  S   UNL     1       5.025   3.829  16.385  0.00  0.00    +0.000 S 
BRANCH  17  18
ATOM     18  C   UNL     1       6.424   4.914  15.975  0.00  0.00    +0.000 C 
BRANCH  18  19
ATOM     19  C   UNL     1       6.811   4.827  14.502  0.00  0.00    +0.000 C 
BRANCH  19  20
ATOM     20  O   UNL     1       6.211   3.653  13.941  0.00  0.00    +0.000 OA
ATOM     21  C   UNL     1       6.366   3.609  12.528  0.00  0.00    +0.000 C 
ENDBRANCH  19  20
ENDBRANCH  18  19
ENDBRANCH  17  18
ENDBRANCH   2  17
TORSDOF 6
ENDMDL
MODEL 3
REMARK VINA RESULT:      -6.2      1.501      3.868
REMARK  Name = 
REMARK  8 active torsions:
REMARK  status: ('A' for Active; 'I' for Inactive)
REMARK    1  A    between atoms: C_2  and  C_3
REMARK    2  A    between atoms: C_3  and  N_4
REMARK    3  A    between atoms: C_5  and  S_6
REMARK    4  A    between atoms: S_6  and  C_7
REMARK    5  A    between atoms: C_7  and  C_8
REMARK    6  A    between atoms: C_8  and  O_9
REMARK    7  A    between atoms: O_9  and  C_10
REMARK    8  A    between atoms: N_19  and  C_20
REMARK                            x       y       z     vdW  Elec       q    Type
REMARK                         _______ _______ _______ _____ _____    ______ ____
ROOT
ATOM      1  N   UNL     1       3.543   6.261  18.106  0.00  0.00    +0.000 N 
ATOM      2  C   UNL     1       4.227   5.447  17.228  0.00  0.00    +0.000 A 
ATOM      3  N   UNL     1       4.049   4.170  17.500  0.00  0.00    +0.000 NA
ATOM      4  C   UNL     1       3.244   4.163  18.598  0.00  0.00    +0.000 A 
ATOM      5  C   UNL     1       2.911   5.429  18.994  0.00  0.00    +0.000 A 
ATOM      6  C   UNL     1       2.078   5.684  20.119  0.00  0.00    +0.000 A 
ATOM      7  O   UNL     1       1.758   6.792  20.534  0.00  0.00    +0.000 OA
ATOM      8  N   UNL     1       1.655   4.528  20.734  0.00  0.00    +0.000 N 
ATOM      9  C   UNL     1       1.970   3.228  20.386  0.00  0.00    +0.000 A 
ATOM     10  O   UNL     1       1.518   2.307  21.066  0.00  0.00    +0.000 OA
ATOM     11  N   UNL     1       2.790   3.049  19.276  0.00  0.00    +0.000 N 
ATOM     12  C   UNL     1       3.172   1.715  18.854  0.00  0.00    +0.000 C 
ATOM     13  H   UNL     1       1.068   4.637  21.545  0.00  0.00    +0.000 HD
ENDROOT
BRANCH   1  14
ATOM     14  C   UNL     1       3.498   7.716  18.130  0.00  0.00    +0.000 C 
BRANCH  14  16
ATOM     15  C   UNL     1       1.532   9.280  18.003  0.00  0.00    +0.000 C 
ATOM     16  C   UNL     1       2.235   8.248  17.515  0.00  0.00    +0.000 C 
ENDBRANCH  14  16
ENDBRANCH   1  14
BRANCH   2  17
ATOM     17  S   UNL     1       5.209   6.075  15.945  0.00  0.00    +0.000 S 
BRANCH  17  18
ATOM     18  C   UNL     1       6.893   5.681  16.504  0.00  0.00    +0.000 C 
BRANCH  18  19
ATOM     19  C   UNL     1       7.379   6.635  17.590  0.00  0.00    +0.000 C 
BRANCH  19  20
ATOM     20  O   UNL     1       7.578   7.928  17.007  0.00  0.00    +0.000 OA
ATOM     21  C   UNL     1       8.119   8.849  17.946  0.00  0.00    +0.000 C 
ENDBRANCH  19  20
ENDBRANCH  18  19
ENDBRANCH  17  18
ENDBRANCH   2  17
TORSDOF 6
ENDMDL
MODEL 4
REMARK VINA RESULT:      -6.0      1.498      3.810
REMARK  Name = 
REMARK  8 active torsions:
REMARK  status: ('A' for Active; 'I' for Inactive)
REMARK    1  A    between atoms: C_2  and  C_3
REMARK    2  A    between atoms: C_3  and  N_4
REMARK    3  A    between atoms: C_5  and  S_6
REMARK    4  A    between atoms: S_6  and  C_7
REMARK    5  A    between atoms: C_7  and  C_8
REMARK    6  A    between atoms: C_8  and  O_9
REMARK    7  A    between atoms: O_9  and  C_10
REMARK    8  A    between atoms: N_19  and  C_20
REMARK                            x       y       z     vdW  Elec       q    Type
REMARK                         _______ _______ _______ _____ _____    ______ ____
ROOT
ATOM      1  N   UNL     1       3.522   6.183  18.148  0.00  0.00    +0.000 N 
ATOM      2  C   UNL     1       4.123   5.238  17.344  0.00  0.00    +0.000 A 
ATOM      3  N   UNL     1       3.813   4.011  17.708  0.00  0.00    +0.000 NA
ATOM      4  C   UNL     1       3.003   4.171  18.792  0.00  0.00    +0.000 A 
ATOM      5  C   UNL     1       2.801   5.490  19.087  0.00  0.00    +0.000 A 
ATOM      6  C   UNL     1       1.991   5.916  20.177  0.00  0.00    +0.000 A 
ATOM      7  O   UNL     1       1.784   7.079  20.502  0.00  0.00    +0.000 OA
ATOM      8  N   UNL     1       1.447   4.860  20.871  0.00  0.00    +0.000 N 
ATOM      9  C   UNL     1       1.627   3.511  20.626  0.00  0.00    +0.000 A 
ATOM     10  O   UNL     1       1.078   2.697  21.367  0.00  0.00    +0.000 OA
ATOM     11  N   UNL     1       2.432   3.165  19.546  0.00  0.00    +0.000 N 
ATOM     12  C   UNL     1       2.676   1.770  19.231  0.00  0.00    +0.000 C 
ATOM     13  H   UNL     1       0.868   5.090  21.663  0.00  0.00    +0.000 HD
ENDROOT
BRANCH   1  14
ATOM     14  C   UNL     1       3.628   7.633  18.062  0.00  0.00    +0.000 C 
BRANCH  14  16
ATOM     15  C   UNL     1       1.907   9.460  17.893  0.00  0.00    +0.000 C 
ATOM     16  C   UNL     1       2.369   8.255  17.528  0.00  0.00    +0.000 C 
ENDBRANCH  14  16
ENDBRANCH   1  14
BRANCH   2  17
ATOM     17  S   UNL     1       5.174   5.662  16.031  0.00  0.00    +0.000 S 
BRANCH  17  18
ATOM     18  C   UNL     1       6.435   4.354  16.094  0.00  0.00    +0.000 C 
BRANCH  18  19
ATOM     19  C   UNL     1       7.586   4.705  17.029  0.00  0.00    +0.000 C 
BRANCH  19  20
ATOM     20  O   UNL     1       7.176   4.447  18.377  0.00  0.00    +0.000 OA
ATOM     21  C   UNL     1       7.324   5.597  19.201  0.00  0.00    +0.000 C 
ENDBRANCH  19  20
ENDBRANCH  18  19
ENDBRANCH  17  18
ENDBRANCH   2  17
TORSDOF 6
ENDMDL
MODEL 5
REMARK VINA RESULT:      -6.0      2.545      4.512
REMARK  Name = 
REMARK  8 active torsions:
REMARK  status: ('A' for Active; 'I' for Inactive)
REMARK    1  A    between atoms: C_2  and  C_3
REMARK    2  A    between atoms: C_3  and  N_4
REMARK    3  A    between atoms: C_5  and  S_6
REMARK    4  A    between atoms: S_6  and  C_7
REMARK    5  A    between atoms: C_7  and  C_8
REMARK    6  A    between atoms: C_8  and  O_9
REMARK    7  A    between atoms: O_9  and  C_10
REMARK    8  A    between atoms: N_19  and  C_20
REMARK                            x       y       z     vdW  Elec       q    Type
REMARK                         _______ _______ _______ _____ _____    ______ ____
ROOT
ATOM      1  N   UNL     1       4.772   5.454  17.032  0.00  0.00    +0.000 N 
ATOM      2  C   UNL     1       5.050   4.200  16.530  0.00  0.00    +0.000 A 
ATOM      3  N   UNL     1       4.238   3.283  17.016  0.00  0.00    +0.000 NA
ATOM      4  C   UNL     1       3.427   3.964  17.871  0.00  0.00    +0.000 A 
ATOM      5  C   UNL     1       3.724   5.298  17.903  0.00  0.00    +0.000 A 
ATOM      6  C   UNL     1       3.015   6.221  18.721  0.00  0.00    +0.000 A 
ATOM      7  O   UNL     1       3.243   7.422  18.807  0.00  0.00    +0.000 OA
ATOM      8  N   UNL     1       2.016   5.618  19.451  0.00  0.00    +0.000 N 
ATOM      9  C   UNL     1       1.681   4.276  19.468  0.00  0.00    +0.000 A 
ATOM     10  O   UNL     1       0.767   3.904  20.202  0.00  0.00    +0.000 OA
ATOM     11  N   UNL     1       2.416   3.429  18.644  0.00  0.00    +0.000 N 
ATOM     12  C   UNL     1       2.129   2.008  18.614  0.00  0.00    +0.000 C 
ATOM     13  H   UNL     1       1.479   6.214  20.060  0.00  0.00    +0.000 HD
ENDROOT
BRANCH   1  14
ATOM     14  C   UNL     1       5.449   6.709  16.737  0.00  0.00    +0.000 C 
BRANCH  14  16
ATOM     15  C   UNL     1       7.541   7.914  17.441  0.00  0.00    +0.000 C 
ATOM     16  C   UNL     1       6.739   6.841  17.495  0.00  0.00    +0.000 C 
ENDBRANCH  14  16
ENDBRANCH   1  14
BRANCH   2  17
ATOM     17  S   UNL     1       6.340   3.909  15.408  0.00  0.00    +0.000 S 
BRANCH  17  18
ATOM     18  C   UNL     1       5.506   4.045  13.799  0.00  0.00    +0.000 C 
BRANCH  18  19
ATOM     19  C   UNL     1       6.379   3.546  12.652  0.00  0.00    +0.000 C 
BRANCH  19  20
ATOM     20  O   UNL     1       5.608   2.643  11.850  0.00  0.00    +0.000 OA
ATOM     21  C   UNL     1       4.364   3.214  11.466  0.00  0.00    +0.000 C 
ENDBRANCH  19  20
ENDBRANCH  18  19
ENDBRANCH  17  18
ENDBRANCH   2  17
TORSDOF 6
ENDMDL
MODEL 6
REMARK VINA RESULT:      -6.0      2.562      6.022
REMARK  Name = 
REMARK  8 active torsions:
REMARK  status: ('A' for Active; 'I' for Inactive)
REMARK    1  A    between atoms: C_2  and  C_3
REMARK    2  A    between atoms: C_3  and  N_4
REMARK    3  A    between atoms: C_5  and  S_6
REMARK    4  A    between atoms: S_6  and  C_7
REMARK    5  A    between atoms: C_7  and  C_8
REMARK    6  A    between atoms: C_8  and  O_9
REMARK    7  A    between atoms: O_9  and  C_10
REMARK    8  A    between atoms: N_19  and  C_20
REMARK                            x       y       z     vdW  Elec       q    Type
REMARK                         _______ _______ _______ _____ _____    ______ ____
ROOT
ATOM      1  N   UNL     1       5.124   4.163  18.007  0.00  0.00    +0.000 N 
ATOM      2  C   UNL     1       4.443   3.137  17.386  0.00  0.00    +0.000 A 
ATOM      3  N   UNL     1       4.795   3.004  16.124  0.00  0.00    +0.000 NA
ATOM      4  C   UNL     1       5.717   3.986  15.922  0.00  0.00    +0.000 A 
ATOM      5  C   UNL     1       5.944   4.714  17.057  0.00  0.00    +0.000 A 
ATOM      6  C   UNL     1       6.866   5.797  17.100  0.00  0.00    +0.000 A 
ATOM      7  O   UNL     1       7.102   6.496  18.078  0.00  0.00    +0.000 OA
ATOM      8  N   UNL     1       7.486   6.008  15.889  0.00  0.00    +0.000 N 
ATOM      9  C   UNL     1       7.285   5.315  14.710  0.00  0.00    +0.000 A 
ATOM     10  O   UNL     1       7.915   5.656  13.709  0.00  0.00    +0.000 OA
ATOM     11  N   UNL     1       6.369   4.268  14.738  0.00  0.00    +0.000 N 
ATOM     12  C   UNL     1       6.098   3.500  13.538  0.00  0.00    +0.000 C 
ATOM     13  H   UNL     1       8.146   6.768  15.847  0.00  0.00    +0.000 HD
ENDROOT
BRANCH   1  14
ATOM     14  C   UNL     1       5.004   4.613  19.387  0.00  0.00    +0.000 C 
BRANCH  14  16
ATOM     15  C   UNL     1       3.403   6.417  18.672  0.00  0.00    +0.000 C 
ATOM     16  C   UNL     1       3.824   5.523  19.578  0.00  0.00    +0.000 C 
ENDBRANCH  14  16
ENDBRANCH   1  14
BRANCH   2  17
ATOM     17  S   UNL     1       3.254   2.176  18.205  0.00  0.00    +0.000 S 
BRANCH  17  18
ATOM     18  C   UNL     1       1.743   3.169  18.019  0.00  0.00    +0.000 C 
BRANCH  18  19
ATOM     19  C   UNL     1       0.687   2.814  19.061  0.00  0.00    +0.000 C 
BRANCH  19  20
ATOM     20  O   UNL     1       0.860   3.670  20.197  0.00  0.00    +0.000 OA
ATOM     21  C   UNL     1       1.355   2.953  21.322  0.00  0.00    +0.000 C 
ENDBRANCH  19  20
ENDBRANCH  18  19
ENDBRANCH  17  18
ENDBRANCH   2  17
TORSDOF 6
ENDMDL
MODEL 7
REMARK VINA RESULT:      -6.0      2.264      5.871
REMARK  Name = 
REMARK  8 active torsions:
REMARK  status: ('A' for Active; 'I' for Inactive)
REMARK    1  A    between atoms: C_2  and  C_3
REMARK    2  A    between atoms: C_3  and  N_4
REMARK    3  A    between atoms: C_5  and  S_6
REMARK    4  A    between atoms: S_6  and  C_7
REMARK    5  A    between atoms: C_7  and  C_8
REMARK    6  A    between atoms: C_8  and  O_9
REMARK    7  A    between atoms: O_9  and  C_10
REMARK    8  A    between atoms: N_19  and  C_20
REMARK                            x       y       z     vdW  Elec       q    Type
REMARK                         _______ _______ _______ _____ _____    ______ ____
ROOT
ATOM      1  N   UNL     1       4.395   5.066  17.827  0.00  0.00    +0.000 N 
ATOM      2  C   UNL     1       3.652   4.078  17.215  0.00  0.00    +0.000 A 
ATOM      3  N   UNL     1       4.179   3.704  16.067  0.00  0.00    +0.000 NA
ATOM      4  C   UNL     1       5.283   4.489  15.927  0.00  0.00    +0.000 A 
ATOM      5  C   UNL     1       5.448   5.333  16.990  0.00  0.00    +0.000 A 
ATOM      6  C   UNL     1       6.530   6.252  17.077  0.00  0.00    +0.000 A 
ATOM      7  O   UNL     1       6.723   7.044  17.992  0.00  0.00    +0.000 OA
ATOM      8  N   UNL     1       7.370   6.181  15.989  0.00  0.00    +0.000 N 
ATOM      9  C   UNL     1       7.245   5.359  14.884  0.00  0.00    +0.000 A 
ATOM     10  O   UNL     1       8.083   5.444  13.987  0.00  0.00    +0.000 OA
ATOM     11  N   UNL     1       6.163   4.484  14.863  0.00  0.00    +0.000 N 
ATOM     12  C   UNL     1       5.961   3.597  13.734  0.00  0.00    +0.000 C 
ATOM     13  H   UNL     1       8.154   6.813  15.982  0.00  0.00    +0.000 HD
ENDROOT
BRANCH   1  14
ATOM     14  C   UNL     1       4.131   5.730  19.095  0.00  0.00    +0.000 C 
BRANCH  14  16
ATOM     15  C   UNL     1       2.855   7.630  18.051  0.00  0.00    +0.000 C 
ATOM     16  C   UNL     1       2.978   6.688  18.997  0.00  0.00    +0.000 C 
ENDBRANCH  14  16
ENDBRANCH   1  14
BRANCH   2  17
ATOM     17  S   UNL     1       2.190   3.448  17.903  0.00  0.00    +0.000 S 
BRANCH  17  18
ATOM     18  C   UNL     1       2.781   2.007  18.841  0.00  0.00    +0.000 C 
BRANCH  18  19
ATOM     19  C   UNL     1       3.380   2.400  20.187  0.00  0.00    +0.000 C 
BRANCH  19  20
ATOM     20  O   UNL     1       2.492   3.323  20.830  0.00  0.00    +0.000 OA
ATOM     21  C   UNL     1       1.521   2.651  21.622  0.00  0.00    +0.000 C 
ENDBRANCH  19  20
ENDBRANCH  18  19
ENDBRANCH  17  18
ENDBRANCH   2  17
TORSDOF 6
ENDMDL
MODEL 8
REMARK VINA RESULT:      -6.0      2.518      5.450
REMARK  Name = 
REMARK  8 active torsions:
REMARK  status: ('A' for Active; 'I' for Inactive)
REMARK    1  A    between atoms: C_2  and  C_3
REMARK    2  A    between atoms: C_3  and  N_4
REMARK    3  A    between atoms: C_5  and  S_6
REMARK    4  A    between atoms: S_6  and  C_7
REMARK    5  A    between atoms: C_7  and  C_8
REMARK    6  A    between atoms: C_8  and  O_9
REMARK    7  A    between atoms: O_9  and  C_10
REMARK    8  A    between atoms: N_19  and  C_20
REMARK                            x       y       z     vdW  Elec       q    Type
REMARK                         _______ _______ _______ _____ _____    ______ ____
ROOT
ATOM      1  N   UNL     1       2.947   5.311  19.597  0.00  0.00    +0.000 N 
ATOM      2  C   UNL     1       2.784   6.619  19.193  0.00  0.00    +0.000 A 
ATOM      3  N   UNL     1       3.429   6.874  18.073  0.00  0.00    +0.000 NA
ATOM      4  C   UNL     1       4.042   5.699  17.757  0.00  0.00    +0.000 A 
ATOM      5  C   UNL     1       3.765   4.718  18.669  0.00  0.00    +0.000 A 
ATOM      6  C   UNL     1       4.290   3.401  18.559  0.00  0.00    +0.000 A 
ATOM      7  O   UNL     1       4.093   2.485  19.348  0.00  0.00    +0.000 OA
ATOM      8  N   UNL     1       5.083   3.242  17.445  0.00  0.00    +0.000 N 
ATOM      9  C   UNL     1       5.407   4.198  16.501  0.00  0.00    +0.000 A 
ATOM     10  O   UNL     1       6.154   3.885  15.574  0.00  0.00    +0.000 OA
ATOM     11  N   UNL     1       4.860   5.466  16.670  0.00  0.00    +0.000 N 
ATOM     12  C   UNL     1       5.161   6.525  15.726  0.00  0.00    +0.000 C 
ATOM     13  H   UNL     1       5.495   2.332  17.311  0.00  0.00    +0.000 HD
ENDROOT
BRANCH   1  14
ATOM     14  C   UNL     1       2.396   4.661  20.778  0.00  0.00    +0.000 C 
BRANCH  14  16
ATOM     15  C   UNL     1       0.758   3.020  19.803  0.00  0.00    +0.000 C 
ATOM     16  C   UNL     1       1.018   4.118  20.527  0.00  0.00    +0.000 C 
ENDBRANCH  14  16
ENDBRANCH   1  14
BRANCH   2  17
ATOM     17  S   UNL     1       1.847   7.765  20.097  0.00  0.00    +0.000 S 
BRANCH  17  18
ATOM     18  C   UNL     1       1.475   9.041  18.856  0.00  0.00    +0.000 C 
BRANCH  18  19
ATOM     19  C   UNL     1       0.542  10.118  19.397  0.00  0.00    +0.000 C 
BRANCH  19  20
ATOM     20  O   UNL     1      -0.239  10.634  18.312  0.00  0.00    +0.000 OA
ATOM     21  C   UNL     1      -1.627  10.644  18.624  0.00  0.00    +0.000 C 
ENDBRANCH  19  20
ENDBRANCH  18  19
ENDBRANCH  17  18
ENDBRANCH   2  17
TORSDOF 6
ENDMDL
MODEL 9
REMARK VINA RESULT:      -5.9      1.834      4.109
REMARK  Name = 
REMARK  8 active torsions:
REMARK  status: ('A' for Active; 'I' for Inactive)
REMARK    1  A    between atoms: C_2  and  C_3
REMARK    2  A    between atoms: C_3  and  N_4
REMARK    3  A    between atoms: C_5  and  S_6
REMARK    4  A    between atoms: S_6  and  C_7
REMARK    5  A    between atoms: C_7  and  C_8
REMARK    6  A    between atoms: C_8  and  O_9
REMARK    7  A    between atoms: O_9  and  C_10
REMARK    8  A    between atoms: N_19  and  C_20
REMARK                            x       y       z     vdW  Elec       q    Type
REMARK                         _______ _______ _______ _____ _____    ______ ____
ROOT
ATOM      1  N   UNL     1       3.501   6.348  18.147  0.00  0.00    +0.000 N 
ATOM      2  C   UNL     1       4.192   5.566  17.246  0.00  0.00    +0.000 A 
ATOM      3  N   UNL     1       4.040   4.280  17.491  0.00  0.00    +0.000 NA
ATOM      4  C   UNL     1       3.242   4.236  18.594  0.00  0.00    +0.000 A 
ATOM      5  C   UNL     1       2.890   5.486  19.021  0.00  0.00    +0.000 A 
ATOM      6  C   UNL     1       2.061   5.702  20.156  0.00  0.00    +0.000 A 
ATOM      7  O   UNL     1       1.724   6.795  20.597  0.00  0.00    +0.000 OA
ATOM      8  N   UNL     1       1.663   4.526  20.749  0.00  0.00    +0.000 N 
ATOM      9  C   UNL     1       1.998   3.239  20.370  0.00  0.00    +0.000 A 
ATOM     10  O   UNL     1       1.567   2.296  21.033  0.00  0.00    +0.000 OA
ATOM     11  N   UNL     1       2.813   3.099  19.251  0.00  0.00    +0.000 N 
ATOM     12  C   UNL     1       3.215   1.782  18.798  0.00  0.00    +0.000 C 
ATOM     13  H   UNL     1       1.079   4.607  21.566  0.00  0.00    +0.000 HD
ENDROOT
BRANCH   1  14
ATOM     14  C   UNL     1       3.431   7.802  18.203  0.00  0.00    +0.000 C 
BRANCH  14  16
ATOM     15  C   UNL     1       1.386   9.259  18.061  0.00  0.00    +0.000 C 
ATOM     16  C   UNL     1       2.193   8.329  17.533  0.00  0.00    +0.000 C 
ENDBRANCH  14  16
ENDBRANCH   1  14
BRANCH   2  17
ATOM     17  S   UNL     1       5.155   6.239  15.970  0.00  0.00    +0.000 S 
BRANCH  17  18
ATOM     18  C   UNL     1       6.502   5.030  15.809  0.00  0.00    +0.000 C 
BRANCH  18  19
ATOM     19  C   UNL     1       6.857   4.751  14.352  0.00  0.00    +0.000 C 
BRANCH  19  20
ATOM     20  O   UNL     1       5.826   3.937  13.778  0.00  0.00    +0.000 OA
ATOM     21  C   UNL     1       6.204   3.435  12.503  0.00  0.00    +0.000 C 
ENDBRANCH  19  20
ENDBRANCH  18  19
ENDBRANCH  17  18
ENDBRANCH   2  17
TORSDOF 6
ENDMDL
