MODEL 1
REMARK VINA RESULT:      -8.2      0.000      0.000
REMARK  Name = 
REMARK  7 active torsions:
REMARK  status: ('A' for Active; 'I' for Inactive)
REMARK    1  A    between atoms: C_2  and  C_3
REMARK    2  A    between atoms: C_3  and  C_4
REMARK    3  A    between atoms: C_4  and  N_5
REMARK    4  A    between atoms: C_7  and  C_8
REMARK    5  A    between atoms: N_12  and  C_13
REMARK    6  A    between atoms: C_23  and  N_24
REMARK    7  A    between atoms: N_24  and  C_25
REMARK                            x       y       z     vdW  Elec       q    Type
REMARK                         _______ _______ _______ _____ _____    ______ ____
ROOT
ATOM      1  C   UNL     1       0.509   9.983  19.045  0.00  0.00    +0.000 C 
ATOM      2  C   UNL     1       1.315   9.398  17.850  0.00  0.00    +0.000 C 
ATOM      3  C   UNL     1       2.596   8.679  18.265  0.00  0.00    +0.000 C 
ATOM      4  C   UNL     1       2.352   7.583  19.311  0.00  0.00    +0.000 C 
ATOM      5  C   UNL     1       1.518   8.099  20.489  0.00  0.00    +0.000 C 
ATOM      6  C   UNL     1       0.246   8.835  20.059  0.00  0.00    +0.000 C 
ENDROOT
BRANCH   1   7
ATOM      7  N   UNL     1      -0.802  10.507  18.591  0.00  0.00    +0.000 N 
ATOM      8  C   UNL     1      -1.415  10.368  17.379  0.00  0.00    +0.000 A 
ATOM      9  C   UNL     1      -2.601  11.078  17.446  0.00  0.00    +0.000 A 
ATOM     10  C   UNL     1      -2.616  11.613  18.762  0.00  0.00    +0.000 A 
ATOM     11  N   UNL     1      -3.612  12.400  19.243  0.00  0.00    +0.000 N 
ATOM     12  N   UNL     1      -1.535  11.230  19.453  0.00  0.00    +0.000 NA
ATOM     13  H   UNL     1      -4.255  12.819  18.569  0.00  0.00    +0.000 HD
BRANCH  11  14
ATOM     14  C   UNL     1      -4.050  12.513  20.580  0.00  0.00    +0.000 A 
ATOM     15  C   UNL     1      -5.416  12.517  20.868  0.00  0.00    +0.000 A 
ATOM     16  C   UNL     1      -5.820  12.690  22.185  0.00  0.00    +0.000 A 
ATOM     17  N   UNL     1      -4.971  12.845  23.221  0.00  0.00    +0.000 NA
ATOM     18  C   UNL     1      -3.659  12.849  22.916  0.00  0.00    +0.000 A 
ATOM     19  F   UNL     1      -2.787  12.996  23.926  0.00  0.00    +0.000 F 
ATOM     20  C   UNL     1      -3.160  12.704  21.636  0.00  0.00    +0.000 A 
ENDBRANCH  11  14
BRANCH   9  21
ATOM     21  C   UNL     1      -3.599  11.226  16.407  0.00  0.00    +0.000 C 
ATOM     22  N   UNL     1      -3.196  10.866  15.150  0.00  0.00    +0.000 N 
ATOM     23  O   UNL     1      -4.747  11.595  16.623  0.00  0.00    +0.000 OA
ATOM     24  H   UNL     1      -2.355  10.331  14.998  0.00  0.00    +0.000 HD
ATOM     25  H   UNL     1      -3.905  10.851  14.428  0.00  0.00    +0.000 HD
ENDBRANCH   9  21
ENDBRANCH   1   7
BRANCH   4  26
ATOM     26  N   UNL     1       1.687   6.461  18.655  0.00  0.00    +0.000 N 
ATOM     27  H   UNL     1       0.681   6.408  18.774  0.00  0.00    +0.000 HD
BRANCH  26  28
ATOM     28  C   UNL     1       2.283   5.221  18.461  0.00  0.00    +0.000 A 
ATOM     29  C   UNL     1       3.427   5.020  17.676  0.00  0.00    +0.000 A 
ATOM     30  C   UNL     1       3.927   3.736  17.434  0.00  0.00    +0.000 A 
ATOM     31  C   UNL     1       3.272   2.635  17.962  0.00  0.00    +0.000 A 
ATOM     32  F   UNL     1       3.741   1.405  17.716  0.00  0.00    +0.000 F 
ATOM     33  C   UNL     1       2.129   2.809  18.726  0.00  0.00    +0.000 A 
ATOM     34  F   UNL     1       1.481   1.749  19.228  0.00  0.00    +0.000 F 
ATOM     35  C   UNL     1       1.631   4.088  18.969  0.00  0.00    +0.000 A 
ENDBRANCH  26  28
ENDBRANCH   4  26
BRANCH   1  36
ATOM     36  C   UNL     1       1.301  11.125  19.758  0.00  0.00    +0.000 C 
BRANCH  36  38
ATOM     37  N   UNL     1       2.094  13.025  17.888  0.00  0.00    +0.000 NA
ATOM     38  C   UNL     1       1.735  12.163  18.735  0.00  0.00    +0.000 C 
ENDBRANCH  36  38
ENDBRANCH   1  36
TORSDOF 7
ENDMDL
MODEL 2
REMARK VINA RESULT:      -8.1      0.766      1.109
REMARK  Name = 
REMARK  7 active torsions:
REMARK  status: ('A' for Active; 'I' for Inactive)
REMARK    1  A    between atoms: C_2  and  C_3
REMARK    2  A    between atoms: C_3  and  C_4
REMARK    3  A    between atoms: C_4  and  N_5
REMARK    4  A    between atoms: C_7  and  C_8
REMARK    5  A    between atoms: N_12  and  C_13
REMARK    6  A    between atoms: C_23  and  N_24
REMARK    7  A    between atoms: N_24  and  C_25
REMARK                            x       y       z     vdW  Elec       q    Type
REMARK                         _______ _______ _______ _____ _____    ______ ____
ROOT
ATOM      1  C   UNL     1       0.514   9.989  19.002  0.00  0.00    +0.000 C 
ATOM      2  C   UNL     1       1.326   9.440  17.794  0.00  0.00    +0.000 C 
ATOM      3  C   UNL     1       2.612   8.720  18.193  0.00  0.00    +0.000 C 
ATOM      4  C   UNL     1       2.375   7.597  19.211  0.00  0.00    +0.000 C 
ATOM      5  C   UNL     1       1.537   8.078  20.401  0.00  0.00    +0.000 C 
ATOM      6  C   UNL     1       0.259   8.814  19.987  0.00  0.00    +0.000 C 
ENDROOT
BRANCH   1   7
ATOM      7  N   UNL     1      -0.800  10.513  18.560  0.00  0.00    +0.000 N 
ATOM      8  C   UNL     1      -1.436  10.353  17.362  0.00  0.00    +0.000 A 
ATOM      9  C   UNL     1      -2.615  11.075  17.434  0.00  0.00    +0.000 A 
ATOM     10  C   UNL     1      -2.602  11.639  18.738  0.00  0.00    +0.000 A 
ATOM     11  N   UNL     1      -3.583  12.445  19.219  0.00  0.00    +0.000 N 
ATOM     12  N   UNL     1      -1.512  11.262  19.418  0.00  0.00    +0.000 NA
ATOM     13  H   UNL     1      -4.234  12.854  18.547  0.00  0.00    +0.000 HD
BRANCH  11  14
ATOM     14  C   UNL     1      -3.997  12.590  20.560  0.00  0.00    +0.000 A 
ATOM     15  C   UNL     1      -3.047  12.698  21.576  0.00  0.00    +0.000 A 
ATOM     16  C   UNL     1      -3.482  12.779  22.892  0.00  0.00    +0.000 A 
ATOM     17  N   UNL     1      -4.779  12.772  23.260  0.00  0.00    +0.000 NA
ATOM     18  C   UNL     1      -5.676  12.655  22.263  0.00  0.00    +0.000 A 
ATOM     19  F   UNL     1      -6.976  12.651  22.596  0.00  0.00    +0.000 F 
ATOM     20  C   UNL     1      -5.342  12.549  20.927  0.00  0.00    +0.000 A 
ENDBRANCH  11  14
BRANCH   9  21
ATOM     21  C   UNL     1      -3.629  11.208  16.410  0.00  0.00    +0.000 C 
ATOM     22  N   UNL     1      -3.266  10.779  15.163  0.00  0.00    +0.000 N 
ATOM     23  O   UNL     1      -4.761  11.625  16.632  0.00  0.00    +0.000 OA
ATOM     24  H   UNL     1      -2.446  10.210  15.018  0.00  0.00    +0.000 HD
ATOM     25  H   UNL     1      -3.990  10.755  14.457  0.00  0.00    +0.000 HD
ENDBRANCH   9  21
ENDBRANCH   1   7
BRANCH   4  26
ATOM     26  N   UNL     1       1.719   6.487  18.528  0.00  0.00    +0.000 N 
ATOM     27  H   UNL     1       0.706   6.463  18.585  0.00  0.00    +0.000 HD
BRANCH  26  28
ATOM     28  C   UNL     1       2.289   5.228  18.384  0.00  0.00    +0.000 A 
ATOM     29  C   UNL     1       3.526   4.998  17.764  0.00  0.00    +0.000 A 
ATOM     30  C   UNL     1       4.006   3.701  17.558  0.00  0.00    +0.000 A 
ATOM     31  C   UNL     1       3.241   2.615  17.954  0.00  0.00    +0.000 A 
ATOM     32  F   UNL     1       3.695   1.373  17.741  0.00  0.00    +0.000 F 
ATOM     33  C   UNL     1       2.008   2.819  18.553  0.00  0.00    +0.000 A 
ATOM     34  F   UNL     1       1.256   1.775  18.926  0.00  0.00    +0.000 F 
ATOM     35  C   UNL     1       1.529   4.111  18.760  0.00  0.00    +0.000 A 
ENDBRANCH  26  28
ENDBRANCH   4  26
BRANCH   1  36
ATOM     36  C   UNL     1       1.298  11.119  19.743  0.00  0.00    +0.000 C 
BRANCH  36  38
ATOM     37  N   UNL     1       2.132  13.038  17.911  0.00  0.00    +0.000 NA
ATOM     38  C   UNL     1       1.754  12.168  18.741  0.00  0.00    +0.000 C 
ENDBRANCH  36  38
ENDBRANCH   1  36
TORSDOF 7
ENDMDL
MODEL 3
REMARK VINA RESULT:      -8.1      3.771      9.570
REMARK  Name = 
REMARK  7 active torsions:
REMARK  status: ('A' for Active; 'I' for Inactive)
REMARK    1  A    between atoms: C_2  and  C_3
REMARK    2  A    between atoms: C_3  and  C_4
REMARK    3  A    between atoms: C_4  and  N_5
REMARK    4  A    between atoms: C_7  and  C_8
REMARK    5  A    between atoms: N_12  and  C_13
REMARK    6  A    between atoms: C_23  and  N_24
REMARK    7  A    between atoms: N_24  and  C_25
REMARK                            x       y       z     vdW  Elec       q    Type
REMARK                         _______ _______ _______ _____ _____    ______ ____
ROOT
ATOM      1  C   UNL     1       1.342   8.710  20.335  0.00  0.00    +0.000 C 
ATOM      2  C   UNL     1      -0.204   8.867  20.420  0.00  0.00    +0.000 C 
ATOM      3  C   UNL     1      -0.687  10.305  20.247  0.00  0.00    +0.000 C 
ATOM      4  C   UNL     1      -0.169  10.956  18.958  0.00  0.00    +0.000 C 
ATOM      5  C   UNL     1       1.346  10.786  18.805  0.00  0.00    +0.000 C 
ATOM      6  C   UNL     1       1.819   9.342  18.999  0.00  0.00    +0.000 C 
ENDROOT
BRANCH   1   7
ATOM      7  N   UNL     1       1.726   7.278  20.332  0.00  0.00    +0.000 N 
ATOM      8  C   UNL     1       1.117   6.218  20.940  0.00  0.00    +0.000 A 
ATOM      9  C   UNL     1       1.890   5.102  20.668  0.00  0.00    +0.000 A 
ATOM     10  C   UNL     1       2.957   5.599  19.872  0.00  0.00    +0.000 A 
ATOM     11  N   UNL     1       3.965   4.825  19.398  0.00  0.00    +0.000 N 
ATOM     12  N   UNL     1       2.824   6.912  19.651  0.00  0.00    +0.000 NA
ATOM     13  H   UNL     1       4.096   3.903  19.818  0.00  0.00    +0.000 HD
BRANCH  11  14
ATOM     14  C   UNL     1       4.706   5.008  18.210  0.00  0.00    +0.000 A 
ATOM     15  C   UNL     1       4.367   4.295  17.059  0.00  0.00    +0.000 A 
ATOM     16  C   UNL     1       5.149   4.449  15.923  0.00  0.00    +0.000 A 
ATOM     17  N   UNL     1       6.223   5.261  15.851  0.00  0.00    +0.000 NA
ATOM     18  C   UNL     1       6.537   5.930  16.978  0.00  0.00    +0.000 A 
ATOM     19  F   UNL     1       7.598   6.751  16.937  0.00  0.00    +0.000 F 
ATOM     20  C   UNL     1       5.833   5.828  18.161  0.00  0.00    +0.000 A 
ENDBRANCH  11  14
BRANCH   9  21
ATOM     21  C   UNL     1       1.649   3.740  21.094  0.00  0.00    +0.000 C 
ATOM     22  N   UNL     1       0.595   3.111  20.489  0.00  0.00    +0.000 N 
ATOM     23  O   UNL     1       2.360   3.151  21.901  0.00  0.00    +0.000 OA
ATOM     24  H   UNL     1       0.165   3.484  19.656  0.00  0.00    +0.000 HD
ATOM     25  H   UNL     1       0.476   2.125  20.683  0.00  0.00    +0.000 HD
ENDBRANCH   9  21
ENDBRANCH   1   7
BRANCH   4  26
ATOM     26  N   UNL     1      -0.876  10.363  17.827  0.00  0.00    +0.000 N 
ATOM     27  H   UNL     1      -0.303  10.094  17.034  0.00  0.00    +0.000 HD
BRANCH  26  28
ATOM     28  C   UNL     1      -2.179  10.695  17.474  0.00  0.00    +0.000 A 
ATOM     29  C   UNL     1      -2.688  10.575  16.173  0.00  0.00    +0.000 A 
ATOM     30  C   UNL     1      -3.976  11.017  15.852  0.00  0.00    +0.000 A 
ATOM     31  C   UNL     1      -4.762  11.605  16.831  0.00  0.00    +0.000 A 
ATOM     32  F   UNL     1      -5.989  12.043  16.518  0.00  0.00    +0.000 F 
ATOM     33  C   UNL     1      -4.272  11.749  18.119  0.00  0.00    +0.000 A 
ATOM     34  F   UNL     1      -5.020  12.329  19.067  0.00  0.00    +0.000 F 
ATOM     35  C   UNL     1      -2.990  11.308  18.440  0.00  0.00    +0.000 A 
ENDBRANCH  26  28
ENDBRANCH   4  26
BRANCH   1  36
ATOM     36  C   UNL     1       2.049   9.431  21.526  0.00  0.00    +0.000 C 
BRANCH  36  38
ATOM     37  N   UNL     1       0.328   9.550  23.707  0.00  0.00    +0.000 NA
ATOM     38  C   UNL     1       1.108   9.496  22.719  0.00  0.00    +0.000 C 
ENDBRANCH  36  38
ENDBRANCH   1  36
TORSDOF 7
ENDMDL
MODEL 4
REMARK VINA RESULT:      -8.1      1.003      1.115
REMARK  Name = 
REMARK  7 active torsions:
REMARK  status: ('A' for Active; 'I' for Inactive)
REMARK    1  A    between atoms: C_2  and  C_3
REMARK    2  A    between atoms: C_3  and  C_4
REMARK    3  A    between atoms: C_4  and  N_5
REMARK    4  A    between atoms: C_7  and  C_8
REMARK    5  A    between atoms: N_12  and  C_13
REMARK    6  A    between atoms: C_23  and  N_24
REMARK    7  A    between atoms: N_24  and  C_25
REMARK                            x       y       z     vdW  Elec       q    Type
REMARK                         _______ _______ _______ _____ _____    ______ ____
ROOT
ATOM      1  C   UNL     1       0.537   9.925  18.909  0.00  0.00    +0.000 C 
ATOM      2  C   UNL     1       1.186   8.942  17.892  0.00  0.00    +0.000 C 
ATOM      3  C   UNL     1       2.460   8.277  18.406  0.00  0.00    +0.000 C 
ATOM      4  C   UNL     1       2.262   7.571  19.753  0.00  0.00    +0.000 C 
ATOM      5  C   UNL     1       1.581   8.486  20.778  0.00  0.00    +0.000 C 
ATOM      6  C   UNL     1       0.315   9.161  20.244  0.00  0.00    +0.000 C 
ENDROOT
BRANCH   1   7
ATOM      7  N   UNL     1      -0.781  10.395  18.421  0.00  0.00    +0.000 N 
ATOM      8  C   UNL     1      -1.379  10.187  17.211  0.00  0.00    +0.000 A 
ATOM      9  C   UNL     1      -2.583  10.870  17.236  0.00  0.00    +0.000 A 
ATOM     10  C   UNL     1      -2.623  11.463  18.526  0.00  0.00    +0.000 A 
ATOM     11  N   UNL     1      -3.642  12.246  18.963  0.00  0.00    +0.000 N 
ATOM     12  N   UNL     1      -1.540  11.138  19.242  0.00  0.00    +0.000 NA
ATOM     13  H   UNL     1      -4.289  12.618  18.265  0.00  0.00    +0.000 HD
BRANCH  11  14
ATOM     14  C   UNL     1      -4.096  12.407  20.289  0.00  0.00    +0.000 A 
ATOM     15  C   UNL     1      -5.465  12.402  20.564  0.00  0.00    +0.000 A 
ATOM     16  C   UNL     1      -5.885  12.624  21.868  0.00  0.00    +0.000 A 
ATOM     17  N   UNL     1      -5.049  12.835  22.905  0.00  0.00    +0.000 NA
ATOM     18  C   UNL     1      -3.734  12.846  22.613  0.00  0.00    +0.000 A 
ATOM     19  F   UNL     1      -2.875  13.048  23.624  0.00  0.00    +0.000 F 
ATOM     20  C   UNL     1      -3.220  12.656  21.345  0.00  0.00    +0.000 A 
ENDBRANCH  11  14
BRANCH   9  21
ATOM     21  C   UNL     1      -3.573  10.946  16.183  0.00  0.00    +0.000 C 
ATOM     22  N   UNL     1      -3.154  10.529  14.949  0.00  0.00    +0.000 N 
ATOM     23  O   UNL     1      -4.730  11.306  16.371  0.00  0.00    +0.000 OA
ATOM     24  H   UNL     1      -2.302  10.002  14.831  0.00  0.00    +0.000 HD
ATOM     25  H   UNL     1      -3.856  10.464  14.224  0.00  0.00    +0.000 HD
ENDBRANCH   9  21
ENDBRANCH   1   7
BRANCH   4  26
ATOM     26  N   UNL     1       1.474   6.364  19.529  0.00  0.00    +0.000 N 
ATOM     27  H   UNL     1       0.639   6.264  20.098  0.00  0.00    +0.000 HD
BRANCH  26  28
ATOM     28  C   UNL     1       2.023   5.147  19.143  0.00  0.00    +0.000 A 
ATOM     29  C   UNL     1       1.877   4.598  17.862  0.00  0.00    +0.000 A 
ATOM     30  C   UNL     1       2.367   3.323  17.557  0.00  0.00    +0.000 A 
ATOM     31  C   UNL     1       2.993   2.575  18.542  0.00  0.00    +0.000 A 
ATOM     32  F   UNL     1       3.446   1.349  18.253  0.00  0.00    +0.000 F 
ATOM     33  C   UNL     1       3.132   3.092  19.820  0.00  0.00    +0.000 A 
ATOM     34  F   UNL     1       3.722   2.370  20.782  0.00  0.00    +0.000 F 
ATOM     35  C   UNL     1       2.646   4.362  20.125  0.00  0.00    +0.000 A 
ENDBRANCH  26  28
ENDBRANCH   4  26
BRANCH   1  36
ATOM     36  C   UNL     1       1.460  11.158  19.171  0.00  0.00    +0.000 C 
BRANCH  36  38
ATOM     37  N   UNL     1       0.741  12.375  21.566  0.00  0.00    +0.000 NA
ATOM     38  C   UNL     1       1.067  11.823  20.481  0.00  0.00    +0.000 C 
ENDBRANCH  36  38
ENDBRANCH   1  36
TORSDOF 7
ENDMDL
MODEL 5
REMARK VINA RESULT:      -8.1      0.791      1.324
REMARK  Name = 
REMARK  7 active torsions:
REMARK  status: ('A' for Active; 'I' for Inactive)
REMARK    1  A    between atoms: C_2  and  C_3
REMARK    2  A    between atoms: C_3  and  C_4
REMARK    3  A    between atoms: C_4  and  N_5
REMARK    4  A    between atoms: C_7  and  C_8
REMARK    5  A    between atoms: N_12  and  C_13
REMARK    6  A    between atoms: C_23  and  N_24
REMARK    7  A    between atoms: N_24  and  C_25
REMARK                            x       y       z     vdW  Elec       q    Type
REMARK                         _______ _______ _______ _____ _____    ______ ____
ROOT
ATOM      1  C   UNL     1       0.709   9.894  19.048  0.00  0.00    +0.000 C 
ATOM      2  C   UNL     1       1.360   9.347  17.745  0.00  0.00    +0.000 C 
ATOM      3  C   UNL     1       2.643   8.555  17.984  0.00  0.00    +0.000 C 
ATOM      4  C   UNL     1       2.459   7.412  18.991  0.00  0.00    +0.000 C 
ATOM      5  C   UNL     1       1.776   7.893  20.276  0.00  0.00    +0.000 C 
ATOM      6  C   UNL     1       0.501   8.701  20.022  0.00  0.00    +0.000 C 
ENDROOT
BRANCH   1   7
ATOM      7  N   UNL     1      -0.617  10.494  18.763  0.00  0.00    +0.000 N 
ATOM      8  C   UNL     1      -1.421  10.334  17.671  0.00  0.00    +0.000 A 
ATOM      9  C   UNL     1      -2.529  11.140  17.868  0.00  0.00    +0.000 A 
ATOM     10  C   UNL     1      -2.299  11.751  19.130  0.00  0.00    +0.000 A 
ATOM     11  N   UNL     1      -3.149  12.642  19.700  0.00  0.00    +0.000 N 
ATOM     12  N   UNL     1      -1.153  11.323  19.673  0.00  0.00    +0.000 NA
ATOM     13  H   UNL     1      -3.859  13.071  19.105  0.00  0.00    +0.000 HD
BRANCH  11  14
ATOM     14  C   UNL     1      -3.363  12.868  21.077  0.00  0.00    +0.000 A 
ATOM     15  C   UNL     1      -4.646  12.747  21.613  0.00  0.00    +0.000 A 
ATOM     16  C   UNL     1      -4.838  13.034  22.958  0.00  0.00    +0.000 A 
ATOM     17  N   UNL     1      -3.853  13.415  23.797  0.00  0.00    +0.000 NA
ATOM     18  C   UNL     1      -2.626  13.535  23.253  0.00  0.00    +0.000 A 
ATOM     19  F   UNL     1      -1.623  13.907  24.063  0.00  0.00    +0.000 F 
ATOM     20  C   UNL     1      -2.340  13.292  21.925  0.00  0.00    +0.000 A 
ENDBRANCH  11  14
BRANCH   9  21
ATOM     21  C   UNL     1      -3.665  11.307  16.986  0.00  0.00    +0.000 C 
ATOM     22  N   UNL     1      -3.366  11.391  15.653  0.00  0.00    +0.000 N 
ATOM     23  O   UNL     1      -4.826  11.321  17.377  0.00  0.00    +0.000 OA
ATOM     24  H   UNL     1      -2.458  11.132  15.297  0.00  0.00    +0.000 HD
ATOM     25  H   UNL     1      -4.145  11.393  15.008  0.00  0.00    +0.000 HD
ENDBRANCH   9  21
ENDBRANCH   1   7
BRANCH   4  26
ATOM     26  N   UNL     1       1.680   6.356  18.352  0.00  0.00    +0.000 N 
ATOM     27  H   UNL     1       0.673   6.414  18.466  0.00  0.00    +0.000 HD
BRANCH  26  28
ATOM     28  C   UNL     1       2.139   5.055  18.184  0.00  0.00    +0.000 A 
ATOM     29  C   UNL     1       1.514   3.931  18.739  0.00  0.00    +0.000 A 
ATOM     30  C   UNL     1       2.074   2.654  18.621  0.00  0.00    +0.000 A 
ATOM     31  C   UNL     1       3.282   2.494  17.959  0.00  0.00    +0.000 A 
ATOM     32  F   UNL     1       3.826   1.274  17.862  0.00  0.00    +0.000 F 
ATOM     33  C   UNL     1       3.926   3.595  17.418  0.00  0.00    +0.000 A 
ATOM     34  F   UNL     1       5.100   3.452  16.790  0.00  0.00    +0.000 F 
ATOM     35  C   UNL     1       3.368   4.867  17.534  0.00  0.00    +0.000 A 
ENDBRANCH  26  28
ENDBRANCH   4  26
BRANCH   1  36
ATOM     36  C   UNL     1       1.622  10.961  19.731  0.00  0.00    +0.000 C 
BRANCH  36  38
ATOM     37  N   UNL     1       2.164  13.016  17.937  0.00  0.00    +0.000 NA
ATOM     38  C   UNL     1       1.919  12.085  18.750  0.00  0.00    +0.000 C 
ENDBRANCH  36  38
ENDBRANCH   1  36
TORSDOF 7
ENDMDL
MODEL 6
REMARK VINA RESULT:      -8.0      1.163      1.266
REMARK  Name = 
REMARK  7 active torsions:
REMARK  status: ('A' for Active; 'I' for Inactive)
REMARK    1  A    between atoms: C_2  and  C_3
REMARK    2  A    between atoms: C_3  and  C_4
REMARK    3  A    between atoms: C_4  and  N_5
REMARK    4  A    between atoms: C_7  and  C_8
REMARK    5  A    between atoms: N_12  and  C_13
REMARK    6  A    between atoms: C_23  and  N_24
REMARK    7  A    between atoms: N_24  and  C_25
REMARK                            x       y       z     vdW  Elec       q    Type
REMARK                         _______ _______ _______ _____ _____    ______ ____
ROOT
ATOM      1  C   UNL     1       0.198  10.078  19.611  0.00  0.00    +0.000 C 
ATOM      2  C   UNL     1       1.071   9.162  18.706  0.00  0.00    +0.000 C 
ATOM      3  C   UNL     1       2.252   8.525  19.433  0.00  0.00    +0.000 C 
ATOM      4  C   UNL     1       1.832   7.758  20.694  0.00  0.00    +0.000 C 
ATOM      5  C   UNL     1       0.929   8.605  21.598  0.00  0.00    +0.000 C 
ATOM      6  C   UNL     1      -0.241   9.254  20.853  0.00  0.00    +0.000 C 
ENDROOT
BRANCH   1   7
ATOM      7  N   UNL     1      -1.023  10.518  18.895  0.00  0.00    +0.000 N 
ATOM      8  C   UNL     1      -1.381  10.316  17.592  0.00  0.00    +0.000 A 
ATOM      9  C   UNL     1      -2.591  10.962  17.404  0.00  0.00    +0.000 A 
ATOM     10  C   UNL     1      -2.888  11.528  18.673  0.00  0.00    +0.000 A 
ATOM     11  N   UNL     1      -3.995  12.272  18.925  0.00  0.00    +0.000 N 
ATOM     12  N   UNL     1      -1.945  11.222  19.572  0.00  0.00    +0.000 NA
ATOM     13  H   UNL     1      -4.514  12.638  18.125  0.00  0.00    +0.000 HD
BRANCH  11  14
ATOM     14  C   UNL     1      -4.690  12.393  20.147  0.00  0.00    +0.000 A 
ATOM     15  C   UNL     1      -6.026  11.998  20.233  0.00  0.00    +0.000 A 
ATOM     16  C   UNL     1      -6.703  12.186  21.430  0.00  0.00    +0.000 A 
ATOM     17  N   UNL     1      -6.147  12.720  22.536  0.00  0.00    +0.000 NA
ATOM     18  C   UNL     1      -4.860  13.104  22.425  0.00  0.00    +0.000 A 
ATOM     19  F   UNL     1      -4.276  13.635  23.510  0.00  0.00    +0.000 F 
ATOM     20  C   UNL     1      -4.110  12.978  21.273  0.00  0.00    +0.000 A 
ENDBRANCH  11  14
BRANCH   9  21
ATOM     21  C   UNL     1      -3.373  11.029  16.188  0.00  0.00    +0.000 C 
ATOM     22  N   UNL     1      -2.779  10.497  15.076  0.00  0.00    +0.000 N 
ATOM     23  O   UNL     1      -4.512  11.479  16.144  0.00  0.00    +0.000 OA
ATOM     24  H   UNL     1      -1.965   9.905  15.145  0.00  0.00    +0.000 HD
ATOM     25  H   UNL     1      -3.347  10.428  14.242  0.00  0.00    +0.000 HD
ENDBRANCH   9  21
ENDBRANCH   1   7
BRANCH   4  26
ATOM     26  N   UNL     1       1.155   6.532  20.284  0.00  0.00    +0.000 N 
ATOM     27  H   UNL     1       0.231   6.381  20.676  0.00  0.00    +0.000 HD
BRANCH  26  28
ATOM     28  C   UNL     1       1.821   5.351  19.977  0.00  0.00    +0.000 A 
ATOM     29  C   UNL     1       2.107   4.936  18.669  0.00  0.00    +0.000 A 
ATOM     30  C   UNL     1       2.691   3.691  18.412  0.00  0.00    +0.000 A 
ATOM     31  C   UNL     1       2.977   2.838  19.467  0.00  0.00    +0.000 A 
ATOM     32  F   UNL     1       3.520   1.639  19.218  0.00  0.00    +0.000 F 
ATOM     33  C   UNL     1       2.686   3.221  20.766  0.00  0.00    +0.000 A 
ATOM     34  F   UNL     1       2.946   2.396  21.789  0.00  0.00    +0.000 F 
ATOM     35  C   UNL     1       2.105   4.462  21.023  0.00  0.00    +0.000 A 
ENDBRANCH  26  28
ENDBRANCH   4  26
BRANCH   1  36
ATOM     36  C   UNL     1       0.998  11.333  20.084  0.00  0.00    +0.000 C 
BRANCH  36  38
ATOM     37  N   UNL     1       2.273  12.506  17.910  0.00  0.00    +0.000 NA
ATOM     38  C   UNL     1       1.696  11.975  18.896  0.00  0.00    +0.000 C 
ENDBRANCH  36  38
ENDBRANCH   1  36
TORSDOF 7
ENDMDL
MODEL 7
REMARK VINA RESULT:      -8.0      3.553      9.595
REMARK  Name = 
REMARK  7 active torsions:
REMARK  status: ('A' for Active; 'I' for Inactive)
REMARK    1  A    between atoms: C_2  and  C_3
REMARK    2  A    between atoms: C_3  and  C_4
REMARK    3  A    between atoms: C_4  and  N_5
REMARK    4  A    between atoms: C_7  and  C_8
REMARK    5  A    between atoms: N_12  and  C_13
REMARK    6  A    between atoms: C_23  and  N_24
REMARK    7  A    between atoms: N_24  and  C_25
REMARK                            x       y       z     vdW  Elec       q    Type
REMARK                         _______ _______ _______ _____ _____    ______ ____
ROOT
ATOM      1  C   UNL     1       1.341   8.681  20.248  0.00  0.00    +0.000 C 
ATOM      2  C   UNL     1      -0.200   8.878  20.327  0.00  0.00    +0.000 C 
ATOM      3  C   UNL     1      -0.647  10.324  20.127  0.00  0.00    +0.000 C 
ATOM      4  C   UNL     1      -0.113  10.937  18.826  0.00  0.00    +0.000 C 
ATOM      5  C   UNL     1       1.398  10.728  18.678  0.00  0.00    +0.000 C 
ATOM      6  C   UNL     1       1.835   9.276  18.900  0.00  0.00    +0.000 C 
ENDROOT
BRANCH   1   7
ATOM      7  N   UNL     1       1.691   7.240  20.271  0.00  0.00    +0.000 N 
ATOM      8  C   UNL     1       0.999   6.192  20.807  0.00  0.00    +0.000 A 
ATOM      9  C   UNL     1       1.768   5.059  20.605  0.00  0.00    +0.000 A 
ATOM     10  C   UNL     1       2.921   5.535  19.924  0.00  0.00    +0.000 A 
ATOM     11  N   UNL     1       3.953   4.738  19.547  0.00  0.00    +0.000 N 
ATOM     12  N   UNL     1       2.842   6.852  19.700  0.00  0.00    +0.000 NA
ATOM     13  H   UNL     1       4.020   3.812  19.971  0.00  0.00    +0.000 HD
BRANCH  11  14
ATOM     14  C   UNL     1       4.813   4.910  18.440  0.00  0.00    +0.000 A 
ATOM     15  C   UNL     1       6.073   5.482  18.617  0.00  0.00    +0.000 A 
ATOM     16  C   UNL     1       6.873   5.695  17.503  0.00  0.00    +0.000 A 
ATOM     17  N   UNL     1       6.515   5.371  16.244  0.00  0.00    +0.000 NA
ATOM     18  C   UNL     1       5.290   4.830  16.097  0.00  0.00    +0.000 A 
ATOM     19  F   UNL     1       4.906   4.491  14.857  0.00  0.00    +0.000 F 
ATOM     20  C   UNL     1       4.415   4.599  17.140  0.00  0.00    +0.000 A 
ENDBRANCH  11  14
BRANCH   9  21
ATOM     21  C   UNL     1       1.455   3.701  20.995  0.00  0.00    +0.000 C 
ATOM     22  N   UNL     1       0.579   3.041  20.176  0.00  0.00    +0.000 N 
ATOM     23  O   UNL     1       1.966   3.141  21.958  0.00  0.00    +0.000 OA
ATOM     24  H   UNL     1       0.350   3.390  19.258  0.00  0.00    +0.000 HD
ATOM     25  H   UNL     1       0.432   2.057  20.360  0.00  0.00    +0.000 HD
ENDBRANCH   9  21
ENDBRANCH   1   7
BRANCH   4  26
ATOM     26  N   UNL     1      -0.833  10.341  17.706  0.00  0.00    +0.000 N 
ATOM     27  H   UNL     1      -0.272  10.087  16.899  0.00  0.00    +0.000 HD
BRANCH  26  28
ATOM     28  C   UNL     1      -2.148  10.653  17.382  0.00  0.00    +0.000 A 
ATOM     29  C   UNL     1      -2.682  10.534  16.092  0.00  0.00    +0.000 A 
ATOM     30  C   UNL     1      -3.984  10.957  15.801  0.00  0.00    +0.000 A 
ATOM     31  C   UNL     1      -4.760  11.523  16.801  0.00  0.00    +0.000 A 
ATOM     32  F   UNL     1      -6.000  11.942  16.517  0.00  0.00    +0.000 F 
ATOM     33  C   UNL     1      -4.245  11.666  18.079  0.00  0.00    +0.000 A 
ATOM     34  F   UNL     1      -4.983  12.226  19.047  0.00  0.00    +0.000 F 
ATOM     35  C   UNL     1      -2.949  11.245  18.370  0.00  0.00    +0.000 A 
ENDBRANCH  26  28
ENDBRANCH   4  26
BRANCH   1  36
ATOM     36  C   UNL     1       2.065   9.407  21.426  0.00  0.00    +0.000 C 
BRANCH  36  38
ATOM     37  N   UNL     1       0.368   9.552  23.623  0.00  0.00    +0.000 NA
ATOM     38  C   UNL     1       1.137   9.486  22.627  0.00  0.00    +0.000 C 
ENDBRANCH  36  38
ENDBRANCH   1  36
TORSDOF 7
ENDMDL
MODEL 8
REMARK VINA RESULT:      -8.0      3.893      9.497
REMARK  Name = 
REMARK  7 active torsions:
REMARK  status: ('A' for Active; 'I' for Inactive)
REMARK    1  A    between atoms: C_2  and  C_3
REMARK    2  A    between atoms: C_3  and  C_4
REMARK    3  A    between atoms: C_4  and  N_5
REMARK    4  A    between atoms: C_7  and  C_8
REMARK    5  A    between atoms: N_12  and  C_13
REMARK    6  A    between atoms: C_23  and  N_24
REMARK    7  A    between atoms: N_24  and  C_25
REMARK                            x       y       z     vdW  Elec       q    Type
REMARK                         _______ _______ _______ _____ _____    ______ ____
ROOT
ATOM      1  C   UNL     1       1.350   8.726  20.377  0.00  0.00    +0.000 C 
ATOM      2  C   UNL     1      -0.191   8.926  20.449  0.00  0.00    +0.000 C 
ATOM      3  C   UNL     1      -0.630  10.381  20.309  0.00  0.00    +0.000 C 
ATOM      4  C   UNL     1      -0.079  11.050  19.043  0.00  0.00    +0.000 C 
ATOM      5  C   UNL     1       1.433  10.841  18.902  0.00  0.00    +0.000 C 
ATOM      6  C   UNL     1       1.861   9.379  19.063  0.00  0.00    +0.000 C 
ENDROOT
BRANCH   1   7
ATOM      7  N   UNL     1       1.693   7.285  20.340  0.00  0.00    +0.000 N 
ATOM      8  C   UNL     1       1.050   6.228  20.918  0.00  0.00    +0.000 A 
ATOM      9  C   UNL     1       1.792   5.097  20.623  0.00  0.00    +0.000 A 
ATOM     10  C   UNL     1       2.878   5.583  19.847  0.00  0.00    +0.000 A 
ATOM     11  N   UNL     1       3.867   4.791  19.359  0.00  0.00    +0.000 N 
ATOM     12  N   UNL     1       2.785   6.904  19.657  0.00  0.00    +0.000 NA
ATOM     13  H   UNL     1       3.969   3.856  19.757  0.00  0.00    +0.000 HD
BRANCH  11  14
ATOM     14  C   UNL     1       4.621   4.983  18.181  0.00  0.00    +0.000 A 
ATOM     15  C   UNL     1       4.274   4.304  17.013  0.00  0.00    +0.000 A 
ATOM     16  C   UNL     1       5.068   4.463  15.886  0.00  0.00    +0.000 A 
ATOM     17  N   UNL     1       6.162   5.251  15.838  0.00  0.00    +0.000 NA
ATOM     18  C   UNL     1       6.483   5.887  16.982  0.00  0.00    +0.000 A 
ATOM     19  F   UNL     1       7.563   6.683  16.967  0.00  0.00    +0.000 F 
ATOM     20  C   UNL     1       5.768   5.776  18.158  0.00  0.00    +0.000 A 
ENDBRANCH  11  14
BRANCH   9  21
ATOM     21  C   UNL     1       1.510   3.732  21.014  0.00  0.00    +0.000 C 
ATOM     22  N   UNL     1       0.641   3.055  20.201  0.00  0.00    +0.000 N 
ATOM     23  O   UNL     1       2.041   3.182  21.971  0.00  0.00    +0.000 OA
ATOM     24  H   UNL     1       0.396   3.401  19.285  0.00  0.00    +0.000 HD
ATOM     25  H   UNL     1       0.515   2.068  20.385  0.00  0.00    +0.000 HD
ENDBRANCH   9  21
ENDBRANCH   1   7
BRANCH   4  26
ATOM     26  N   UNL     1      -0.789  10.508  17.889  0.00  0.00    +0.000 N 
ATOM     27  H   UNL     1      -0.214  10.241  17.096  0.00  0.00    +0.000 HD
BRANCH  26  28
ATOM     28  C   UNL     1      -2.076  10.889  17.528  0.00  0.00    +0.000 A 
ATOM     29  C   UNL     1      -2.958  11.564  18.384  0.00  0.00    +0.000 A 
ATOM     30  C   UNL     1      -4.276  11.835  18.004  0.00  0.00    +0.000 A 
ATOM     31  C   UNL     1      -4.733  11.413  16.765  0.00  0.00    +0.000 A 
ATOM     32  F   UNL     1      -6.001  11.659  16.409  0.00  0.00    +0.000 F 
ATOM     33  C   UNL     1      -3.884  10.729  15.911  0.00  0.00    +0.000 A 
ATOM     34  F   UNL     1      -4.322  10.305  14.717  0.00  0.00    +0.000 F 
ATOM     35  C   UNL     1      -2.570  10.459  16.288  0.00  0.00    +0.000 A 
ENDBRANCH  26  28
ENDBRANCH   4  26
BRANCH   1  36
ATOM     36  C   UNL     1       2.064   9.396  21.595  0.00  0.00    +0.000 C 
BRANCH  36  38
ATOM     37  N   UNL     1       0.305   9.547  23.744  0.00  0.00    +0.000 NA
ATOM     38  C   UNL     1       1.102   9.479  22.770  0.00  0.00    +0.000 C 
ENDBRANCH  36  38
ENDBRANCH   1  36
TORSDOF 7
ENDMDL
MODEL 9
REMARK VINA RESULT:      -7.9      1.456      1.915
REMARK  Name = 
REMARK  7 active torsions:
REMARK  status: ('A' for Active; 'I' for Inactive)
REMARK    1  A    between atoms: C_2  and  C_3
REMARK    2  A    between atoms: C_3  and  C_4
REMARK    3  A    between atoms: C_4  and  N_5
REMARK    4  A    between atoms: C_7  and  C_8
REMARK    5  A    between atoms: N_12  and  C_13
REMARK    6  A    between atoms: C_23  and  N_24
REMARK    7  A    between atoms: N_24  and  C_25
REMARK                            x       y       z     vdW  Elec       q    Type
REMARK                         _______ _______ _______ _____ _____    ______ ____
ROOT
ATOM      1  C   UNL     1       0.231  10.047  19.539  0.00  0.00    +0.000 C 
ATOM      2  C   UNL     1       1.134   9.194  18.603  0.00  0.00    +0.000 C 
ATOM      3  C   UNL     1       2.322   8.551  19.312  0.00  0.00    +0.000 C 
ATOM      4  C   UNL     1       1.908   7.718  20.532  0.00  0.00    +0.000 C 
ATOM      5  C   UNL     1       0.976   8.501  21.465  0.00  0.00    +0.000 C 
ATOM      6  C   UNL     1      -0.201   9.157  20.737  0.00  0.00    +0.000 C 
ENDROOT
BRANCH   1   7
ATOM      7  N   UNL     1      -0.993  10.492  18.830  0.00  0.00    +0.000 N 
ATOM      8  C   UNL     1      -1.382  10.250  17.544  0.00  0.00    +0.000 A 
ATOM      9  C   UNL     1      -2.579  10.920  17.354  0.00  0.00    +0.000 A 
ATOM     10  C   UNL     1      -2.835  11.542  18.606  0.00  0.00    +0.000 A 
ATOM     11  N   UNL     1      -3.917  12.323  18.850  0.00  0.00    +0.000 N 
ATOM     12  N   UNL     1      -1.882  11.245  19.497  0.00  0.00    +0.000 NA
ATOM     13  H   UNL     1      -4.443  12.673  18.047  0.00  0.00    +0.000 HD
BRANCH  11  14
ATOM     14  C   UNL     1      -4.584  12.510  20.080  0.00  0.00    +0.000 A 
ATOM     15  C   UNL     1      -3.897  13.041  21.172  0.00  0.00    +0.000 A 
ATOM     16  C   UNL     1      -4.561  13.157  22.386  0.00  0.00    +0.000 A 
ATOM     17  N   UNL     1      -5.846  12.798  22.582  0.00  0.00    +0.000 NA
ATOM     18  C   UNL     1      -6.484  12.277  21.515  0.00  0.00    +0.000 A 
ATOM     19  F   UNL     1      -7.765  11.914  21.675  0.00  0.00    +0.000 F 
ATOM     20  C   UNL     1      -5.904  12.104  20.274  0.00  0.00    +0.000 A 
ENDBRANCH  11  14
BRANCH   9  21
ATOM     21  C   UNL     1      -3.384  10.962  16.152  0.00  0.00    +0.000 C 
ATOM     22  N   UNL     1      -2.791  10.450  15.029  0.00  0.00    +0.000 N 
ATOM     23  O   UNL     1      -4.538  11.374  16.127  0.00  0.00    +0.000 OA
ATOM     24  H   UNL     1      -1.957   9.886  15.083  0.00  0.00    +0.000 HD
ATOM     25  H   UNL     1      -3.370  10.362  14.205  0.00  0.00    +0.000 HD
ENDBRANCH   9  21
ENDBRANCH   1   7
BRANCH   4  26
ATOM     26  N   UNL     1       1.263   6.497  20.059  0.00  0.00    +0.000 N 
ATOM     27  H   UNL     1       0.267   6.421  20.236  0.00  0.00    +0.000 HD
BRANCH  26  28
ATOM     28  C   UNL     1       1.904   5.265  19.993  0.00  0.00    +0.000 A 
ATOM     29  C   UNL     1       1.879   4.317  21.025  0.00  0.00    +0.000 A 
ATOM     30  C   UNL     1       2.623   3.135  20.945  0.00  0.00    +0.000 A 
ATOM     31  C   UNL     1       3.417   2.898  19.834  0.00  0.00    +0.000 A 
ATOM     32  F   UNL     1       4.142   1.774  19.767  0.00  0.00    +0.000 F 
ATOM     33  C   UNL     1       3.470   3.830  18.810  0.00  0.00    +0.000 A 
ATOM     34  F   UNL     1       4.246   3.616  17.740  0.00  0.00    +0.000 F 
ATOM     35  C   UNL     1       2.728   5.008  18.888  0.00  0.00    +0.000 A 
ENDBRANCH  26  28
ENDBRANCH   4  26
BRANCH   1  36
ATOM     36  C   UNL     1       0.997  11.297  20.078  0.00  0.00    +0.000 C 
BRANCH  36  38
ATOM     37  N   UNL     1       2.191  12.650  17.963  0.00  0.00    +0.000 NA
ATOM     38  C   UNL     1       1.650  12.036  18.921  0.00  0.00    +0.000 C 
ENDBRANCH  36  38
ENDBRANCH   1  36
TORSDOF 7
ENDMDL
