MODEL 1
REMARK VINA RESULT:      -7.7      0.000      0.000
REMARK  Name = 
REMARK  6 active torsions:
REMARK  status: ('A' for Active; 'I' for Inactive)
REMARK    1  A    between atoms: C_2  and  C_3
REMARK    2  A    between atoms: C_6  and  O_7
REMARK    3  A    between atoms: O_7  and  C_8
REMARK    4  A    between atoms: C_16  and  O_17
REMARK    5  A    between atoms: O_17  and  C_18
REMARK    6  A    between atoms: C_18  and  C_19
REMARK                            x       y       z     vdW  Elec       q    Type
REMARK                         _______ _______ _______ _____ _____    ______ ____
ROOT
ATOM      1  C   UNL     1       1.834   8.631  18.609  0.00  0.00    +0.000 A 
ATOM      2  C   UNL     1       2.873   8.434  17.701  0.00  0.00    +0.000 A 
ATOM      3  C   UNL     1       3.662   7.288  17.794  0.00  0.00    +0.000 A 
ATOM      4  C   UNL     1       3.419   6.330  18.788  0.00  0.00    +0.000 A 
ATOM      5  C   UNL     1       2.396   6.542  19.730  0.00  0.00    +0.000 A 
ATOM      6  C   UNL     1       1.602   7.691  19.621  0.00  0.00    +0.000 A 
ENDROOT
BRANCH   1   8
ATOM      7  N   UNL     1       0.357  10.757  18.440  0.00  0.00    +0.000 NA
ATOM      8  C   UNL     1       1.019   9.806  18.521  0.00  0.00    +0.000 C 
ENDBRANCH   1   8
BRANCH   4   9
ATOM      9  O   UNL     1       4.324   5.292  18.778  0.00  0.00    +0.000 OA
BRANCH   9  10
ATOM     10  C   UNL     1       5.188   5.078  17.728  0.00  0.00    +0.000 A 
ATOM     11  C   UNL     1       4.784   4.815  16.416  0.00  0.00    +0.000 A 
ATOM     12  C   UNL     1       5.738   4.528  15.439  0.00  0.00    +0.000 A 
ATOM     13 CL   UNL     1       5.224   4.053  13.867  0.00  0.00    +0.000 Cl
ATOM     14  C   UNL     1       7.099   4.593  15.731  0.00  0.00    +0.000 A 
ATOM     15  C   UNL     1       7.511   4.946  17.015  0.00  0.00    +0.000 A 
ATOM     16  C   UNL     1       6.559   5.183  18.012  0.00  0.00    +0.000 A 
ATOM     17 CL   UNL     1       7.125   5.611  19.588  0.00  0.00    +0.000 Cl
ENDBRANCH   9  10
ENDBRANCH   4   9
BRANCH   5  18
ATOM     18  O   UNL     1       2.276   5.653  20.768  0.00  0.00    +0.000 OA
BRANCH  18  19
ATOM     19  C   UNL     1       1.431   4.510  20.571  0.00  0.00    +0.000 C 
BRANCH  19  20
ATOM     20  C   UNL     1       2.103   3.442  19.745  0.00  0.00    +0.000 A 
ATOM     21  C   UNL     1       3.193   2.731  20.258  0.00  0.00    +0.000 A 
ATOM     22  C   UNL     1       3.820   1.802  19.442  0.00  0.00    +0.000 A 
ATOM     23  N   UNL     1       3.427   1.524  18.181  0.00  0.00    +0.000 NA
ATOM     24  C   UNL     1       2.350   2.193  17.718  0.00  0.00    +0.000 A 
ATOM     25  C   UNL     1       1.659   3.140  18.455  0.00  0.00    +0.000 A 
ENDBRANCH  19  20
ENDBRANCH  18  19
ENDBRANCH   5  18
TORSDOF 6
ENDMDL
MODEL 2
REMARK VINA RESULT:      -7.6      1.417      2.155
REMARK  Name = 
REMARK  6 active torsions:
REMARK  status: ('A' for Active; 'I' for Inactive)
REMARK    1  A    between atoms: C_2  and  C_3
REMARK    2  A    between atoms: C_6  and  O_7
REMARK    3  A    between atoms: O_7  and  C_8
REMARK    4  A    between atoms: C_16  and  O_17
REMARK    5  A    between atoms: O_17  and  C_18
REMARK    6  A    between atoms: C_18  and  C_19
REMARK                            x       y       z     vdW  Elec       q    Type
REMARK                         _______ _______ _______ _____ _____    ______ ____
ROOT
ATOM      1  C   UNL     1       1.360   9.488  19.238  0.00  0.00    +0.000 A 
ATOM      2  C   UNL     1       1.735   9.379  17.900  0.00  0.00    +0.000 A 
ATOM      3  C   UNL     1       2.312   8.196  17.441  0.00  0.00    +0.000 A 
ATOM      4  C   UNL     1       2.514   7.113  18.309  0.00  0.00    +0.000 A 
ATOM      5  C   UNL     1       2.172   7.231  19.667  0.00  0.00    +0.000 A 
ATOM      6  C   UNL     1       1.582   8.421  20.117  0.00  0.00    +0.000 A 
ENDROOT
BRANCH   1   8
ATOM      7  N   UNL     1       0.280  11.684  20.101  0.00  0.00    +0.000 NA
ATOM      8  C   UNL     1       0.767  10.700  19.719  0.00  0.00    +0.000 C 
ENDBRANCH   1   8
BRANCH   4   9
ATOM      9  O   UNL     1       3.148   6.047  17.711  0.00  0.00    +0.000 OA
BRANCH   9  10
ATOM     10  C   UNL     1       4.493   6.059  17.415  0.00  0.00    +0.000 A 
ATOM     11  C   UNL     1       5.369   7.087  17.775  0.00  0.00    +0.000 A 
ATOM     12  C   UNL     1       6.699   7.047  17.354  0.00  0.00    +0.000 A 
ATOM     13 CL   UNL     1       7.728   8.390  17.669  0.00  0.00    +0.000 Cl
ATOM     14  C   UNL     1       7.192   5.946  16.657  0.00  0.00    +0.000 A 
ATOM     15  C   UNL     1       6.346   4.874  16.375  0.00  0.00    +0.000 A 
ATOM     16  C   UNL     1       5.000   4.933  16.748  0.00  0.00    +0.000 A 
ATOM     17 CL   UNL     1       3.993   3.579  16.369  0.00  0.00    +0.000 Cl
ENDBRANCH   9  10
ENDBRANCH   4   9
BRANCH   5  18
ATOM     18  O   UNL     1       2.509   6.205  20.512  0.00  0.00    +0.000 OA
BRANCH  18  19
ATOM     19  C   UNL     1       1.547   5.157  20.705  0.00  0.00    +0.000 C 
BRANCH  19  20
ATOM     20  C   UNL     1       1.976   3.866  20.056  0.00  0.00    +0.000 A 
ATOM     21  C   UNL     1       3.302   3.433  20.147  0.00  0.00    +0.000 A 
ATOM     22  C   UNL     1       3.666   2.272  19.483  0.00  0.00    +0.000 A 
ATOM     23  N   UNL     1       2.809   1.517  18.765  0.00  0.00    +0.000 NA
ATOM     24  C   UNL     1       1.525   1.931  18.720  0.00  0.00    +0.000 A 
ATOM     25  C   UNL     1       1.065   3.076  19.347  0.00  0.00    +0.000 A 
ENDBRANCH  19  20
ENDBRANCH  18  19
ENDBRANCH   5  18
TORSDOF 6
ENDMDL
MODEL 3
REMARK VINA RESULT:      -7.6      3.111      6.653
REMARK  Name = 
REMARK  6 active torsions:
REMARK  status: ('A' for Active; 'I' for Inactive)
REMARK    1  A    between atoms: C_2  and  C_3
REMARK    2  A    between atoms: C_6  and  O_7
REMARK    3  A    between atoms: O_7  and  C_8
REMARK    4  A    between atoms: C_16  and  O_17
REMARK    5  A    between atoms: O_17  and  C_18
REMARK    6  A    between atoms: C_18  and  C_19
REMARK                            x       y       z     vdW  Elec       q    Type
REMARK                         _______ _______ _______ _____ _____    ______ ____
ROOT
ATOM      1  C   UNL     1       1.687   3.871  19.186  0.00  0.00    +0.000 A 
ATOM      2  C   UNL     1       1.357   4.473  20.399  0.00  0.00    +0.000 A 
ATOM      3  C   UNL     1       1.628   5.827  20.593  0.00  0.00    +0.000 A 
ATOM      4  C   UNL     1       2.225   6.589  19.579  0.00  0.00    +0.000 A 
ATOM      5  C   UNL     1       2.594   5.979  18.367  0.00  0.00    +0.000 A 
ATOM      6  C   UNL     1       2.306   4.620  18.178  0.00  0.00    +0.000 A 
ENDROOT
BRANCH   1   8
ATOM      7  N   UNL     1       1.198   1.351  18.807  0.00  0.00    +0.000 NA
ATOM      8  C   UNL     1       1.411   2.480  18.978  0.00  0.00    +0.000 C 
ENDBRANCH   1   8
BRANCH   4   9
ATOM      9  O   UNL     1       2.479   7.890  19.954  0.00  0.00    +0.000 OA
BRANCH   9  10
ATOM     10  C   UNL     1       1.473   8.778  20.264  0.00  0.00    +0.000 A 
ATOM     11  C   UNL     1       0.961   8.969  21.551  0.00  0.00    +0.000 A 
ATOM     12  C   UNL     1      -0.117   9.831  21.749  0.00  0.00    +0.000 A 
ATOM     13 CL   UNL     1      -0.839   9.941  23.307  0.00  0.00    +0.000 Cl
ATOM     14  C   UNL     1      -0.634  10.581  20.694  0.00  0.00    +0.000 A 
ATOM     15  C   UNL     1      -0.066  10.465  19.425  0.00  0.00    +0.000 A 
ATOM     16  C   UNL     1       0.979   9.562  19.210  0.00  0.00    +0.000 A 
ATOM     17 CL   UNL     1       1.642   9.453  17.617  0.00  0.00    +0.000 Cl
ENDBRANCH   9  10
ENDBRANCH   4   9
BRANCH   5  18
ATOM     18  O   UNL     1       3.297   6.722  17.454  0.00  0.00    +0.000 OA
BRANCH  18  19
ATOM     19  C   UNL     1       4.634   7.114  17.801  0.00  0.00    +0.000 C 
BRANCH  19  20
ATOM     20  C   UNL     1       5.662   6.133  17.299  0.00  0.00    +0.000 A 
ATOM     21  C   UNL     1       6.572   5.545  18.184  0.00  0.00    +0.000 A 
ATOM     22  C   UNL     1       7.540   4.697  17.671  0.00  0.00    +0.000 A 
ATOM     23  N   UNL     1       7.647   4.384  16.363  0.00  0.00    +0.000 NA
ATOM     24  C   UNL     1       6.737   4.931  15.530  0.00  0.00    +0.000 A 
ATOM     25  C   UNL     1       5.735   5.790  15.946  0.00  0.00    +0.000 A 
ENDBRANCH  19  20
ENDBRANCH  18  19
ENDBRANCH   5  18
TORSDOF 6
ENDMDL
MODEL 4
REMARK VINA RESULT:      -7.5      1.639      5.398
REMARK  Name = 
REMARK  6 active torsions:
REMARK  status: ('A' for Active; 'I' for Inactive)
REMARK    1  A    between atoms: C_2  and  C_3
REMARK    2  A    between atoms: C_6  and  O_7
REMARK    3  A    between atoms: O_7  and  C_8
REMARK    4  A    between atoms: C_16  and  O_17
REMARK    5  A    between atoms: O_17  and  C_18
REMARK    6  A    between atoms: C_18  and  C_19
REMARK                            x       y       z     vdW  Elec       q    Type
REMARK                         _______ _______ _______ _____ _____    ______ ____
ROOT
ATOM      1  C   UNL     1       2.146   3.029  20.143  0.00  0.00    +0.000 A 
ATOM      2  C   UNL     1       2.922   2.109  19.441  0.00  0.00    +0.000 A 
ATOM      3  C   UNL     1       3.499   2.478  18.226  0.00  0.00    +0.000 A 
ATOM      4  C   UNL     1       3.311   3.767  17.707  0.00  0.00    +0.000 A 
ATOM      5  C   UNL     1       2.499   4.687  18.393  0.00  0.00    +0.000 A 
ATOM      6  C   UNL     1       1.933   4.310  19.619  0.00  0.00    +0.000 A 
ENDROOT
BRANCH   1   8
ATOM      7  N   UNL     1       1.066   2.347  22.402  0.00  0.00    +0.000 NA
ATOM      8  C   UNL     1       1.549   2.658  21.392  0.00  0.00    +0.000 C 
ENDBRANCH   1   8
BRANCH   4   9
ATOM      9  O   UNL     1       3.897   3.949  16.474  0.00  0.00    +0.000 OA
BRANCH   9  10
ATOM     10  C   UNL     1       5.141   4.522  16.326  0.00  0.00    +0.000 A 
ATOM     11  C   UNL     1       5.869   5.105  17.367  0.00  0.00    +0.000 A 
ATOM     12  C   UNL     1       7.084   5.735  17.098  0.00  0.00    +0.000 A 
ATOM     13 CL   UNL     1       7.895   6.583  18.356  0.00  0.00    +0.000 Cl
ATOM     14  C   UNL     1       7.631   5.709  15.817  0.00  0.00    +0.000 A 
ATOM     15  C   UNL     1       6.955   5.048  14.792  0.00  0.00    +0.000 A 
ATOM     16  C   UNL     1       5.711   4.462  15.045  0.00  0.00    +0.000 A 
ATOM     17 CL   UNL     1       4.912   3.661  13.737  0.00  0.00    +0.000 Cl
ENDBRANCH   9  10
ENDBRANCH   4   9
BRANCH   5  18
ATOM     18  O   UNL     1       2.228   5.889  17.790  0.00  0.00    +0.000 OA
BRANCH  18  19
ATOM     19  C   UNL     1       2.958   7.040  18.239  0.00  0.00    +0.000 C 
BRANCH  19  20
ATOM     20  C   UNL     1       2.051   8.104  18.803  0.00  0.00    +0.000 A 
ATOM     21  C   UNL     1       1.550   9.117  17.979  0.00  0.00    +0.000 A 
ATOM     22  C   UNL     1       0.770  10.110  18.552  0.00  0.00    +0.000 A 
ATOM     23  N   UNL     1       0.445  10.148  19.861  0.00  0.00    +0.000 NA
ATOM     24  C   UNL     1       0.907   9.142  20.632  0.00  0.00    +0.000 A 
ATOM     25  C   UNL     1       1.693   8.107  20.154  0.00  0.00    +0.000 A 
ENDBRANCH  19  20
ENDBRANCH  18  19
ENDBRANCH   5  18
TORSDOF 6
ENDMDL
MODEL 5
REMARK VINA RESULT:      -7.5      3.286      6.842
REMARK  Name = 
REMARK  6 active torsions:
REMARK  status: ('A' for Active; 'I' for Inactive)
REMARK    1  A    between atoms: C_2  and  C_3
REMARK    2  A    between atoms: C_6  and  O_7
REMARK    3  A    between atoms: O_7  and  C_8
REMARK    4  A    between atoms: C_16  and  O_17
REMARK    5  A    between atoms: O_17  and  C_18
REMARK    6  A    between atoms: C_18  and  C_19
REMARK                            x       y       z     vdW  Elec       q    Type
REMARK                         _______ _______ _______ _____ _____    ______ ____
ROOT
ATOM      1  C   UNL     1       1.545   3.915  19.281  0.00  0.00    +0.000 A 
ATOM      2  C   UNL     1       1.156   4.522  20.473  0.00  0.00    +0.000 A 
ATOM      3  C   UNL     1       1.458   5.865  20.694  0.00  0.00    +0.000 A 
ATOM      4  C   UNL     1       2.145   6.612  19.727  0.00  0.00    +0.000 A 
ATOM      5  C   UNL     1       2.572   5.996  18.537  0.00  0.00    +0.000 A 
ATOM      6  C   UNL     1       2.253   4.648  18.321  0.00  0.00    +0.000 A 
ENDROOT
BRANCH   1   8
ATOM      7  N   UNL     1       0.991   1.418  18.845  0.00  0.00    +0.000 NA
ATOM      8  C   UNL     1       1.238   2.535  19.046  0.00  0.00    +0.000 C 
ENDBRANCH   1   8
BRANCH   4   9
ATOM      9  O   UNL     1       2.416   7.902  20.126  0.00  0.00    +0.000 OA
BRANCH   9  10
ATOM     10  C   UNL     1       1.421   8.822  20.373  0.00  0.00    +0.000 A 
ATOM     11  C   UNL     1       0.887   9.084  21.639  0.00  0.00    +0.000 A 
ATOM     12  C   UNL     1      -0.178   9.974  21.773  0.00  0.00    +0.000 A 
ATOM     13 CL   UNL     1      -0.928  10.172  23.308  0.00  0.00    +0.000 Cl
ATOM     14  C   UNL     1      -0.658  10.682  20.673  0.00  0.00    +0.000 A 
ATOM     15  C   UNL     1      -0.068  10.495  19.423  0.00  0.00    +0.000 A 
ATOM     16  C   UNL     1       0.964   9.564  19.273  0.00  0.00    +0.000 A 
ATOM     17 CL   UNL     1       1.656   9.366  17.700  0.00  0.00    +0.000 Cl
ENDBRANCH   9  10
ENDBRANCH   4   9
BRANCH   5  18
ATOM     18  O   UNL     1       3.357   6.720  17.677  0.00  0.00    +0.000 OA
BRANCH  18  19
ATOM     19  C   UNL     1       4.403   6.023  16.983  0.00  0.00    +0.000 C 
BRANCH  19  20
ATOM     20  C   UNL     1       5.748   6.223  17.633  0.00  0.00    +0.000 A 
ATOM     21  C   UNL     1       6.159   5.393  18.680  0.00  0.00    +0.000 A 
ATOM     22  C   UNL     1       7.377   5.651  19.290  0.00  0.00    +0.000 A 
ATOM     23  N   UNL     1       8.206   6.649  18.919  0.00  0.00    +0.000 NA
ATOM     24  C   UNL     1       7.808   7.416  17.882  0.00  0.00    +0.000 A 
ATOM     25  C   UNL     1       6.611   7.239  17.211  0.00  0.00    +0.000 A 
ENDBRANCH  19  20
ENDBRANCH  18  19
ENDBRANCH   5  18
TORSDOF 6
ENDMDL
MODEL 6
REMARK VINA RESULT:      -7.5      1.644      5.298
REMARK  Name = 
REMARK  6 active torsions:
REMARK  status: ('A' for Active; 'I' for Inactive)
REMARK    1  A    between atoms: C_2  and  C_3
REMARK    2  A    between atoms: C_6  and  O_7
REMARK    3  A    between atoms: O_7  and  C_8
REMARK    4  A    between atoms: C_16  and  O_17
REMARK    5  A    between atoms: O_17  and  C_18
REMARK    6  A    between atoms: C_18  and  C_19
REMARK                            x       y       z     vdW  Elec       q    Type
REMARK                         _______ _______ _______ _____ _____    ______ ____
ROOT
ATOM      1  C   UNL     1       2.354   3.738  20.850  0.00  0.00    +0.000 A 
ATOM      2  C   UNL     1       3.382   3.251  20.045  0.00  0.00    +0.000 A 
ATOM      3  C   UNL     1       4.072   4.124  19.205  0.00  0.00    +0.000 A 
ATOM      4  C   UNL     1       3.747   5.487  19.166  0.00  0.00    +0.000 A 
ATOM      5  C   UNL     1       2.686   5.977  19.948  0.00  0.00    +0.000 A 
ATOM      6  C   UNL     1       2.006   5.093  20.797  0.00  0.00    +0.000 A 
ENDROOT
BRANCH   1   8
ATOM      7  N   UNL     1       1.052   2.124  22.410  0.00  0.00    +0.000 NA
ATOM      8  C   UNL     1       1.638   2.848  21.716  0.00  0.00    +0.000 C 
ENDBRANCH   1   8
BRANCH   4   9
ATOM      9  O   UNL     1       4.482   6.196  18.243  0.00  0.00    +0.000 OA
BRANCH   9  10
ATOM     10  C   UNL     1       5.313   5.581  17.332  0.00  0.00    +0.000 A 
ATOM     11  C   UNL     1       4.949   5.268  16.019  0.00  0.00    +0.000 A 
ATOM     12  C   UNL     1       5.834   4.568  15.200  0.00  0.00    +0.000 A 
ATOM     13 CL   UNL     1       5.319   4.053  13.641  0.00  0.00    +0.000 Cl
ATOM     14  C   UNL     1       7.119   4.257  15.641  0.00  0.00    +0.000 A 
ATOM     15  C   UNL     1       7.522   4.649  16.918  0.00  0.00    +0.000 A 
ATOM     16  C   UNL     1       6.620   5.303  17.762  0.00  0.00    +0.000 A 
ATOM     17 CL   UNL     1       7.169   5.760  19.337  0.00  0.00    +0.000 Cl
ENDBRANCH   9  10
ENDBRANCH   4   9
BRANCH   5  18
ATOM     18  O   UNL     1       2.309   7.285  19.783  0.00  0.00    +0.000 OA
BRANCH  18  19
ATOM     19  C   UNL     1       1.505   7.882  20.811  0.00  0.00    +0.000 C 
BRANCH  19  20
ATOM     20  C   UNL     1       0.846   9.157  20.348  0.00  0.00    +0.000 A 
ATOM     21  C   UNL     1       1.064   9.638  19.054  0.00  0.00    +0.000 A 
ATOM     22  C   UNL     1       0.489  10.846  18.691  0.00  0.00    +0.000 A 
ATOM     23  N   UNL     1      -0.293  11.581  19.510  0.00  0.00    +0.000 NA
ATOM     24  C   UNL     1      -0.522  11.081  20.742  0.00  0.00    +0.000 A 
ATOM     25  C   UNL     1       0.008   9.886  21.197  0.00  0.00    +0.000 A 
ENDBRANCH  19  20
ENDBRANCH  18  19
ENDBRANCH   5  18
TORSDOF 6
ENDMDL
MODEL 7
REMARK VINA RESULT:      -7.5      1.884      5.183
REMARK  Name = 
REMARK  6 active torsions:
REMARK  status: ('A' for Active; 'I' for Inactive)
REMARK    1  A    between atoms: C_2  and  C_3
REMARK    2  A    between atoms: C_6  and  O_7
REMARK    3  A    between atoms: O_7  and  C_8
REMARK    4  A    between atoms: C_16  and  O_17
REMARK    5  A    between atoms: O_17  and  C_18
REMARK    6  A    between atoms: C_18  and  C_19
REMARK                            x       y       z     vdW  Elec       q    Type
REMARK                         _______ _______ _______ _____ _____    ______ ____
ROOT
ATOM      1  C   UNL     1       2.133   3.618  20.518  0.00  0.00    +0.000 A 
ATOM      2  C   UNL     1       2.531   3.001  19.334  0.00  0.00    +0.000 A 
ATOM      3  C   UNL     1       3.102   3.765  18.317  0.00  0.00    +0.000 A 
ATOM      4  C   UNL     1       3.286   5.146  18.476  0.00  0.00    +0.000 A 
ATOM      5  C   UNL     1       2.853   5.780  19.654  0.00  0.00    +0.000 A 
ATOM      6  C   UNL     1       2.290   5.001  20.675  0.00  0.00    +0.000 A 
ENDROOT
BRANCH   1   8
ATOM      7  N   UNL     1       1.061   2.218  22.422  0.00  0.00    +0.000 NA
ATOM      8  C   UNL     1       1.545   2.841  21.568  0.00  0.00    +0.000 C 
ENDBRANCH   1   8
BRANCH   4   9
ATOM      9  O   UNL     1       3.806   5.759  17.358  0.00  0.00    +0.000 OA
BRANCH   9  10
ATOM     10  C   UNL     1       4.897   5.259  16.683  0.00  0.00    +0.000 A 
ATOM     11  C   UNL     1       4.883   4.871  15.340  0.00  0.00    +0.000 A 
ATOM     12  C   UNL     1       6.020   4.297  14.770  0.00  0.00    +0.000 A 
ATOM     13 CL   UNL     1       5.944   3.682  13.165  0.00  0.00    +0.000 Cl
ATOM     14  C   UNL     1       7.204   4.189  15.496  0.00  0.00    +0.000 A 
ATOM     15  C   UNL     1       7.252   4.659  16.809  0.00  0.00    +0.000 A 
ATOM     16  C   UNL     1       6.101   5.186  17.401  0.00  0.00    +0.000 A 
ATOM     17 CL   UNL     1       6.214   5.749  19.033  0.00  0.00    +0.000 Cl
ENDBRANCH   9  10
ENDBRANCH   4   9
BRANCH   5  18
ATOM     18  O   UNL     1       2.924   7.148  19.719  0.00  0.00    +0.000 OA
BRANCH  18  19
ATOM     19  C   UNL     1       1.805   7.897  19.223  0.00  0.00    +0.000 C 
BRANCH  19  20
ATOM     20  C   UNL     1       1.244   8.835  20.261  0.00  0.00    +0.000 A 
ATOM     21  C   UNL     1       0.837  10.124  19.906  0.00  0.00    +0.000 A 
ATOM     22  C   UNL     1       0.385  10.974  20.903  0.00  0.00    +0.000 A 
ATOM     23  N   UNL     1       0.294  10.625  22.203  0.00  0.00    +0.000 NA
ATOM     24  C   UNL     1       0.656   9.364  22.521  0.00  0.00    +0.000 A 
ATOM     25  C   UNL     1       1.120   8.443  21.598  0.00  0.00    +0.000 A 
ENDBRANCH  19  20
ENDBRANCH  18  19
ENDBRANCH   5  18
TORSDOF 6
ENDMDL
MODEL 8
REMARK VINA RESULT:      -7.3      2.279      4.827
REMARK  Name = 
REMARK  6 active torsions:
REMARK  status: ('A' for Active; 'I' for Inactive)
REMARK    1  A    between atoms: C_2  and  C_3
REMARK    2  A    between atoms: C_6  and  O_7
REMARK    3  A    between atoms: O_7  and  C_8
REMARK    4  A    between atoms: C_16  and  O_17
REMARK    5  A    between atoms: O_17  and  C_18
REMARK    6  A    between atoms: C_18  and  C_19
REMARK                            x       y       z     vdW  Elec       q    Type
REMARK                         _______ _______ _______ _____ _____    ______ ____
ROOT
ATOM      1  C   UNL     1       1.374   9.215  18.956  0.00  0.00    +0.000 A 
ATOM      2  C   UNL     1       1.257   8.442  20.110  0.00  0.00    +0.000 A 
ATOM      3  C   UNL     1       2.013   7.278  20.239  0.00  0.00    +0.000 A 
ATOM      4  C   UNL     1       2.894   6.880  19.224  0.00  0.00    +0.000 A 
ATOM      5  C   UNL     1       2.989   7.636  18.042  0.00  0.00    +0.000 A 
ATOM      6  C   UNL     1       2.233   8.810  17.927  0.00  0.00    +0.000 A 
ENDROOT
BRANCH   1   8
ATOM      7  N   UNL     1      -0.035  11.378  18.699  0.00  0.00    +0.000 NA
ATOM      8  C   UNL     1       0.601  10.413  18.814  0.00  0.00    +0.000 C 
ENDBRANCH   1   8
BRANCH   4   9
ATOM      9  O   UNL     1       3.517   5.679  19.483  0.00  0.00    +0.000 OA
BRANCH   9  10
ATOM     10  C   UNL     1       2.817   4.505  19.649  0.00  0.00    +0.000 A 
ATOM     11  C   UNL     1       2.210   4.112  20.846  0.00  0.00    +0.000 A 
ATOM     12  C   UNL     1       1.595   2.863  20.936  0.00  0.00    +0.000 A 
ATOM     13 CL   UNL     1       0.990   2.325  22.454  0.00  0.00    +0.000 Cl
ATOM     14  C   UNL     1       1.493   2.037  19.819  0.00  0.00    +0.000 A 
ATOM     15  C   UNL     1       2.014   2.463  18.598  0.00  0.00    +0.000 A 
ATOM     16  C   UNL     1       2.678   3.690  18.514  0.00  0.00    +0.000 A 
ATOM     17 CL   UNL     1       3.311   4.168  16.978  0.00  0.00    +0.000 Cl
ENDBRANCH   9  10
ENDBRANCH   4   9
BRANCH   5  18
ATOM     18  O   UNL     1       3.757   7.144  17.018  0.00  0.00    +0.000 OA
BRANCH  18  19
ATOM     19  C   UNL     1       5.137   7.534  16.972  0.00  0.00    +0.000 C 
BRANCH  19  20
ATOM     20  C   UNL     1       6.063   6.345  16.919  0.00  0.00    +0.000 A 
ATOM     21  C   UNL     1       6.759   5.938  18.061  0.00  0.00    +0.000 A 
ATOM     22  C   UNL     1       7.647   4.879  17.951  0.00  0.00    +0.000 A 
ATOM     23  N   UNL     1       7.867   4.198  16.807  0.00  0.00    +0.000 NA
ATOM     24  C   UNL     1       7.157   4.582  15.725  0.00  0.00    +0.000 A 
ATOM     25  C   UNL     1       6.250   5.628  15.734  0.00  0.00    +0.000 A 
ENDBRANCH  19  20
ENDBRANCH  18  19
ENDBRANCH   5  18
TORSDOF 6
ENDMDL
MODEL 9
REMARK VINA RESULT:      -7.3      1.816      5.056
REMARK  Name = 
REMARK  6 active torsions:
REMARK  status: ('A' for Active; 'I' for Inactive)
REMARK    1  A    between atoms: C_2  and  C_3
REMARK    2  A    between atoms: C_6  and  O_7
REMARK    3  A    between atoms: O_7  and  C_8
REMARK    4  A    between atoms: C_16  and  O_17
REMARK    5  A    between atoms: O_17  and  C_18
REMARK    6  A    between atoms: C_18  and  C_19
REMARK                            x       y       z     vdW  Elec       q    Type
REMARK                         _______ _______ _______ _____ _____    ______ ____
ROOT
ATOM      1  C   UNL     1       2.729   4.101  20.252  0.00  0.00    +0.000 A 
ATOM      2  C   UNL     1       4.049   3.838  19.890  0.00  0.00    +0.000 A 
ATOM      3  C   UNL     1       4.687   4.663  18.964  0.00  0.00    +0.000 A 
ATOM      4  C   UNL     1       4.016   5.756  18.398  0.00  0.00    +0.000 A 
ATOM      5  C   UNL     1       2.673   6.004  18.732  0.00  0.00    +0.000 A 
ATOM      6  C   UNL     1       2.045   5.176  19.672  0.00  0.00    +0.000 A 
ENDROOT
BRANCH   1   8
ATOM      7  N   UNL     1       1.526   2.568  21.965  0.00  0.00    +0.000 NA
ATOM      8  C   UNL     1       2.066   3.258  21.202  0.00  0.00    +0.000 C 
ENDBRANCH   1   8
BRANCH   4   9
ATOM      9  O   UNL     1       4.767   6.430  17.460  0.00  0.00    +0.000 OA
BRANCH   9  10
ATOM     10  C   UNL     1       5.478   5.777  16.478  0.00  0.00    +0.000 A 
ATOM     11  C   UNL     1       4.907   5.215  15.332  0.00  0.00    +0.000 A 
ATOM     12  C   UNL     1       5.704   4.500  14.438  0.00  0.00    +0.000 A 
ATOM     13 CL   UNL     1       4.967   3.683  13.115  0.00  0.00    +0.000 Cl
ATOM     14  C   UNL     1       7.082   4.417  14.621  0.00  0.00    +0.000 A 
ATOM     15  C   UNL     1       7.672   5.054  15.712  0.00  0.00    +0.000 A 
ATOM     16  C   UNL     1       6.872   5.727  16.641  0.00  0.00    +0.000 A 
ATOM     17 CL   UNL     1       7.653   6.494  17.979  0.00  0.00    +0.000 Cl
ENDBRANCH   9  10
ENDBRANCH   4   9
BRANCH   5  18
ATOM     18  O   UNL     1       2.010   6.997  18.058  0.00  0.00    +0.000 OA
BRANCH  18  19
ATOM     19  C   UNL     1       2.396   8.354  18.321  0.00  0.00    +0.000 C 
BRANCH  19  20
ATOM     20  C   UNL     1       1.294   9.141  18.983  0.00  0.00    +0.000 A 
ATOM     21  C   UNL     1       1.066   9.023  20.357  0.00  0.00    +0.000 A 
ATOM     22  C   UNL     1       0.002   9.717  20.913  0.00  0.00    +0.000 A 
ATOM     23  N   UNL     1      -0.820  10.521  20.209  0.00  0.00    +0.000 NA
ATOM     24  C   UNL     1      -0.561  10.652  18.890  0.00  0.00    +0.000 A 
ATOM     25  C   UNL     1       0.475  10.000  18.243  0.00  0.00    +0.000 A 
ENDBRANCH  19  20
ENDBRANCH  18  19
ENDBRANCH   5  18
TORSDOF 6
ENDMDL
