MODEL 1
REMARK VINA RESULT:     -10.1      0.000      0.000
REMARK  Name = 
REMARK  6 active torsions:
REMARK  status: ('A' for Active; 'I' for Inactive)
REMARK    1  A    between atoms: C_1  and  C_2
REMARK    2  A    between atoms: C_6  and  C_7
REMARK    3  A    between atoms: C_9  and  C_10
REMARK    4  A    between atoms: C_10  and  N_11
REMARK    5  A    between atoms: N_11  and  C_12
REMARK    6  A    between atoms: C_21  and  C_22
REMARK                            x       y       z     vdW  Elec       q    Type
REMARK                         _______ _______ _______ _____ _____    ______ ____
ROOT
ATOM      1  C   UNL     1       3.955   4.613  18.349  0.00  0.00    +0.000 A 
ATOM      2  N   UNL     1       5.182   4.123  17.955  0.00  0.00    +0.000 N 
ATOM      3  C   UNL     1       5.955   5.170  17.514  0.00  0.00    +0.000 A 
ATOM      4  N   UNL     1       5.312   6.311  17.652  0.00  0.00    +0.000 NA
ATOM      5  C   UNL     1       4.090   5.976  18.170  0.00  0.00    +0.000 A 
ATOM      6  H   UNL     1       5.458   3.152  17.958  0.00  0.00    +0.000 HD
ENDROOT
BRANCH   5   7
ATOM      7  C   UNL     1       3.151   6.991  18.501  0.00  0.00    +0.000 A 
ATOM      8  C   UNL     1       2.839   8.045  17.531  0.00  0.00    +0.000 A 
ATOM      9  C   UNL     1       1.989   9.051  17.812  0.00  0.00    +0.000 A 
ATOM     10  C   UNL     1       1.371   9.101  19.089  0.00  0.00    +0.000 A 
ATOM     11  N   UNL     1       0.535   9.961  19.632  0.00  0.00    +0.000 NA
ATOM     12  C   UNL     1       0.333   9.439  20.871  0.00  0.00    +0.000 A 
ATOM     13  N   UNL     1       0.979   8.303  21.145  0.00  0.00    +0.000 NA
ATOM     14  N   UNL     1       1.664   8.077  19.995  0.00  0.00    +0.000 N 
ATOM     15  C   UNL     1       2.537   7.038  19.699  0.00  0.00    +0.000 A 
ENDBRANCH   5   7
BRANCH   1  21
ATOM     16  C   UNL     1       1.776   2.556  22.096  0.00  0.00    +0.000 C 
ATOM     17  C   UNL     1       1.789   2.806  20.616  0.00  0.00    +0.000 A 
ATOM     18  C   UNL     1       0.742   2.366  19.814  0.00  0.00    +0.000 A 
ATOM     19  C   UNL     1       0.779   2.641  18.453  0.00  0.00    +0.000 A 
ATOM     20  C   UNL     1       1.848   3.358  17.929  0.00  0.00    +0.000 A 
ATOM     21  C   UNL     1       2.850   3.778  18.793  0.00  0.00    +0.000 A 
ATOM     22  N   UNL     1       2.840   3.505  20.118  0.00  0.00    +0.000 NA
ENDBRANCH   1  21
BRANCH   3  23
ATOM     23  C   UNL     1       7.338   4.978  16.971  0.00  0.00    +0.000 C 
BRANCH  23  24
ATOM     24  N   UNL     1       7.510   5.503  15.622  0.00  0.00    +0.000 N 
ATOM     25  H   UNL     1       8.402   5.957  15.449  0.00  0.00    +0.000 HD
BRANCH  24  26
ATOM     26  C   UNL     1       7.012   4.819  14.511  0.00  0.00    +0.000 A 
ATOM     27  C   UNL     1       5.871   4.006  14.566  0.00  0.00    +0.000 A 
ATOM     28  C   UNL     1       5.349   3.404  13.413  0.00  0.00    +0.000 A 
ATOM     29  C   UNL     1       5.955   3.612  12.178  0.00  0.00    +0.000 A 
ATOM     30  C   UNL     1       7.078   4.427  12.103  0.00  0.00    +0.000 A 
ATOM     31  F   UNL     1       7.663   4.627  10.914  0.00  0.00    +0.000 F 
ATOM     32  C   UNL     1       7.592   5.030  13.248  0.00  0.00    +0.000 A 
ATOM     33  F   UNL     1       8.680   5.813  13.148  0.00  0.00    +0.000 F 
ENDBRANCH  24  26
ENDBRANCH  23  24
ENDBRANCH   3  23
TORSDOF 5
ENDMDL
MODEL 2
REMARK VINA RESULT:     -10.0      1.243      1.523
REMARK  Name = 
REMARK  6 active torsions:
REMARK  status: ('A' for Active; 'I' for Inactive)
REMARK    1  A    between atoms: C_1  and  C_2
REMARK    2  A    between atoms: C_6  and  C_7
REMARK    3  A    between atoms: C_9  and  C_10
REMARK    4  A    between atoms: C_10  and  N_11
REMARK    5  A    between atoms: N_11  and  C_12
REMARK    6  A    between atoms: C_21  and  C_22
REMARK                            x       y       z     vdW  Elec       q    Type
REMARK                         _______ _______ _______ _____ _____    ______ ____
ROOT
ATOM      1  C   UNL     1       3.750   5.394  18.171  0.00  0.00    +0.000 A 
ATOM      2  N   UNL     1       4.993   5.087  17.659  0.00  0.00    +0.000 N 
ATOM      3  C   UNL     1       5.600   6.248  17.246  0.00  0.00    +0.000 A 
ATOM      4  N   UNL     1       4.838   7.289  17.511  0.00  0.00    +0.000 NA
ATOM      5  C   UNL     1       3.707   6.773  18.084  0.00  0.00    +0.000 A 
ATOM      6  H   UNL     1       5.382   4.159  17.573  0.00  0.00    +0.000 HD
ENDROOT
BRANCH   5   7
ATOM      7  C   UNL     1       2.683   7.640  18.552  0.00  0.00    +0.000 A 
ATOM      8  C   UNL     1       2.106   8.644  17.652  0.00  0.00    +0.000 A 
ATOM      9  C   UNL     1       1.164   9.515  18.060  0.00  0.00    +0.000 A 
ATOM     10  C   UNL     1       0.708   9.468  19.404  0.00  0.00    +0.000 A 
ATOM     11  N   UNL     1      -0.167  10.194  20.065  0.00  0.00    +0.000 NA
ATOM     12  C   UNL     1      -0.139   9.641  21.306  0.00  0.00    +0.000 A 
ATOM     13  N   UNL     1       0.692   8.608  21.472  0.00  0.00    +0.000 NA
ATOM     14  N   UNL     1       1.254   8.490  20.241  0.00  0.00    +0.000 N 
ATOM     15  C   UNL     1       2.222   7.589  19.816  0.00  0.00    +0.000 A 
ENDBRANCH   5   7
BRANCH   1  21
ATOM     16  C   UNL     1       2.147   2.816  21.885  0.00  0.00    +0.000 C 
ATOM     17  C   UNL     1       2.005   3.175  20.435  0.00  0.00    +0.000 A 
ATOM     18  C   UNL     1       0.950   2.674  19.681  0.00  0.00    +0.000 A 
ATOM     19  C   UNL     1       0.839   3.053  18.349  0.00  0.00    +0.000 A 
ATOM     20  C   UNL     1       1.771   3.930  17.808  0.00  0.00    +0.000 A 
ATOM     21  C   UNL     1       2.789   4.401  18.625  0.00  0.00    +0.000 A 
ATOM     22  N   UNL     1       2.923   4.031  19.919  0.00  0.00    +0.000 NA
ENDBRANCH   1  21
BRANCH   3  23
ATOM     23  C   UNL     1       6.950   6.265  16.598  0.00  0.00    +0.000 C 
BRANCH  23  24
ATOM     24  N   UNL     1       7.306   5.001  15.963  0.00  0.00    +0.000 N 
ATOM     25  H   UNL     1       7.079   4.171  16.503  0.00  0.00    +0.000 HD
BRANCH  24  26
ATOM     26  C   UNL     1       7.167   4.822  14.585  0.00  0.00    +0.000 A 
ATOM     27  C   UNL     1       7.923   5.535  13.644  0.00  0.00    +0.000 A 
ATOM     28  C   UNL     1       7.821   5.267  12.273  0.00  0.00    +0.000 A 
ATOM     29  C   UNL     1       6.965   4.270  11.816  0.00  0.00    +0.000 A 
ATOM     30  C   UNL     1       6.219   3.543  12.736  0.00  0.00    +0.000 A 
ATOM     31  F   UNL     1       5.393   2.583  12.295  0.00  0.00    +0.000 F 
ATOM     32  C   UNL     1       6.327   3.805  14.098  0.00  0.00    +0.000 A 
ATOM     33  F   UNL     1       5.594   3.088  14.967  0.00  0.00    +0.000 F 
ENDBRANCH  24  26
ENDBRANCH  23  24
ENDBRANCH   3  23
TORSDOF 5
ENDMDL
MODEL 3
REMARK VINA RESULT:      -9.7      0.723      1.249
REMARK  Name = 
REMARK  6 active torsions:
REMARK  status: ('A' for Active; 'I' for Inactive)
REMARK    1  A    between atoms: C_1  and  C_2
REMARK    2  A    between atoms: C_6  and  C_7
REMARK    3  A    between atoms: C_9  and  C_10
REMARK    4  A    between atoms: C_10  and  N_11
REMARK    5  A    between atoms: N_11  and  C_12
REMARK    6  A    between atoms: C_21  and  C_22
REMARK                            x       y       z     vdW  Elec       q    Type
REMARK                         _______ _______ _______ _____ _____    ______ ____
ROOT
ATOM      1  C   UNL     1       4.032   4.449  18.357  0.00  0.00    +0.000 A 
ATOM      2  N   UNL     1       5.232   3.931  17.917  0.00  0.00    +0.000 N 
ATOM      3  C   UNL     1       6.034   4.965  17.501  0.00  0.00    +0.000 A 
ATOM      4  N   UNL     1       5.437   6.123  17.697  0.00  0.00    +0.000 NA
ATOM      5  C   UNL     1       4.214   5.813  18.228  0.00  0.00    +0.000 A 
ATOM      6  H   UNL     1       5.471   2.951  17.877  0.00  0.00    +0.000 HD
ENDROOT
BRANCH   5   7
ATOM      7  C   UNL     1       3.321   6.847  18.619  0.00  0.00    +0.000 A 
ATOM      8  C   UNL     1       2.617   6.759  19.903  0.00  0.00    +0.000 A 
ATOM      9  C   UNL     1       1.731   7.692  20.300  0.00  0.00    +0.000 A 
ATOM     10  C   UNL     1       1.460   8.799  19.454  0.00  0.00    +0.000 A 
ATOM     11  N   UNL     1       0.644   9.824  19.574  0.00  0.00    +0.000 NA
ATOM     12  C   UNL     1       0.859  10.514  18.423  0.00  0.00    +0.000 A 
ATOM     13  N   UNL     1       1.761   9.998  17.585  0.00  0.00    +0.000 NA
ATOM     14  N   UNL     1       2.155   8.877  18.243  0.00  0.00    +0.000 N 
ATOM     15  C   UNL     1       3.074   7.916  17.839  0.00  0.00    +0.000 A 
ENDBRANCH   5   7
BRANCH   1  21
ATOM     16  C   UNL     1       1.740   2.499  22.093  0.00  0.00    +0.000 C 
ATOM     17  C   UNL     1       1.790   2.718  20.610  0.00  0.00    +0.000 A 
ATOM     18  C   UNL     1       0.756   2.275  19.793  0.00  0.00    +0.000 A 
ATOM     19  C   UNL     1       0.828   2.521  18.427  0.00  0.00    +0.000 A 
ATOM     20  C   UNL     1       1.919   3.213  17.914  0.00  0.00    +0.000 A 
ATOM     21  C   UNL     1       2.906   3.638  18.792  0.00  0.00    +0.000 A 
ATOM     22  N   UNL     1       2.861   3.393  20.121  0.00  0.00    +0.000 NA
ENDBRANCH   1  21
BRANCH   3  23
ATOM     23  C   UNL     1       7.397   4.745  16.920  0.00  0.00    +0.000 C 
BRANCH  23  24
ATOM     24  N   UNL     1       7.574   5.353  15.607  0.00  0.00    +0.000 N 
ATOM     25  H   UNL     1       8.472   5.808  15.463  0.00  0.00    +0.000 HD
BRANCH  24  26
ATOM     26  C   UNL     1       7.069   4.746  14.455  0.00  0.00    +0.000 A 
ATOM     27  C   UNL     1       5.947   3.905  14.467  0.00  0.00    +0.000 A 
ATOM     28  C   UNL     1       5.415   3.384  13.281  0.00  0.00    +0.000 A 
ATOM     29  C   UNL     1       5.991   3.702  12.055  0.00  0.00    +0.000 A 
ATOM     30  C   UNL     1       7.094   4.547  12.024  0.00  0.00    +0.000 A 
ATOM     31  F   UNL     1       7.650   4.853  10.842  0.00  0.00    +0.000 F 
ATOM     32  C   UNL     1       7.618   5.070  13.202  0.00  0.00    +0.000 A 
ATOM     33  F   UNL     1       8.686   5.884  13.144  0.00  0.00    +0.000 F 
ENDBRANCH  24  26
ENDBRANCH  23  24
ENDBRANCH   3  23
TORSDOF 5
ENDMDL
MODEL 4
REMARK VINA RESULT:      -9.4      1.404      1.958
REMARK  Name = 
REMARK  6 active torsions:
REMARK  status: ('A' for Active; 'I' for Inactive)
REMARK    1  A    between atoms: C_1  and  C_2
REMARK    2  A    between atoms: C_6  and  C_7
REMARK    3  A    between atoms: C_9  and  C_10
REMARK    4  A    between atoms: C_10  and  N_11
REMARK    5  A    between atoms: N_11  and  C_12
REMARK    6  A    between atoms: C_21  and  C_22
REMARK                            x       y       z     vdW  Elec       q    Type
REMARK                         _______ _______ _______ _____ _____    ______ ____
ROOT
ATOM      1  C   UNL     1       3.664   5.417  18.184  0.00  0.00    +0.000 A 
ATOM      2  N   UNL     1       4.890   5.144  17.614  0.00  0.00    +0.000 N 
ATOM      3  C   UNL     1       5.473   6.328  17.233  0.00  0.00    +0.000 A 
ATOM      4  N   UNL     1       4.714   7.349  17.573  0.00  0.00    +0.000 NA
ATOM      5  C   UNL     1       3.609   6.797  18.163  0.00  0.00    +0.000 A 
ATOM      6  H   UNL     1       5.282   4.225  17.470  0.00  0.00    +0.000 HD
ENDROOT
BRANCH   5   7
ATOM      7  C   UNL     1       2.596   7.633  18.708  0.00  0.00    +0.000 A 
ATOM      8  C   UNL     1       2.195   7.477  20.109  0.00  0.00    +0.000 A 
ATOM      9  C   UNL     1       1.214   8.216  20.661  0.00  0.00    +0.000 A 
ATOM     10  C   UNL     1       0.537   9.178  19.865  0.00  0.00    +0.000 A 
ATOM     11  N   UNL     1      -0.454  10.003  20.129  0.00  0.00    +0.000 NA
ATOM     12  C   UNL     1      -0.631  10.646  18.945  0.00  0.00    +0.000 A 
ATOM     13  N   UNL     1       0.186  10.287  17.951  0.00  0.00    +0.000 NA
ATOM     14  N   UNL     1       0.946   9.326  18.537  0.00  0.00    +0.000 N 
ATOM     15  C   UNL     1       1.964   8.567  17.973  0.00  0.00    +0.000 A 
ENDBRANCH   5   7
BRANCH   1  21
ATOM     16  C   UNL     1       2.202   2.674  21.839  0.00  0.00    +0.000 C 
ATOM     17  C   UNL     1       2.012   3.090  20.409  0.00  0.00    +0.000 A 
ATOM     18  C   UNL     1       0.939   2.607  19.668  0.00  0.00    +0.000 A 
ATOM     19  C   UNL     1       0.784   3.037  18.356  0.00  0.00    +0.000 A 
ATOM     20  C   UNL     1       1.690   3.946  17.822  0.00  0.00    +0.000 A 
ATOM     21  C   UNL     1       2.728   4.396  18.627  0.00  0.00    +0.000 A 
ATOM     22  N   UNL     1       2.905   3.975  19.900  0.00  0.00    +0.000 NA
ENDBRANCH   1  21
BRANCH   3  23
ATOM     23  C   UNL     1       6.798   6.386  16.537  0.00  0.00    +0.000 C 
BRANCH  23  24
ATOM     24  N   UNL     1       7.206   5.113  15.955  0.00  0.00    +0.000 N 
ATOM     25  H   UNL     1       6.985   4.295  16.516  0.00  0.00    +0.000 HD
BRANCH  24  26
ATOM     26  C   UNL     1       7.112   4.884  14.581  0.00  0.00    +0.000 A 
ATOM     27  C   UNL     1       7.932   5.529  13.644  0.00  0.00    +0.000 A 
ATOM     28  C   UNL     1       7.871   5.211  12.281  0.00  0.00    +0.000 A 
ATOM     29  C   UNL     1       6.992   4.231  11.829  0.00  0.00    +0.000 A 
ATOM     30  C   UNL     1       6.183   3.571  12.746  0.00  0.00    +0.000 A 
ATOM     31  F   UNL     1       5.335   2.628  12.310  0.00  0.00    +0.000 F 
ATOM     32  C   UNL     1       6.249   3.884  14.101  0.00  0.00    +0.000 A 
ATOM     33  F   UNL     1       5.455   3.231  14.967  0.00  0.00    +0.000 F 
ENDBRANCH  24  26
ENDBRANCH  23  24
ENDBRANCH   3  23
TORSDOF 5
ENDMDL
MODEL 5
REMARK VINA RESULT:      -9.3      0.715      1.283
REMARK  Name = 
REMARK  6 active torsions:
REMARK  status: ('A' for Active; 'I' for Inactive)
REMARK    1  A    between atoms: C_1  and  C_2
REMARK    2  A    between atoms: C_6  and  C_7
REMARK    3  A    between atoms: C_9  and  C_10
REMARK    4  A    between atoms: C_10  and  N_11
REMARK    5  A    between atoms: N_11  and  C_12
REMARK    6  A    between atoms: C_21  and  C_22
REMARK                            x       y       z     vdW  Elec       q    Type
REMARK                         _______ _______ _______ _____ _____    ______ ____
ROOT
ATOM      1  C   UNL     1       3.967   5.133  18.909  0.00  0.00    +0.000 A 
ATOM      2  N   UNL     1       5.193   4.665  18.484  0.00  0.00    +0.000 N 
ATOM      3  C   UNL     1       5.801   5.641  17.732  0.00  0.00    +0.000 A 
ATOM      4  N   UNL     1       5.059   6.728  17.694  0.00  0.00    +0.000 NA
ATOM      5  C   UNL     1       3.938   6.425  18.419  0.00  0.00    +0.000 A 
ATOM      6  H   UNL     1       5.569   3.747  18.667  0.00  0.00    +0.000 HD
ENDROOT
BRANCH   5   7
ATOM      7  C   UNL     1       2.936   7.411  18.632  0.00  0.00    +0.000 A 
ATOM      8  C   UNL     1       2.614   8.369  17.570  0.00  0.00    +0.000 A 
ATOM      9  C   UNL     1       1.703   9.346  17.737  0.00  0.00    +0.000 A 
ATOM     10  C   UNL     1       1.028   9.461  18.981  0.00  0.00    +0.000 A 
ATOM     11  N   UNL     1       0.128  10.314  19.422  0.00  0.00    +0.000 NA
ATOM     12  C   UNL     1      -0.102   9.879  20.688  0.00  0.00    +0.000 A 
ATOM     13  N   UNL     1       0.588   8.804  21.077  0.00  0.00    +0.000 NA
ATOM     14  N   UNL     1       1.333   8.527  19.975  0.00  0.00    +0.000 N 
ATOM     15  C   UNL     1       2.269   7.516  19.797  0.00  0.00    +0.000 A 
ENDBRANCH   5   7
BRANCH   1  21
ATOM     16  C   UNL     1       0.413   1.919  18.670  0.00  0.00    +0.000 C 
ATOM     17  C   UNL     1       1.304   2.763  19.533  0.00  0.00    +0.000 A 
ATOM     18  C   UNL     1       1.261   2.651  20.918  0.00  0.00    +0.000 A 
ATOM     19  C   UNL     1       2.121   3.432  21.681  0.00  0.00    +0.000 A 
ATOM     20  C   UNL     1       3.011   4.290  21.045  0.00  0.00    +0.000 A 
ATOM     21  C   UNL     1       3.007   4.337  19.658  0.00  0.00    +0.000 A 
ATOM     22  N   UNL     1       2.166   3.598  18.900  0.00  0.00    +0.000 NA
ENDBRANCH   1  21
BRANCH   3  23
ATOM     23  C   UNL     1       7.134   5.440  17.078  0.00  0.00    +0.000 C 
BRANCH  23  24
ATOM     24  N   UNL     1       7.167   5.866  15.684  0.00  0.00    +0.000 N 
ATOM     25  H   UNL     1       7.971   6.432  15.428  0.00  0.00    +0.000 HD
BRANCH  24  26
ATOM     26  C   UNL     1       6.736   5.021  14.660  0.00  0.00    +0.000 A 
ATOM     27  C   UNL     1       5.550   4.277  14.736  0.00  0.00    +0.000 A 
ATOM     28  C   UNL     1       5.102   3.507  13.654  0.00  0.00    +0.000 A 
ATOM     29  C   UNL     1       5.831   3.474  12.469  0.00  0.00    +0.000 A 
ATOM     30  C   UNL     1       7.000   4.218  12.371  0.00  0.00    +0.000 A 
ATOM     31  F   UNL     1       7.703   4.186  11.230  0.00  0.00    +0.000 F 
ATOM     32  C   UNL     1       7.440   4.987  13.444  0.00  0.00    +0.000 A 
ATOM     33  F   UNL     1       8.576   5.697  13.324  0.00  0.00    +0.000 F 
ENDBRANCH  24  26
ENDBRANCH  23  24
ENDBRANCH   3  23
TORSDOF 5
ENDMDL
MODEL 6
REMARK VINA RESULT:      -9.1      3.962      7.985
REMARK  Name = 
REMARK  6 active torsions:
REMARK  status: ('A' for Active; 'I' for Inactive)
REMARK    1  A    between atoms: C_1  and  C_2
REMARK    2  A    between atoms: C_6  and  C_7
REMARK    3  A    between atoms: C_9  and  C_10
REMARK    4  A    between atoms: C_10  and  N_11
REMARK    5  A    between atoms: N_11  and  C_12
REMARK    6  A    between atoms: C_21  and  C_22
REMARK                            x       y       z     vdW  Elec       q    Type
REMARK                         _______ _______ _______ _____ _____    ______ ____
ROOT
ATOM      1  C   UNL     1       2.500   6.318  19.172  0.00  0.00    +0.000 A 
ATOM      2  N   UNL     1       1.605   7.341  19.406  0.00  0.00    +0.000 N 
ATOM      3  C   UNL     1       2.037   8.465  18.747  0.00  0.00    +0.000 A 
ATOM      4  N   UNL     1       3.131   8.208  18.060  0.00  0.00    +0.000 NA
ATOM      5  C   UNL     1       3.414   6.892  18.311  0.00  0.00    +0.000 A 
ATOM      6  H   UNL     1       0.784   7.284  19.992  0.00  0.00    +0.000 HD
ENDROOT
BRANCH   5   7
ATOM      7  C   UNL     1       4.516   6.263  17.670  0.00  0.00    +0.000 A 
ATOM      8  C   UNL     1       5.600   5.691  18.475  0.00  0.00    +0.000 A 
ATOM      9  C   UNL     1       6.684   5.121  17.915  0.00  0.00    +0.000 A 
ATOM     10  C   UNL     1       6.790   5.069  16.500  0.00  0.00    +0.000 A 
ATOM     11  N   UNL     1       7.727   4.603  15.701  0.00  0.00    +0.000 NA
ATOM     12  C   UNL     1       7.222   4.862  14.466  0.00  0.00    +0.000 A 
ATOM     13  N   UNL     1       6.026   5.455  14.430  0.00  0.00    +0.000 NA
ATOM     14  N   UNL     1       5.738   5.602  15.750  0.00  0.00    +0.000 N 
ATOM     15  C   UNL     1       4.618   6.183  16.330  0.00  0.00    +0.000 A 
ENDBRANCH   5   7
BRANCH   1  21
ATOM     16  C   UNL     1       3.132   1.600  18.573  0.00  0.00    +0.000 C 
ATOM     17  C   UNL     1       2.739   2.721  19.490  0.00  0.00    +0.000 A 
ATOM     18  C   UNL     1       2.452   2.474  20.828  0.00  0.00    +0.000 A 
ATOM     19  C   UNL     1       2.118   3.543  21.650  0.00  0.00    +0.000 A 
ATOM     20  C   UNL     1       2.094   4.829  21.124  0.00  0.00    +0.000 A 
ATOM     21  C   UNL     1       2.407   5.001  19.783  0.00  0.00    +0.000 A 
ATOM     22  N   UNL     1       2.717   3.971  18.963  0.00  0.00    +0.000 NA
ENDBRANCH   1  21
BRANCH   3  23
ATOM     23  C   UNL     1       1.315   9.775  18.828  0.00  0.00    +0.000 C 
BRANCH  23  24
ATOM     24  N   UNL     1       0.262   9.921  17.830  0.00  0.00    +0.000 N 
ATOM     25  H   UNL     1       0.189   9.153  17.168  0.00  0.00    +0.000 HD
BRANCH  24  26
ATOM     26  C   UNL     1      -0.971  10.489  18.158  0.00  0.00    +0.000 A 
ATOM     27  C   UNL     1      -1.136  11.388  19.221  0.00  0.00    +0.000 A 
ATOM     28  C   UNL     1      -2.369  12.006  19.467  0.00  0.00    +0.000 A 
ATOM     29  C   UNL     1      -3.461  11.742  18.646  0.00  0.00    +0.000 A 
ATOM     30  C   UNL     1      -3.311  10.865  17.579  0.00  0.00    +0.000 A 
ATOM     31  F   UNL     1      -4.363  10.610  16.789  0.00  0.00    +0.000 F 
ATOM     32  C   UNL     1      -2.084  10.257  17.331  0.00  0.00    +0.000 A 
ATOM     33  F   UNL     1      -1.965   9.411  16.293  0.00  0.00    +0.000 F 
ENDBRANCH  24  26
ENDBRANCH  23  24
ENDBRANCH   3  23
TORSDOF 5
ENDMDL
MODEL 7
REMARK VINA RESULT:      -9.1      3.676      8.222
REMARK  Name = 
REMARK  6 active torsions:
REMARK  status: ('A' for Active; 'I' for Inactive)
REMARK    1  A    between atoms: C_1  and  C_2
REMARK    2  A    between atoms: C_6  and  C_7
REMARK    3  A    between atoms: C_9  and  C_10
REMARK    4  A    between atoms: C_10  and  N_11
REMARK    5  A    between atoms: N_11  and  C_12
REMARK    6  A    between atoms: C_21  and  C_22
REMARK                            x       y       z     vdW  Elec       q    Type
REMARK                         _______ _______ _______ _____ _____    ______ ____
ROOT
ATOM      1  C   UNL     1       2.447   6.295  18.444  0.00  0.00    +0.000 A 
ATOM      2  N   UNL     1       1.593   7.320  18.794  0.00  0.00    +0.000 N 
ATOM      3  C   UNL     1       2.148   8.512  18.398  0.00  0.00    +0.000 A 
ATOM      4  N   UNL     1       3.286   8.307  17.767  0.00  0.00    +0.000 NA
ATOM      5  C   UNL     1       3.470   6.951  17.786  0.00  0.00    +0.000 A 
ATOM      6  H   UNL     1       0.718   7.216  19.288  0.00  0.00    +0.000 HD
ENDROOT
BRANCH   5   7
ATOM      7  C   UNL     1       4.590   6.371  17.131  0.00  0.00    +0.000 A 
ATOM      8  C   UNL     1       5.938   6.567  17.675  0.00  0.00    +0.000 A 
ATOM      9  C   UNL     1       7.035   6.074  17.069  0.00  0.00    +0.000 A 
ATOM     10  C   UNL     1       6.891   5.340  15.862  0.00  0.00    +0.000 A 
ATOM     11  N   UNL     1       7.771   4.775  15.062  0.00  0.00    +0.000 NA
ATOM     12  C   UNL     1       6.988   4.241  14.088  0.00  0.00    +0.000 A 
ATOM     13  N   UNL     1       5.672   4.425  14.221  0.00  0.00    +0.000 NA
ATOM     14  N   UNL     1       5.597   5.145  15.370  0.00  0.00    +0.000 N 
ATOM     15  C   UNL     1       4.468   5.650  16.001  0.00  0.00    +0.000 A 
ENDBRANCH   5   7
BRANCH   1  21
ATOM     16  C   UNL     1       2.159   3.052  21.968  0.00  0.00    +0.000 C 
ATOM     17  C   UNL     1       2.062   3.341  20.498  0.00  0.00    +0.000 A 
ATOM     18  C   UNL     1       1.660   2.352  19.607  0.00  0.00    +0.000 A 
ATOM     19  C   UNL     1       1.558   2.667  18.258  0.00  0.00    +0.000 A 
ATOM     20  C   UNL     1       1.842   3.960  17.834  0.00  0.00    +0.000 A 
ATOM     21  C   UNL     1       2.223   4.898  18.783  0.00  0.00    +0.000 A 
ATOM     22  N   UNL     1       2.345   4.606  20.098  0.00  0.00    +0.000 NA
ENDBRANCH   1  21
BRANCH   3  23
ATOM     23  C   UNL     1       1.496   9.834  18.667  0.00  0.00    +0.000 C 
BRANCH  23  24
ATOM     24  N   UNL     1       0.143   9.717  19.197  0.00  0.00    +0.000 N 
ATOM     25  H   UNL     1      -0.316   8.830  19.010  0.00  0.00    +0.000 HD
BRANCH  24  26
ATOM     26  C   UNL     1      -0.198  10.267  20.434  0.00  0.00    +0.000 A 
ATOM     27  C   UNL     1      -0.906  11.470  20.564  0.00  0.00    +0.000 A 
ATOM     28  C   UNL     1      -1.308  11.948  21.818  0.00  0.00    +0.000 A 
ATOM     29  C   UNL     1      -1.016  11.224  22.970  0.00  0.00    +0.000 A 
ATOM     30  C   UNL     1      -0.328  10.022  22.859  0.00  0.00    +0.000 A 
ATOM     31  F   UNL     1      -0.045   9.325  23.969  0.00  0.00    +0.000 F 
ATOM     32  C   UNL     1       0.065   9.545  21.611  0.00  0.00    +0.000 A 
ATOM     33  F   UNL     1       0.730   8.379  21.531  0.00  0.00    +0.000 F 
ENDBRANCH  24  26
ENDBRANCH  23  24
ENDBRANCH   3  23
TORSDOF 5
ENDMDL
MODEL 8
REMARK VINA RESULT:      -9.1      3.777      8.354
REMARK  Name = 
REMARK  6 active torsions:
REMARK  status: ('A' for Active; 'I' for Inactive)
REMARK    1  A    between atoms: C_1  and  C_2
REMARK    2  A    between atoms: C_6  and  C_7
REMARK    3  A    between atoms: C_9  and  C_10
REMARK    4  A    between atoms: C_10  and  N_11
REMARK    5  A    between atoms: N_11  and  C_12
REMARK    6  A    between atoms: C_21  and  C_22
REMARK                            x       y       z     vdW  Elec       q    Type
REMARK                         _______ _______ _______ _____ _____    ______ ____
ROOT
ATOM      1  C   UNL     1       2.478   6.442  18.978  0.00  0.00    +0.000 A 
ATOM      2  N   UNL     1       1.581   7.474  19.163  0.00  0.00    +0.000 N 
ATOM      3  C   UNL     1       2.037   8.580  18.489  0.00  0.00    +0.000 A 
ATOM      4  N   UNL     1       3.148   8.302  17.839  0.00  0.00    +0.000 NA
ATOM      5  C   UNL     1       3.418   6.992  18.129  0.00  0.00    +0.000 A 
ATOM      6  H   UNL     1       0.745   7.434  19.727  0.00  0.00    +0.000 HD
ENDROOT
BRANCH   5   7
ATOM      7  C   UNL     1       4.534   6.344  17.535  0.00  0.00    +0.000 A 
ATOM      8  C   UNL     1       5.613   5.822  18.380  0.00  0.00    +0.000 A 
ATOM      9  C   UNL     1       6.710   5.237  17.863  0.00  0.00    +0.000 A 
ATOM     10  C   UNL     1       6.836   5.118  16.454  0.00  0.00    +0.000 A 
ATOM     11  N   UNL     1       7.787   4.623  15.691  0.00  0.00    +0.000 NA
ATOM     12  C   UNL     1       7.297   4.816  14.438  0.00  0.00    +0.000 A 
ATOM     13  N   UNL     1       6.096   5.395  14.358  0.00  0.00    +0.000 NA
ATOM     14  N   UNL     1       5.789   5.602  15.665  0.00  0.00    +0.000 N 
ATOM     15  C   UNL     1       4.655   6.200  16.201  0.00  0.00    +0.000 A 
ENDBRANCH   5   7
BRANCH   1  21
ATOM     16  C   UNL     1       3.008   1.700  18.473  0.00  0.00    +0.000 C 
ATOM     17  C   UNL     1       2.645   2.848  19.370  0.00  0.00    +0.000 A 
ATOM     18  C   UNL     1       2.363   2.635  20.714  0.00  0.00    +0.000 A 
ATOM     19  C   UNL     1       2.058   3.728  21.517  0.00  0.00    +0.000 A 
ATOM     20  C   UNL     1       2.057   5.003  20.963  0.00  0.00    +0.000 A 
ATOM     21  C   UNL     1       2.362   5.140  19.617  0.00  0.00    +0.000 A 
ATOM     22  N   UNL     1       2.645   4.087  18.816  0.00  0.00    +0.000 NA
ENDBRANCH   1  21
BRANCH   3  23
ATOM     23  C   UNL     1       1.319   9.895  18.520  0.00  0.00    +0.000 C 
BRANCH  23  24
ATOM     24  N   UNL     1      -0.004   9.820  19.129  0.00  0.00    +0.000 N 
ATOM     25  H   UNL     1      -0.467   8.920  19.040  0.00  0.00    +0.000 HD
BRANCH  24  26
ATOM     26  C   UNL     1      -0.282  10.469  20.334  0.00  0.00    +0.000 A 
ATOM     27  C   UNL     1      -0.758  11.787  20.396  0.00  0.00    +0.000 A 
ATOM     28  C   UNL     1      -1.110  12.377  21.617  0.00  0.00    +0.000 A 
ATOM     29  C   UNL     1      -1.000  11.655  22.802  0.00  0.00    +0.000 A 
ATOM     30  C   UNL     1      -0.545  10.343  22.756  0.00  0.00    +0.000 A 
ATOM     31  F   UNL     1      -0.438   9.648  23.898  0.00  0.00    +0.000 F 
ATOM     32  C   UNL     1      -0.202   9.756  21.542  0.00  0.00    +0.000 A 
ATOM     33  F   UNL     1       0.237   8.485  21.525  0.00  0.00    +0.000 F 
ENDBRANCH  24  26
ENDBRANCH  23  24
ENDBRANCH   3  23
TORSDOF 5
ENDMDL
MODEL 9
REMARK VINA RESULT:      -9.0      4.278      8.124
REMARK  Name = 
REMARK  6 active torsions:
REMARK  status: ('A' for Active; 'I' for Inactive)
REMARK    1  A    between atoms: C_1  and  C_2
REMARK    2  A    between atoms: C_6  and  C_7
REMARK    3  A    between atoms: C_9  and  C_10
REMARK    4  A    between atoms: C_10  and  N_11
REMARK    5  A    between atoms: N_11  and  C_12
REMARK    6  A    between atoms: C_21  and  C_22
REMARK                            x       y       z     vdW  Elec       q    Type
REMARK                         _______ _______ _______ _____ _____    ______ ____
ROOT
ATOM      1  C   UNL     1       3.697   7.335  17.597  0.00  0.00    +0.000 A 
ATOM      2  N   UNL     1       3.489   8.690  17.445  0.00  0.00    +0.000 N 
ATOM      3  C   UNL     1       2.283   9.018  18.014  0.00  0.00    +0.000 A 
ATOM      4  N   UNL     1       1.729   7.960  18.569  0.00  0.00    +0.000 NA
ATOM      5  C   UNL     1       2.594   6.928  18.323  0.00  0.00    +0.000 A 
ATOM      6  H   UNL     1       4.106   9.331  16.967  0.00  0.00    +0.000 HD
ENDROOT
BRANCH   5   7
ATOM      7  C   UNL     1       2.326   5.632  18.841  0.00  0.00    +0.000 A 
ATOM      8  C   UNL     1       1.848   4.572  17.948  0.00  0.00    +0.000 A 
ATOM      9  C   UNL     1       1.542   3.340  18.397  0.00  0.00    +0.000 A 
ATOM     10  C   UNL     1       1.682   3.049  19.780  0.00  0.00    +0.000 A 
ATOM     11  N   UNL     1       1.439   1.964  20.483  0.00  0.00    +0.000 NA
ATOM     12  C   UNL     1       1.777   2.343  21.744  0.00  0.00    +0.000 A 
ATOM     13  N   UNL     1       2.222   3.594  21.884  0.00  0.00    +0.000 NA
ATOM     14  N   UNL     1       2.158   4.066  20.612  0.00  0.00    +0.000 N 
ATOM     15  C   UNL     1       2.480   5.334  20.145  0.00  0.00    +0.000 A 
ENDBRANCH   5   7
BRANCH   1  21
ATOM     16  C   UNL     1       7.850   5.122  18.531  0.00  0.00    +0.000 C 
ATOM     17  C   UNL     1       6.832   5.529  17.506  0.00  0.00    +0.000 A 
ATOM     18  C   UNL     1       6.952   5.114  16.185  0.00  0.00    +0.000 A 
ATOM     19  C   UNL     1       5.973   5.491  15.272  0.00  0.00    +0.000 A 
ATOM     20  C   UNL     1       4.895   6.255  15.703  0.00  0.00    +0.000 A 
ATOM     21  C   UNL     1       4.834   6.619  17.041  0.00  0.00    +0.000 A 
ATOM     22  N   UNL     1       5.786   6.277  17.939  0.00  0.00    +0.000 NA
ENDBRANCH   1  21
BRANCH   3  23
ATOM     23  C   UNL     1       1.731  10.410  17.984  0.00  0.00    +0.000 C 
BRANCH  23  24
ATOM     24  N   UNL     1       0.645  10.625  18.934  0.00  0.00    +0.000 N 
ATOM     25  H   UNL     1       0.869  11.245  19.708  0.00  0.00    +0.000 HD
BRANCH  24  26
ATOM     26  C   UNL     1      -0.680  10.730  18.505  0.00  0.00    +0.000 A 
ATOM     27  C   UNL     1      -1.228   9.900  17.518  0.00  0.00    +0.000 A 
ATOM     28  C   UNL     1      -2.584   9.973  17.174  0.00  0.00    +0.000 A 
ATOM     29  C   UNL     1      -3.423  10.876  17.821  0.00  0.00    +0.000 A 
ATOM     30  C   UNL     1      -2.899  11.696  18.814  0.00  0.00    +0.000 A 
ATOM     31  F   UNL     1      -3.706  12.566  19.437  0.00  0.00    +0.000 F 
ATOM     32  C   UNL     1      -1.553  11.617  19.159  0.00  0.00    +0.000 A 
ATOM     33  F   UNL     1      -1.071  12.422  20.121  0.00  0.00    +0.000 F 
ENDBRANCH  24  26
ENDBRANCH  23  24
ENDBRANCH   3  23
TORSDOF 5
ENDMDL
