MODEL 1
REMARK VINA RESULT:      -7.7      0.000      0.000
REMARK  Name = 
REMARK  8 active torsions:
REMARK  status: ('A' for Active; 'I' for Inactive)
REMARK    1  A    between atoms: C_1  and  C_2
REMARK    2  A    between atoms: C_2  and  C_3
REMARK    3  A    between atoms: C_3  and  C_4
REMARK    4  A    between atoms: C_11  and  O_12
REMARK    5  A    between atoms: O_12  and  C_13
REMARK    6  A    between atoms: C_13  and  C_14
REMARK    7  A    between atoms: C_14  and  N_15
REMARK    8  A    between atoms: C_24  and  C_25
REMARK                            x       y       z     vdW  Elec       q    Type
REMARK                         _______ _______ _______ _____ _____    ______ ____
ROOT
ATOM      1  C   UNL     1       2.649   3.949  19.061  0.00  0.00    +0.000 A 
ATOM      2  C   UNL     1       2.817   2.614  19.127  0.00  0.00    +0.000 A 
ATOM      3  C   UNL     1       3.713   1.842  18.273  0.00  0.00    +0.000 A 
ATOM      4  O   UNL     1       3.799   0.625  18.362  0.00  0.00    +0.000 OA
ATOM      5  O   UNL     1       4.438   2.574  17.374  0.00  0.00    +0.000 OA
ATOM      6  C   UNL     1       4.317   3.970  17.270  0.00  0.00    +0.000 A 
ATOM      7  C   UNL     1       3.428   4.747  18.066  0.00  0.00    +0.000 A 
ATOM      8  C   UNL     1       3.390   6.162  17.815  0.00  0.00    +0.000 A 
ATOM      9  C   UNL     1       4.303   6.751  16.902  0.00  0.00    +0.000 A 
ATOM     10  C   UNL     1       5.111   5.914  16.156  0.00  0.00    +0.000 A 
ATOM     11  O   UNL     1       5.968   6.309  15.177  0.00  0.00    +0.000 OA
ATOM     12  C   UNL     1       6.522   5.175  14.674  0.00  0.00    +0.000 A 
ATOM     13  C   UNL     1       6.051   4.064  15.326  0.00  0.00    +0.000 A 
ATOM     14  C   UNL     1       5.132   4.546  16.292  0.00  0.00    +0.000 A 
ENDROOT
BRANCH  12  15
ATOM     15  C   UNL     1       7.430   5.321  13.603  0.00  0.00    +0.000 C 
ATOM     16  N   UNL     1       8.181   5.422  12.727  0.00  0.00    +0.000 NA
ENDBRANCH  12  15
BRANCH   1  17
ATOM     17  C   UNL     1       1.627   4.540  19.988  0.00  0.00    +0.000 C 
BRANCH  17  19
ATOM     18  C   UNL     1       1.284   2.829  21.763  0.00  0.00    +0.000 C 
ATOM     19  C   UNL     1       1.839   4.217  21.474  0.00  0.00    +0.000 C 
ENDBRANCH  17  19
ENDBRANCH   1  17
BRANCH   8  20
ATOM     20  O   UNL     1       2.443   6.991  18.430  0.00  0.00    +0.000 OA
BRANCH  20  21
ATOM     21  C   UNL     1       2.535   8.387  18.063  0.00  0.00    +0.000 C 
BRANCH  21  22
ATOM     22  C   UNL     1       1.228   9.208  18.010  0.00  0.00    +0.000 C 
BRANCH  22  23
ATOM     23  N   UNL     1       0.717   9.886  19.202  0.00  0.00    +0.000 NA
ATOM     24  C   UNL     1       0.982   9.188  20.468  0.00  0.00    +0.000 C 
ATOM     25  C   UNL     1       0.227   9.897  21.598  0.00  0.00    +0.000 C 
ATOM     26  O   UNL     1       0.704  11.240  21.750  0.00  0.00    +0.000 OA
ATOM     27  C   UNL     1       0.543  11.985  20.533  0.00  0.00    +0.000 C 
ATOM     28  C   UNL     1       1.164  11.281  19.310  0.00  0.00    +0.000 C 
ENDBRANCH  22  23
ENDBRANCH  21  22
ENDBRANCH  20  21
ENDBRANCH   8  20
TORSDOF 7
ENDMDL
MODEL 2
REMARK VINA RESULT:      -7.6      1.089      1.154
REMARK  Name = 
REMARK  8 active torsions:
REMARK  status: ('A' for Active; 'I' for Inactive)
REMARK    1  A    between atoms: C_1  and  C_2
REMARK    2  A    between atoms: C_2  and  C_3
REMARK    3  A    between atoms: C_3  and  C_4
REMARK    4  A    between atoms: C_11  and  O_12
REMARK    5  A    between atoms: O_12  and  C_13
REMARK    6  A    between atoms: C_13  and  C_14
REMARK    7  A    between atoms: C_14  and  N_15
REMARK    8  A    between atoms: C_24  and  C_25
REMARK                            x       y       z     vdW  Elec       q    Type
REMARK                         _______ _______ _______ _____ _____    ______ ____
ROOT
ATOM      1  C   UNL     1       3.160   4.487  19.973  0.00  0.00    +0.000 A 
ATOM      2  C   UNL     1       3.656   3.313  20.414  0.00  0.00    +0.000 A 
ATOM      3  C   UNL     1       4.731   2.568  19.771  0.00  0.00    +0.000 A 
ATOM      4  O   UNL     1       5.118   1.490  20.204  0.00  0.00    +0.000 OA
ATOM      5  O   UNL     1       5.266   3.155  18.658  0.00  0.00    +0.000 OA
ATOM      6  C   UNL     1       4.802   4.385  18.161  0.00  0.00    +0.000 A 
ATOM      7  C   UNL     1       3.732   5.120  18.747  0.00  0.00    +0.000 A 
ATOM      8  C   UNL     1       3.346   6.344  18.099  0.00  0.00    +0.000 A 
ATOM      9  C   UNL     1       4.099   6.842  17.004  0.00  0.00    +0.000 A 
ATOM     10  C   UNL     1       5.104   6.046  16.487  0.00  0.00    +0.000 A 
ATOM     11  O   UNL     1       5.852   6.331  15.388  0.00  0.00    +0.000 OA
ATOM     12  C   UNL     1       6.681   5.270  15.204  0.00  0.00    +0.000 A 
ATOM     13  C   UNL     1       6.491   4.321  16.177  0.00  0.00    +0.000 A 
ATOM     14  C   UNL     1       5.464   4.827  17.013  0.00  0.00    +0.000 A 
ENDROOT
BRANCH  12  15
ATOM     15  C   UNL     1       7.543   5.311  14.087  0.00  0.00    +0.000 C 
ATOM     16  N   UNL     1       8.248   5.363  13.170  0.00  0.00    +0.000 NA
ENDBRANCH  12  15
BRANCH   1  17
ATOM     17  C   UNL     1       2.006   5.056  20.746  0.00  0.00    +0.000 C 
BRANCH  17  19
ATOM     18  C   UNL     1       0.795   3.408  19.329  0.00  0.00    +0.000 C 
ATOM     19  C   UNL     1       0.664   4.346  20.521  0.00  0.00    +0.000 C 
ENDBRANCH  17  19
ENDBRANCH   1  17
BRANCH   8  20
ATOM     20  O   UNL     1       2.211   7.060  18.501  0.00  0.00    +0.000 OA
BRANCH  20  21
ATOM     21  C   UNL     1       2.332   8.497  18.383  0.00  0.00    +0.000 C 
BRANCH  21  22
ATOM     22  C   UNL     1       1.046   9.343  18.506  0.00  0.00    +0.000 C 
BRANCH  22  23
ATOM     23  N   UNL     1       0.482   9.669  19.817  0.00  0.00    +0.000 NA
ATOM     24  C   UNL     1       1.024   8.880  20.932  0.00  0.00    +0.000 C 
ATOM     25  C   UNL     1       0.212   9.179  22.198  0.00  0.00    +0.000 C 
ATOM     26  O   UNL     1       0.342  10.561  22.557  0.00  0.00    +0.000 OA
ATOM     27  C   UNL     1      -0.107  11.415  21.493  0.00  0.00    +0.000 C 
ATOM     28  C   UNL     1       0.566  11.098  20.143  0.00  0.00    +0.000 C 
ENDBRANCH  22  23
ENDBRANCH  21  22
ENDBRANCH  20  21
ENDBRANCH   8  20
TORSDOF 7
ENDMDL
MODEL 3
REMARK VINA RESULT:      -7.5      1.047      1.263
REMARK  Name = 
REMARK  8 active torsions:
REMARK  status: ('A' for Active; 'I' for Inactive)
REMARK    1  A    between atoms: C_1  and  C_2
REMARK    2  A    between atoms: C_2  and  C_3
REMARK    3  A    between atoms: C_3  and  C_4
REMARK    4  A    between atoms: C_11  and  O_12
REMARK    5  A    between atoms: O_12  and  C_13
REMARK    6  A    between atoms: C_13  and  C_14
REMARK    7  A    between atoms: C_14  and  N_15
REMARK    8  A    between atoms: C_24  and  C_25
REMARK                            x       y       z     vdW  Elec       q    Type
REMARK                         _______ _______ _______ _____ _____    ______ ____
ROOT
ATOM      1  C   UNL     1       3.008   4.175  19.288  0.00  0.00    +0.000 A 
ATOM      2  C   UNL     1       3.038   2.829  19.355  0.00  0.00    +0.000 A 
ATOM      3  C   UNL     1       3.736   1.962  18.413  0.00  0.00    +0.000 A 
ATOM      4  O   UNL     1       3.701   0.742  18.511  0.00  0.00    +0.000 OA
ATOM      5  O   UNL     1       4.421   2.607  17.422  0.00  0.00    +0.000 OA
ATOM      6  C   UNL     1       4.440   4.007  17.310  0.00  0.00    +0.000 A 
ATOM      7  C   UNL     1       3.742   4.880  18.193  0.00  0.00    +0.000 A 
ATOM      8  C   UNL     1       3.826   6.290  17.925  0.00  0.00    +0.000 A 
ATOM      9  C   UNL     1       4.681   6.772  16.900  0.00  0.00    +0.000 A 
ATOM     10  C   UNL     1       5.297   5.850  16.076  0.00  0.00    +0.000 A 
ATOM     11  O   UNL     1       6.067   6.146  14.995  0.00  0.00    +0.000 OA
ATOM     12  C   UNL     1       6.431   4.957  14.448  0.00  0.00    +0.000 A 
ATOM     13  C   UNL     1       5.926   3.905  15.170  0.00  0.00    +0.000 A 
ATOM     14  C   UNL     1       5.188   4.488  16.232  0.00  0.00    +0.000 A 
ENDROOT
BRANCH  12  15
ATOM     15  C   UNL     1       7.213   4.999  13.274  0.00  0.00    +0.000 C 
ATOM     16  N   UNL     1       7.849   5.016  12.306  0.00  0.00    +0.000 NA
ENDBRANCH  12  15
BRANCH   1  17
ATOM     17  C   UNL     1       2.175   4.876  20.321  0.00  0.00    +0.000 C 
BRANCH  17  19
ATOM     18  C   UNL     1       1.303   2.997  21.699  0.00  0.00    +0.000 C 
ATOM     19  C   UNL     1       0.910   4.122  20.752  0.00  0.00    +0.000 C 
ENDBRANCH  17  19
ENDBRANCH   1  17
BRANCH   8  20
ATOM     20  O   UNL     1       3.056   7.218  18.636  0.00  0.00    +0.000 OA
BRANCH  20  21
ATOM     21  C   UNL     1       2.066   7.913  17.842  0.00  0.00    +0.000 C 
BRANCH  21  22
ATOM     22  C   UNL     1       1.995   9.451  17.957  0.00  0.00    +0.000 C 
BRANCH  22  23
ATOM     23  N   UNL     1       0.905  10.101  18.687  0.00  0.00    +0.000 NA
ATOM     24  C   UNL     1       1.179  11.486  19.096  0.00  0.00    +0.000 C 
ATOM     25  C   UNL     1       0.049  11.970  20.013  0.00  0.00    +0.000 C 
ATOM     26  O   UNL     1      -1.198  11.977  19.306  0.00  0.00    +0.000 OA
ATOM     27  C   UNL     1      -1.517  10.668  18.810  0.00  0.00    +0.000 C 
ATOM     28  C   UNL     1      -0.379  10.045  17.978  0.00  0.00    +0.000 C 
ENDBRANCH  22  23
ENDBRANCH  21  22
ENDBRANCH  20  21
ENDBRANCH   8  20
TORSDOF 7
ENDMDL
MODEL 4
REMARK VINA RESULT:      -7.4      0.795      1.272
REMARK  Name = 
REMARK  8 active torsions:
REMARK  status: ('A' for Active; 'I' for Inactive)
REMARK    1  A    between atoms: C_1  and  C_2
REMARK    2  A    between atoms: C_2  and  C_3
REMARK    3  A    between atoms: C_3  and  C_4
REMARK    4  A    between atoms: C_11  and  O_12
REMARK    5  A    between atoms: O_12  and  C_13
REMARK    6  A    between atoms: C_13  and  C_14
REMARK    7  A    between atoms: C_14  and  N_15
REMARK    8  A    between atoms: C_24  and  C_25
REMARK                            x       y       z     vdW  Elec       q    Type
REMARK                         _______ _______ _______ _____ _____    ______ ____
ROOT
ATOM      1  C   UNL     1       2.447   4.193  19.060  0.00  0.00    +0.000 A 
ATOM      2  C   UNL     1       2.591   2.859  19.186  0.00  0.00    +0.000 A 
ATOM      3  C   UNL     1       3.504   2.040  18.396  0.00  0.00    +0.000 A 
ATOM      4  O   UNL     1       3.567   0.826  18.537  0.00  0.00    +0.000 OA
ATOM      5  O   UNL     1       4.272   2.724  17.496  0.00  0.00    +0.000 OA
ATOM      6  C   UNL     1       4.178   4.116  17.332  0.00  0.00    +0.000 A 
ATOM      7  C   UNL     1       3.273   4.938  18.063  0.00  0.00    +0.000 A 
ATOM      8  C   UNL     1       3.267   6.342  17.754  0.00  0.00    +0.000 A 
ATOM      9  C   UNL     1       4.222   6.880  16.852  0.00  0.00    +0.000 A 
ATOM     10  C   UNL     1       5.042   6.002  16.170  0.00  0.00    +0.000 A 
ATOM     11  O   UNL     1       5.939   6.344  15.207  0.00  0.00    +0.000 OA
ATOM     12  C   UNL     1       6.493   5.183  14.770  0.00  0.00    +0.000 A 
ATOM     13  C   UNL     1       5.981   4.106  15.449  0.00  0.00    +0.000 A 
ATOM     14  C   UNL     1       5.036   4.640  16.362  0.00  0.00    +0.000 A 
ENDROOT
BRANCH  12  15
ATOM     15  C   UNL     1       7.440   5.271  13.728  0.00  0.00    +0.000 C 
ATOM     16  N   UNL     1       8.218   5.325  12.872  0.00  0.00    +0.000 NA
ENDBRANCH  12  15
BRANCH   1  17
ATOM     17  C   UNL     1       1.402   4.835  19.925  0.00  0.00    +0.000 C 
BRANCH  17  19
ATOM     18  C   UNL     1       1.296   6.984  21.176  0.00  0.00    +0.000 C 
ATOM     19  C   UNL     1       1.949   5.610  21.132  0.00  0.00    +0.000 C 
ENDBRANCH  17  19
ENDBRANCH   1  17
BRANCH   8  20
ATOM     20  O   UNL     1       2.313   7.209  18.301  0.00  0.00    +0.000 OA
BRANCH  20  21
ATOM     21  C   UNL     1       2.327   8.547  17.751  0.00  0.00    +0.000 C 
BRANCH  21  22
ATOM     22  C   UNL     1       1.097   9.445  18.002  0.00  0.00    +0.000 C 
BRANCH  22  23
ATOM     23  N   UNL     1       0.957  10.196  19.251  0.00  0.00    +0.000 NA
ATOM     24  C   UNL     1       1.293  11.623  19.153  0.00  0.00    +0.000 C 
ATOM     25  C   UNL     1       1.297  12.235  20.559  0.00  0.00    +0.000 C 
ATOM     26  O   UNL     1      -0.010  12.149  21.142  0.00  0.00    +0.000 OA
ATOM     27  C   UNL     1      -0.451  10.785  21.220  0.00  0.00    +0.000 C 
ATOM     28  C   UNL     1      -0.366  10.046  19.870  0.00  0.00    +0.000 C 
ENDBRANCH  22  23
ENDBRANCH  21  22
ENDBRANCH  20  21
ENDBRANCH   8  20
TORSDOF 7
ENDMDL
MODEL 5
REMARK VINA RESULT:      -7.4      0.904      1.331
REMARK  Name = 
REMARK  8 active torsions:
REMARK  status: ('A' for Active; 'I' for Inactive)
REMARK    1  A    between atoms: C_1  and  C_2
REMARK    2  A    between atoms: C_2  and  C_3
REMARK    3  A    between atoms: C_3  and  C_4
REMARK    4  A    between atoms: C_11  and  O_12
REMARK    5  A    between atoms: O_12  and  C_13
REMARK    6  A    between atoms: C_13  and  C_14
REMARK    7  A    between atoms: C_14  and  N_15
REMARK    8  A    between atoms: C_24  and  C_25
REMARK                            x       y       z     vdW  Elec       q    Type
REMARK                         _______ _______ _______ _____ _____    ______ ____
ROOT
ATOM      1  C   UNL     1       2.427   3.655  18.951  0.00  0.00    +0.000 A 
ATOM      2  C   UNL     1       2.707   2.340  19.038  0.00  0.00    +0.000 A 
ATOM      3  C   UNL     1       3.751   1.658  18.281  0.00  0.00    +0.000 A 
ATOM      4  O   UNL     1       3.938   0.453  18.382  0.00  0.00    +0.000 OA
ATOM      5  O   UNL     1       4.494   2.458  17.458  0.00  0.00    +0.000 OA
ATOM      6  C   UNL     1       4.259   3.837  17.339  0.00  0.00    +0.000 A 
ATOM      7  C   UNL     1       3.227   4.526  18.038  0.00  0.00    +0.000 A 
ATOM      8  C   UNL     1       3.087   5.934  17.780  0.00  0.00    +0.000 A 
ATOM      9  C   UNL     1       4.031   6.608  16.963  0.00  0.00    +0.000 A 
ATOM     10  C   UNL     1       4.982   5.852  16.305  0.00  0.00    +0.000 A 
ATOM     11  O   UNL     1       5.894   6.329  15.416  0.00  0.00    +0.000 OA
ATOM     12  C   UNL     1       6.597   5.253  14.975  0.00  0.00    +0.000 A 
ATOM     13  C   UNL     1       6.165   4.100  15.580  0.00  0.00    +0.000 A 
ATOM     14  C   UNL     1       5.113   4.491  16.447  0.00  0.00    +0.000 A 
ENDROOT
BRANCH  12  15
ATOM     15  C   UNL     1       7.592   5.487  14.001  0.00  0.00    +0.000 C 
ATOM     16  N   UNL     1       8.406   5.697  13.206  0.00  0.00    +0.000 NA
ENDBRANCH  12  15
BRANCH   1  17
ATOM     17  C   UNL     1       1.267   4.145  19.768  0.00  0.00    +0.000 C 
BRANCH  17  19
ATOM     18  C   UNL     1       2.133   3.325  21.953  0.00  0.00    +0.000 C 
ATOM     19  C   UNL     1       0.942   3.295  21.004  0.00  0.00    +0.000 C 
ENDBRANCH  17  19
ENDBRANCH   1  17
BRANCH   8  20
ATOM     20  O   UNL     1       2.012   6.670  18.294  0.00  0.00    +0.000 OA
BRANCH  20  21
ATOM     21  C   UNL     1       2.385   7.710  19.227  0.00  0.00    +0.000 C 
BRANCH  21  22
ATOM     22  C   UNL     1       1.669   7.745  20.595  0.00  0.00    +0.000 C 
BRANCH  22  23
ATOM     23  N   UNL     1       1.127   8.996  21.128  0.00  0.00    +0.000 NA
ATOM     24  C   UNL     1       0.877  10.037  20.121  0.00  0.00    +0.000 C 
ATOM     25  C   UNL     1       0.507  11.344  20.832  0.00  0.00    +0.000 C 
ATOM     26  O   UNL     1      -0.707  11.178  21.577  0.00  0.00    +0.000 OA
ATOM     27  C   UNL     1      -0.576  10.130  22.549  0.00  0.00    +0.000 C 
ATOM     28  C   UNL     1      -0.080   8.803  21.941  0.00  0.00    +0.000 C 
ENDBRANCH  22  23
ENDBRANCH  21  22
ENDBRANCH  20  21
ENDBRANCH   8  20
TORSDOF 7
ENDMDL
MODEL 6
REMARK VINA RESULT:      -7.4      3.797      9.156
REMARK  Name = 
REMARK  8 active torsions:
REMARK  status: ('A' for Active; 'I' for Inactive)
REMARK    1  A    between atoms: C_1  and  C_2
REMARK    2  A    between atoms: C_2  and  C_3
REMARK    3  A    between atoms: C_3  and  C_4
REMARK    4  A    between atoms: C_11  and  O_12
REMARK    5  A    between atoms: O_12  and  C_13
REMARK    6  A    between atoms: C_13  and  C_14
REMARK    7  A    between atoms: C_14  and  N_15
REMARK    8  A    between atoms: C_24  and  C_25
REMARK                            x       y       z     vdW  Elec       q    Type
REMARK                         _______ _______ _______ _____ _____    ______ ____
ROOT
ATOM      1  C   UNL     1      -1.608  11.828  20.887  0.00  0.00    +0.000 A 
ATOM      2  C   UNL     1      -2.633  12.634  21.228  0.00  0.00    +0.000 A 
ATOM      3  C   UNL     1      -3.758  12.964  20.362  0.00  0.00    +0.000 A 
ATOM      4  O   UNL     1      -4.645  13.728  20.720  0.00  0.00    +0.000 OA
ATOM      5  O   UNL     1      -3.746  12.366  19.133  0.00  0.00    +0.000 OA
ATOM      6  C   UNL     1      -2.713  11.504  18.727  0.00  0.00    +0.000 A 
ATOM      7  C   UNL     1      -1.585  11.187  19.537  0.00  0.00    +0.000 A 
ATOM      8  C   UNL     1      -0.591  10.319  18.966  0.00  0.00    +0.000 A 
ATOM      9  C   UNL     1      -0.813   9.713  17.703  0.00  0.00    +0.000 A 
ATOM     10  C   UNL     1      -1.924  10.100  16.978  0.00  0.00    +0.000 A 
ATOM     11  O   UNL     1      -2.230   9.689  15.719  0.00  0.00    +0.000 OA
ATOM     12  C   UNL     1      -3.369  10.342  15.369  0.00  0.00    +0.000 A 
ATOM     13  C   UNL     1      -3.808  11.149  16.388  0.00  0.00    +0.000 A 
ATOM     14  C   UNL     1      -2.867  10.990  17.437  0.00  0.00    +0.000 A 
ENDROOT
BRANCH  12  15
ATOM     15  C   UNL     1      -3.874  10.109  14.072  0.00  0.00    +0.000 C 
ATOM     16  N   UNL     1      -4.278   9.932  13.001  0.00  0.00    +0.000 NA
ENDBRANCH  12  15
BRANCH   1  17
ATOM     17  C   UNL     1      -0.515  11.671  21.904  0.00  0.00    +0.000 C 
BRANCH  17  19
ATOM     18  C   UNL     1      -0.198   9.469  23.019  0.00  0.00    +0.000 C 
ATOM     19  C   UNL     1      -0.887  10.822  23.127  0.00  0.00    +0.000 C 
ENDBRANCH  17  19
ENDBRANCH   1  17
BRANCH   8  20
ATOM     20  O   UNL     1       0.625  10.072  19.614  0.00  0.00    +0.000 OA
BRANCH  20  21
ATOM     21  C   UNL     1       1.457   9.075  18.975  0.00  0.00    +0.000 C 
BRANCH  21  22
ATOM     22  C   UNL     1       1.998   7.919  19.845  0.00  0.00    +0.000 C 
BRANCH  22  23
ATOM     23  N   UNL     1       2.187   6.581  19.282  0.00  0.00    +0.000 NA
ATOM     24  C   UNL     1       3.435   6.403  18.527  0.00  0.00    +0.000 C 
ATOM     25  C   UNL     1       3.410   5.035  17.833  0.00  0.00    +0.000 C 
ATOM     26  O   UNL     1       3.353   3.985  18.807  0.00  0.00    +0.000 OA
ATOM     27  C   UNL     1       2.191   4.116  19.639  0.00  0.00    +0.000 C 
ATOM     28  C   UNL     1       2.063   5.512  20.281  0.00  0.00    +0.000 C 
ENDBRANCH  22  23
ENDBRANCH  21  22
ENDBRANCH  20  21
ENDBRANCH   8  20
TORSDOF 7
ENDMDL
MODEL 7
REMARK VINA RESULT:      -7.3      1.978      7.380
REMARK  Name = 
REMARK  8 active torsions:
REMARK  status: ('A' for Active; 'I' for Inactive)
REMARK    1  A    between atoms: C_1  and  C_2
REMARK    2  A    between atoms: C_2  and  C_3
REMARK    3  A    between atoms: C_3  and  C_4
REMARK    4  A    between atoms: C_11  and  O_12
REMARK    5  A    between atoms: O_12  and  C_13
REMARK    6  A    between atoms: C_13  and  C_14
REMARK    7  A    between atoms: C_14  and  N_15
REMARK    8  A    between atoms: C_24  and  C_25
REMARK                            x       y       z     vdW  Elec       q    Type
REMARK                         _______ _______ _______ _____ _____    ______ ____
ROOT
ATOM      1  C   UNL     1       3.513   3.996  19.161  0.00  0.00    +0.000 A 
ATOM      2  C   UNL     1       3.152   3.327  20.273  0.00  0.00    +0.000 A 
ATOM      3  C   UNL     1       2.394   3.898  21.381  0.00  0.00    +0.000 A 
ATOM      4  O   UNL     1       2.123   3.245  22.380  0.00  0.00    +0.000 OA
ATOM      5  O   UNL     1       2.019   5.202  21.222  0.00  0.00    +0.000 OA
ATOM      6  C   UNL     1       2.352   5.946  20.077  0.00  0.00    +0.000 A 
ATOM      7  C   UNL     1       3.119   5.428  18.994  0.00  0.00    +0.000 A 
ATOM      8  C   UNL     1       3.411   6.325  17.909  0.00  0.00    +0.000 A 
ATOM      9  C   UNL     1       2.838   7.623  17.881  0.00  0.00    +0.000 A 
ATOM     10  C   UNL     1       2.130   8.048  18.989  0.00  0.00    +0.000 A 
ATOM     11  O   UNL     1       1.601   9.289  19.160  0.00  0.00    +0.000 OA
ATOM     12  C   UNL     1       1.036   9.296  20.396  0.00  0.00    +0.000 A 
ATOM     13  C   UNL     1       1.176   8.077  21.010  0.00  0.00    +0.000 A 
ATOM     14  C   UNL     1       1.888   7.264  20.092  0.00  0.00    +0.000 A 
ENDROOT
BRANCH  12  15
ATOM     15  C   UNL     1       0.445  10.503  20.829  0.00  0.00    +0.000 C 
ATOM     16  N   UNL     1      -0.056  11.484  21.185  0.00  0.00    +0.000 NA
ENDBRANCH  12  15
BRANCH   1  17
ATOM     17  C   UNL     1       4.350   3.240  18.170  0.00  0.00    +0.000 C 
BRANCH  17  19
ATOM     18  C   UNL     1       2.222   2.112  17.544  0.00  0.00    +0.000 C 
ATOM     19  C   UNL     1       3.728   1.931  17.665  0.00  0.00    +0.000 C 
ENDBRANCH  17  19
ENDBRANCH   1  17
BRANCH   8  20
ATOM     20  O   UNL     1       4.284   5.964  16.875  0.00  0.00    +0.000 OA
BRANCH  20  21
ATOM     21  C   UNL     1       5.636   6.453  17.030  0.00  0.00    +0.000 C 
BRANCH  21  22
ATOM     22  C   UNL     1       6.760   5.729  16.257  0.00  0.00    +0.000 C 
BRANCH  22  23
ATOM     23  N   UNL     1       6.572   5.321  14.864  0.00  0.00    +0.000 NA
ATOM     24  C   UNL     1       7.799   5.312  14.054  0.00  0.00    +0.000 C 
ATOM     25  C   UNL     1       7.429   5.065  12.587  0.00  0.00    +0.000 C 
ATOM     26  O   UNL     1       6.817   3.778  12.438  0.00  0.00    +0.000 OA
ATOM     27  C   UNL     1       5.637   3.671  13.248  0.00  0.00    +0.000 C 
ATOM     28  C   UNL     1       5.887   4.030  14.727  0.00  0.00    +0.000 C 
ENDBRANCH  22  23
ENDBRANCH  21  22
ENDBRANCH  20  21
ENDBRANCH   8  20
TORSDOF 7
ENDMDL
MODEL 8
REMARK VINA RESULT:      -7.3      2.011      2.920
REMARK  Name = 
REMARK  8 active torsions:
REMARK  status: ('A' for Active; 'I' for Inactive)
REMARK    1  A    between atoms: C_1  and  C_2
REMARK    2  A    between atoms: C_2  and  C_3
REMARK    3  A    between atoms: C_3  and  C_4
REMARK    4  A    between atoms: C_11  and  O_12
REMARK    5  A    between atoms: O_12  and  C_13
REMARK    6  A    between atoms: C_13  and  C_14
REMARK    7  A    between atoms: C_14  and  N_15
REMARK    8  A    between atoms: C_24  and  C_25
REMARK                            x       y       z     vdW  Elec       q    Type
REMARK                         _______ _______ _______ _____ _____    ______ ____
ROOT
ATOM      1  C   UNL     1       1.788   6.122  20.380  0.00  0.00    +0.000 A 
ATOM      2  C   UNL     1       1.958   4.934  20.995  0.00  0.00    +0.000 A 
ATOM      3  C   UNL     1       2.900   3.904  20.572  0.00  0.00    +0.000 A 
ATOM      4  O   UNL     1       2.986   2.832  21.155  0.00  0.00    +0.000 OA
ATOM      5  O   UNL     1       3.665   4.222  19.485  0.00  0.00    +0.000 OA
ATOM      6  C   UNL     1       3.544   5.450  18.814  0.00  0.00    +0.000 A 
ATOM      7  C   UNL     1       2.612   6.463  19.181  0.00  0.00    +0.000 A 
ATOM      8  C   UNL     1       2.581   7.651  18.372  0.00  0.00    +0.000 A 
ATOM      9  C   UNL     1       3.536   7.837  17.340  0.00  0.00    +0.000 A 
ATOM     10  C   UNL     1       4.384   6.789  17.038  0.00  0.00    +0.000 A 
ATOM     11  O   UNL     1       5.288   6.770  16.021  0.00  0.00    +0.000 OA
ATOM     12  C   UNL     1       5.872   5.544  16.052  0.00  0.00    +0.000 A 
ATOM     13  C   UNL     1       5.374   4.785  17.080  0.00  0.00    +0.000 A 
ATOM     14  C   UNL     1       4.405   5.597  17.723  0.00  0.00    +0.000 A 
ENDROOT
BRANCH  12  15
ATOM     15  C   UNL     1       6.832   5.262  15.056  0.00  0.00    +0.000 C 
ATOM     16  N   UNL     1       7.608   5.036  14.227  0.00  0.00    +0.000 NA
ENDBRANCH  12  15
BRANCH   1  17
ATOM     17  C   UNL     1       0.717   7.014  20.938  0.00  0.00    +0.000 C 
BRANCH  17  19
ATOM     18  C   UNL     1       0.042   9.072  22.164  0.00  0.00    +0.000 C 
ATOM     19  C   UNL     1       1.232   8.253  21.684  0.00  0.00    +0.000 C 
ENDBRANCH  17  19
ENDBRANCH   1  17
BRANCH   8  20
ATOM     20  O   UNL     1       1.600   8.634  18.552  0.00  0.00    +0.000 OA
BRANCH  20  21
ATOM     21  C   UNL     1       1.964   9.945  18.059  0.00  0.00    +0.000 C 
BRANCH  21  22
ATOM     22  C   UNL     1       1.262  11.172  18.680  0.00  0.00    +0.000 C 
BRANCH  22  23
ATOM     23  N   UNL     1      -0.182  11.169  18.922  0.00  0.00    +0.000 NA
ATOM     24  C   UNL     1      -0.748  12.478  19.275  0.00  0.00    +0.000 C 
ATOM     25  C   UNL     1      -2.212  12.294  19.693  0.00  0.00    +0.000 C 
ATOM     26  O   UNL     1      -2.982  11.784  18.597  0.00  0.00    +0.000 OA
ATOM     27  C   UNL     1      -2.458  10.528  18.140  0.00  0.00    +0.000 C 
ATOM     28  C   UNL     1      -0.952  10.585  17.817  0.00  0.00    +0.000 C 
ENDBRANCH  22  23
ENDBRANCH  21  22
ENDBRANCH  20  21
ENDBRANCH   8  20
TORSDOF 7
ENDMDL
MODEL 9
REMARK VINA RESULT:      -7.3      1.600      2.502
REMARK  Name = 
REMARK  8 active torsions:
REMARK  status: ('A' for Active; 'I' for Inactive)
REMARK    1  A    between atoms: C_1  and  C_2
REMARK    2  A    between atoms: C_2  and  C_3
REMARK    3  A    between atoms: C_3  and  C_4
REMARK    4  A    between atoms: C_11  and  O_12
REMARK    5  A    between atoms: O_12  and  C_13
REMARK    6  A    between atoms: C_13  and  C_14
REMARK    7  A    between atoms: C_14  and  N_15
REMARK    8  A    between atoms: C_24  and  C_25
REMARK                            x       y       z     vdW  Elec       q    Type
REMARK                         _______ _______ _______ _____ _____    ______ ____
ROOT
ATOM      1  C   UNL     1       1.859   5.948  20.385  0.00  0.00    +0.000 A 
ATOM      2  C   UNL     1       2.012   4.728  20.936  0.00  0.00    +0.000 A 
ATOM      3  C   UNL     1       2.933   3.705  20.453  0.00  0.00    +0.000 A 
ATOM      4  O   UNL     1       3.004   2.602  20.979  0.00  0.00    +0.000 OA
ATOM      5  O   UNL     1       3.698   4.066  19.380  0.00  0.00    +0.000 OA
ATOM      6  C   UNL     1       3.594   5.329  18.774  0.00  0.00    +0.000 A 
ATOM      7  C   UNL     1       2.682   6.337  19.200  0.00  0.00    +0.000 A 
ATOM      8  C   UNL     1       2.667   7.566  18.453  0.00  0.00    +0.000 A 
ATOM      9  C   UNL     1       3.619   7.789  17.426  0.00  0.00    +0.000 A 
ATOM     10  C   UNL     1       4.447   6.744  17.064  0.00  0.00    +0.000 A 
ATOM     11  O   UNL     1       5.344   6.762  16.042  0.00  0.00    +0.000 OA
ATOM     12  C   UNL     1       5.907   5.526  16.004  0.00  0.00    +0.000 A 
ATOM     13  C   UNL     1       5.401   4.723  16.995  0.00  0.00    +0.000 A 
ATOM     14  C   UNL     1       4.451   5.517  17.686  0.00  0.00    +0.000 A 
ENDROOT
BRANCH  12  15
ATOM     15  C   UNL     1       6.856   5.280  14.989  0.00  0.00    +0.000 C 
ATOM     16  N   UNL     1       7.642   5.096  14.159  0.00  0.00    +0.000 NA
ENDBRANCH  12  15
BRANCH   1  17
ATOM     17  C   UNL     1       0.808   6.829  20.996  0.00  0.00    +0.000 C 
BRANCH  17  19
ATOM     18  C   UNL     1       0.154   8.950  22.121  0.00  0.00    +0.000 C 
ATOM     19  C   UNL     1       1.330   8.145  21.587  0.00  0.00    +0.000 C 
ENDBRANCH  17  19
ENDBRANCH   1  17
BRANCH   8  20
ATOM     20  O   UNL     1       1.705   8.555  18.691  0.00  0.00    +0.000 OA
BRANCH  20  21
ATOM     21  C   UNL     1       1.752   9.674  17.774  0.00  0.00    +0.000 C 
BRANCH  21  22
ATOM     22  C   UNL     1       1.874  11.093  18.371  0.00  0.00    +0.000 C 
BRANCH  22  23
ATOM     23  N   UNL     1       0.744  11.717  19.062  0.00  0.00    +0.000 NA
ATOM     24  C   UNL     1      -0.518  10.970  18.976  0.00  0.00    +0.000 C 
ATOM     25  C   UNL     1      -1.648  11.825  19.562  0.00  0.00    +0.000 C 
ATOM     26  O   UNL     1      -1.406  12.086  20.951  0.00  0.00    +0.000 OA
ATOM     27  C   UNL     1      -0.153  12.762  21.137  0.00  0.00    +0.000 C 
ATOM     28  C   UNL     1       1.030  12.036  20.466  0.00  0.00    +0.000 C 
ENDBRANCH  22  23
ENDBRANCH  21  22
ENDBRANCH  20  21
ENDBRANCH   8  20
TORSDOF 7
ENDMDL
