MODEL 1
REMARK VINA RESULT:      -6.6      0.000      0.000
REMARK  Name = 
REMARK  9 active torsions:
REMARK  status: ('A' for Active; 'I' for Inactive)
REMARK    1  A    between atoms: C_1  and  O_2
REMARK    2  A    between atoms: O_2  and  C_3
REMARK    3  A    between atoms: C_3  and  C_4
REMARK    4  A    between atoms: C_4  and  N_5
REMARK    5  A    between atoms: N_5  and  C_6
REMARK    6  A    between atoms: C_6  and  C_7
REMARK    7  A    between atoms: N_11  and  C_12
REMARK    8  A    between atoms: C_13  and  C_15
REMARK    9  A    between atoms: N_20  and  C_21
REMARK                            x       y       z     vdW  Elec       q    Type
REMARK                         _______ _______ _______ _____ _____    ______ ____
ROOT
ATOM      1  N   UNL     1       3.812   5.907  18.132  0.00  0.00    +0.000 N 
ATOM      2  C   UNL     1       2.803   4.946  18.261  0.00  0.00    +0.000 C 
ATOM      3  O   UNL     1       1.714   5.129  17.707  0.00  0.00    +0.000 OA
ENDROOT
BRANCH   2   4
ATOM      4  C   UNL     1       3.053   3.667  19.121  0.00  0.00    +0.000 C 
ATOM      5  C   UNL     1       2.936   2.424  18.225  0.00  0.00    +0.000 C 
ATOM      6  O   UNL     1       1.595   2.204  17.761  0.00  0.00    +0.000 OA
ATOM      7  C   UNL     1       0.681   2.068  18.859  0.00  0.00    +0.000 C 
ATOM      8  C   UNL     1       0.746   3.241  19.853  0.00  0.00    +0.000 C 
ATOM      9  N   UNL     1       2.128   3.509  20.287  0.00  0.00    +0.000 NA
ATOM     10  C   UNL     1       2.204   4.593  21.253  0.00  0.00    +0.000 C 
ENDBRANCH   2   4
BRANCH   1  11
ATOM     11  C   UNL     1       3.461   7.205  17.516  0.00  0.00    +0.000 C 
BRANCH  11  12
ATOM     12  C   UNL     1       2.562   8.166  18.327  0.00  0.00    +0.000 C 
BRANCH  12  14
ATOM     13  C   UNL     1       0.816   9.718  18.121  0.00  0.00    +0.000 C 
ATOM     14  O   UNL     1       1.994   9.195  17.508  0.00  0.00    +0.000 OA
ENDBRANCH  12  14
ENDBRANCH  11  12
ENDBRANCH   1  11
BRANCH   1  15
ATOM     15  C   UNL     1       5.247   5.641  18.307  0.00  0.00    +0.000 C 
BRANCH  15  16
ATOM     16  C   UNL     1       5.974   5.352  17.026  0.00  0.00    +0.000 A 
ATOM     17  C   UNL     1       5.833   4.392  16.039  0.00  0.00    +0.000 A 
ATOM     18  C   UNL     1       6.868   4.630  15.123  0.00  0.00    +0.000 A 
ATOM     19  N   UNL     1       7.612   5.682  15.465  0.00  0.00    +0.000 NA
ATOM     20  N   UNL     1       7.042   6.123  16.602  0.00  0.00    +0.000 N 
ATOM     21  C   UNL     1       7.566   7.327  17.200  0.00  0.00    +0.000 C 
ENDBRANCH  15  16
ENDBRANCH   1  15
TORSDOF 6
ENDMDL
MODEL 2
REMARK VINA RESULT:      -6.3      2.114      5.088
REMARK  Name = 
REMARK  9 active torsions:
REMARK  status: ('A' for Active; 'I' for Inactive)
REMARK    1  A    between atoms: C_1  and  O_2
REMARK    2  A    between atoms: O_2  and  C_3
REMARK    3  A    between atoms: C_3  and  C_4
REMARK    4  A    between atoms: C_4  and  N_5
REMARK    5  A    between atoms: N_5  and  C_6
REMARK    6  A    between atoms: C_6  and  C_7
REMARK    7  A    between atoms: N_11  and  C_12
REMARK    8  A    between atoms: C_13  and  C_15
REMARK    9  A    between atoms: N_20  and  C_21
REMARK                            x       y       z     vdW  Elec       q    Type
REMARK                         _______ _______ _______ _____ _____    ______ ____
ROOT
ATOM      1  N   UNL     1       3.663   6.139  18.426  0.00  0.00    +0.000 N 
ATOM      2  C   UNL     1       4.708   6.070  17.498  0.00  0.00    +0.000 C 
ATOM      3  O   UNL     1       4.842   6.970  16.663  0.00  0.00    +0.000 OA
ENDROOT
BRANCH   2   4
ATOM      4  C   UNL     1       5.679   4.846  17.511  0.00  0.00    +0.000 C 
ATOM      5  C   UNL     1       7.119   5.342  17.303  0.00  0.00    +0.000 C 
ATOM      6  O   UNL     1       7.335   5.869  15.985  0.00  0.00    +0.000 OA
ATOM      7  C   UNL     1       7.034   4.892  14.979  0.00  0.00    +0.000 C 
ATOM      8  C   UNL     1       5.625   4.290  15.118  0.00  0.00    +0.000 C 
ATOM      9  N   UNL     1       5.376   3.799  16.485  0.00  0.00    +0.000 NA
ATOM     10  C   UNL     1       4.061   3.197  16.626  0.00  0.00    +0.000 C 
ENDBRANCH   2   4
BRANCH   1  11
ATOM     11  C   UNL     1       2.629   7.180  18.232  0.00  0.00    +0.000 C 
BRANCH  11  12
ATOM     12  C   UNL     1       2.109   7.919  19.486  0.00  0.00    +0.000 C 
BRANCH  12  14
ATOM     13  C   UNL     1       1.852   9.679  17.957  0.00  0.00    +0.000 C 
ATOM     14  O   UNL     1       1.343   9.081  19.150  0.00  0.00    +0.000 OA
ENDBRANCH  12  14
ENDBRANCH  11  12
ENDBRANCH   1  11
BRANCH   1  15
ATOM     15  C   UNL     1       3.648   5.447  19.722  0.00  0.00    +0.000 C 
BRANCH  15  16
ATOM     16  C   UNL     1       2.637   4.341  19.812  0.00  0.00    +0.000 A 
ATOM     17  C   UNL     1       1.258   4.294  19.717  0.00  0.00    +0.000 A 
ATOM     18  C   UNL     1       0.904   2.957  19.949  0.00  0.00    +0.000 A 
ATOM     19  N   UNL     1       1.969   2.182  20.151  0.00  0.00    +0.000 NA
ATOM     20  N   UNL     1       3.009   3.028  20.037  0.00  0.00    +0.000 N 
ATOM     21  C   UNL     1       4.342   2.480  20.121  0.00  0.00    +0.000 C 
ENDBRANCH  15  16
ENDBRANCH   1  15
TORSDOF 6
ENDMDL
MODEL 3
REMARK VINA RESULT:      -6.3      2.361      4.017
REMARK  Name = 
REMARK  9 active torsions:
REMARK  status: ('A' for Active; 'I' for Inactive)
REMARK    1  A    between atoms: C_1  and  O_2
REMARK    2  A    between atoms: O_2  and  C_3
REMARK    3  A    between atoms: C_3  and  C_4
REMARK    4  A    between atoms: C_4  and  N_5
REMARK    5  A    between atoms: N_5  and  C_6
REMARK    6  A    between atoms: C_6  and  C_7
REMARK    7  A    between atoms: N_11  and  C_12
REMARK    8  A    between atoms: C_13  and  C_15
REMARK    9  A    between atoms: N_20  and  C_21
REMARK                            x       y       z     vdW  Elec       q    Type
REMARK                         _______ _______ _______ _____ _____    ______ ____
ROOT
ATOM      1  N   UNL     1       5.325   4.438  16.811  0.00  0.00    +0.000 N 
ATOM      2  C   UNL     1       4.223   4.004  17.555  0.00  0.00    +0.000 C 
ATOM      3  O   UNL     1       3.222   3.577  16.971  0.00  0.00    +0.000 OA
ENDROOT
BRANCH   2   4
ATOM      4  C   UNL     1       4.257   4.087  19.115  0.00  0.00    +0.000 C 
ATOM      5  C   UNL     1       4.270   2.665  19.697  0.00  0.00    +0.000 C 
ATOM      6  O   UNL     1       3.036   1.967  19.471  0.00  0.00    +0.000 OA
ATOM      7  C   UNL     1       1.925   2.682  20.028  0.00  0.00    +0.000 C 
ATOM      8  C   UNL     1       1.839   4.142  19.549  0.00  0.00    +0.000 C 
ATOM      9  N   UNL     1       3.120   4.847  19.724  0.00  0.00    +0.000 NA
ATOM     10  C   UNL     1       3.048   6.238  19.307  0.00  0.00    +0.000 C 
ENDBRANCH   2   4
BRANCH   1  11
ATOM     11  C   UNL     1       5.166   4.568  15.346  0.00  0.00    +0.000 C 
BRANCH  11  12
ATOM     12  C   UNL     1       6.264   3.957  14.446  0.00  0.00    +0.000 C 
BRANCH  12  14
ATOM     13  C   UNL     1       6.773   3.721  12.169  0.00  0.00    +0.000 C 
ATOM     14  O   UNL     1       5.759   3.571  13.163  0.00  0.00    +0.000 OA
ENDBRANCH  12  14
ENDBRANCH  11  12
ENDBRANCH   1  11
BRANCH   1  15
ATOM     15  C   UNL     1       6.701   4.514  17.321  0.00  0.00    +0.000 C 
BRANCH  15  16
ATOM     16  C   UNL     1       7.190   5.914  17.550  0.00  0.00    +0.000 A 
ATOM     17  C   UNL     1       7.148   7.078  16.803  0.00  0.00    +0.000 A 
ATOM     18  C   UNL     1       7.837   8.041  17.555  0.00  0.00    +0.000 A 
ATOM     19  N   UNL     1       8.270   7.556  18.718  0.00  0.00    +0.000 NA
ATOM     20  N   UNL     1       7.848   6.278  18.712  0.00  0.00    +0.000 N 
ATOM     21  C   UNL     1       8.085   5.479  19.889  0.00  0.00    +0.000 C 
ENDBRANCH  15  16
ENDBRANCH   1  15
TORSDOF 6
ENDMDL
MODEL 4
REMARK VINA RESULT:      -6.2      2.334      5.714
REMARK  Name = 
REMARK  9 active torsions:
REMARK  status: ('A' for Active; 'I' for Inactive)
REMARK    1  A    between atoms: C_1  and  O_2
REMARK    2  A    between atoms: O_2  and  C_3
REMARK    3  A    between atoms: C_3  and  C_4
REMARK    4  A    between atoms: C_4  and  N_5
REMARK    5  A    between atoms: N_5  and  C_6
REMARK    6  A    between atoms: C_6  and  C_7
REMARK    7  A    between atoms: N_11  and  C_12
REMARK    8  A    between atoms: C_13  and  C_15
REMARK    9  A    between atoms: N_20  and  C_21
REMARK                            x       y       z     vdW  Elec       q    Type
REMARK                         _______ _______ _______ _____ _____    ______ ____
ROOT
ATOM      1  N   UNL     1       2.959   5.416  18.844  0.00  0.00    +0.000 N 
ATOM      2  C   UNL     1       3.739   5.317  17.687  0.00  0.00    +0.000 C 
ATOM      3  O   UNL     1       3.431   4.502  16.812  0.00  0.00    +0.000 OA
ENDROOT
BRANCH   2   4
ATOM      4  C   UNL     1       5.006   6.217  17.524  0.00  0.00    +0.000 C 
ATOM      5  C   UNL     1       5.133   6.649  16.054  0.00  0.00    +0.000 C 
ATOM      6  O   UNL     1       5.444   5.551  15.183  0.00  0.00    +0.000 OA
ATOM      7  C   UNL     1       6.660   4.902  15.579  0.00  0.00    +0.000 C 
ATOM      8  C   UNL     1       6.663   4.465  17.055  0.00  0.00    +0.000 C 
ATOM      9  N   UNL     1       6.288   5.574  17.950  0.00  0.00    +0.000 NA
ATOM     10  C   UNL     1       6.319   5.187  19.351  0.00  0.00    +0.000 C 
ENDBRANCH   2   4
BRANCH   1  11
ATOM     11  C   UNL     1       1.918   4.390  19.070  0.00  0.00    +0.000 C 
BRANCH  11  12
ATOM     12  C   UNL     1       1.187   4.396  20.432  0.00  0.00    +0.000 C 
BRANCH  12  14
ATOM     13  C   UNL     1       2.327   2.753  21.657  0.00  0.00    +0.000 C 
ATOM     14  O   UNL     1       1.102   3.086  21.006  0.00  0.00    +0.000 OA
ENDBRANCH  12  14
ENDBRANCH  11  12
ENDBRANCH   1  11
BRANCH   1  15
ATOM     15  C   UNL     1       2.901   6.599  19.714  0.00  0.00    +0.000 C 
BRANCH  15  16
ATOM     16  C   UNL     1       2.167   7.763  19.113  0.00  0.00    +0.000 A 
ATOM     17  C   UNL     1       2.057   8.267  17.829  0.00  0.00    +0.000 A 
ATOM     18  C   UNL     1       1.263   9.418  17.937  0.00  0.00    +0.000 A 
ATOM     19  N   UNL     1       0.858   9.635  19.188  0.00  0.00    +0.000 NA
ATOM     20  N   UNL     1       1.390   8.612  19.881  0.00  0.00    +0.000 N 
ATOM     21  C   UNL     1       1.066   8.501  21.283  0.00  0.00    +0.000 C 
ENDBRANCH  15  16
ENDBRANCH   1  15
TORSDOF 6
ENDMDL
MODEL 5
REMARK VINA RESULT:      -6.1      2.021      5.201
REMARK  Name = 
REMARK  9 active torsions:
REMARK  status: ('A' for Active; 'I' for Inactive)
REMARK    1  A    between atoms: C_1  and  O_2
REMARK    2  A    between atoms: O_2  and  C_3
REMARK    3  A    between atoms: C_3  and  C_4
REMARK    4  A    between atoms: C_4  and  N_5
REMARK    5  A    between atoms: N_5  and  C_6
REMARK    6  A    between atoms: C_6  and  C_7
REMARK    7  A    between atoms: N_11  and  C_12
REMARK    8  A    between atoms: C_13  and  C_15
REMARK    9  A    between atoms: N_20  and  C_21
REMARK                            x       y       z     vdW  Elec       q    Type
REMARK                         _______ _______ _______ _____ _____    ______ ____
ROOT
ATOM      1  N   UNL     1       2.853   5.949  17.760  0.00  0.00    +0.000 N 
ATOM      2  C   UNL     1       4.243   5.805  17.696  0.00  0.00    +0.000 C 
ATOM      3  O   UNL     1       4.967   6.788  17.884  0.00  0.00    +0.000 OA
ENDROOT
BRANCH   2   4
ATOM      4  C   UNL     1       4.865   4.412  17.362  0.00  0.00    +0.000 C 
ATOM      5  C   UNL     1       5.560   3.855  18.615  0.00  0.00    +0.000 C 
ATOM      6  O   UNL     1       6.723   4.612  18.981  0.00  0.00    +0.000 OA
ATOM      7  C   UNL     1       7.675   4.655  17.908  0.00  0.00    +0.000 C 
ATOM      8  C   UNL     1       7.074   5.156  16.583  0.00  0.00    +0.000 C 
ATOM      9  N   UNL     1       5.846   4.421  16.231  0.00  0.00    +0.000 NA
ATOM     10  C   UNL     1       5.284   4.860  14.964  0.00  0.00    +0.000 C 
ENDBRANCH   2   4
BRANCH   1  11
ATOM     11  C   UNL     1       2.299   7.318  17.839  0.00  0.00    +0.000 C 
BRANCH  11  12
ATOM     12  C   UNL     1       2.072   7.922  19.244  0.00  0.00    +0.000 C 
BRANCH  12  14
ATOM     13  C   UNL     1       1.775   9.875  17.978  0.00  0.00    +0.000 C 
ATOM     14  O   UNL     1       1.424   9.198  19.186  0.00  0.00    +0.000 OA
ENDBRANCH  12  14
ENDBRANCH  11  12
ENDBRANCH   1  11
BRANCH   1  15
ATOM     15  C   UNL     1       1.911   4.854  18.029  0.00  0.00    +0.000 C 
BRANCH  15  16
ATOM     16  C   UNL     1       2.019   4.282  19.413  0.00  0.00    +0.000 A 
ATOM     17  C   UNL     1       1.920   4.821  20.683  0.00  0.00    +0.000 A 
ATOM     18  C   UNL     1       2.178   3.765  21.569  0.00  0.00    +0.000 A 
ATOM     19  N   UNL     1       2.398   2.615  20.931  0.00  0.00    +0.000 NA
ATOM     20  N   UNL     1       2.272   2.939  19.631  0.00  0.00    +0.000 N 
ATOM     21  C   UNL     1       2.370   1.881  18.655  0.00  0.00    +0.000 C 
ENDBRANCH  15  16
ENDBRANCH   1  15
TORSDOF 6
ENDMDL
MODEL 6
REMARK VINA RESULT:      -6.0      2.202      5.826
REMARK  Name = 
REMARK  9 active torsions:
REMARK  status: ('A' for Active; 'I' for Inactive)
REMARK    1  A    between atoms: C_1  and  O_2
REMARK    2  A    between atoms: O_2  and  C_3
REMARK    3  A    between atoms: C_3  and  C_4
REMARK    4  A    between atoms: C_4  and  N_5
REMARK    5  A    between atoms: N_5  and  C_6
REMARK    6  A    between atoms: C_6  and  C_7
REMARK    7  A    between atoms: N_11  and  C_12
REMARK    8  A    between atoms: C_13  and  C_15
REMARK    9  A    between atoms: N_20  and  C_21
REMARK                            x       y       z     vdW  Elec       q    Type
REMARK                         _______ _______ _______ _____ _____    ______ ____
ROOT
ATOM      1  N   UNL     1       3.045   5.453  18.834  0.00  0.00    +0.000 N 
ATOM      2  C   UNL     1       3.811   5.336  17.670  0.00  0.00    +0.000 C 
ATOM      3  O   UNL     1       3.493   4.508  16.810  0.00  0.00    +0.000 OA
ENDROOT
BRANCH   2   4
ATOM      4  C   UNL     1       5.075   6.234  17.478  0.00  0.00    +0.000 C 
ATOM      5  C   UNL     1       5.187   6.639  15.999  0.00  0.00    +0.000 C 
ATOM      6  O   UNL     1       5.490   5.526  15.145  0.00  0.00    +0.000 OA
ATOM      7  C   UNL     1       6.711   4.885  15.541  0.00  0.00    +0.000 C 
ATOM      8  C   UNL     1       6.730   4.476  17.024  0.00  0.00    +0.000 C 
ATOM      9  N   UNL     1       6.362   5.600  17.902  0.00  0.00    +0.000 NA
ATOM     10  C   UNL     1       6.406   5.239  19.310  0.00  0.00    +0.000 C 
ENDBRANCH   2   4
BRANCH   1  11
ATOM     11  C   UNL     1       2.006   4.429  19.088  0.00  0.00    +0.000 C 
BRANCH  11  12
ATOM     12  C   UNL     1       2.441   3.125  19.795  0.00  0.00    +0.000 C 
BRANCH  12  14
ATOM     13  C   UNL     1       3.526   1.503  18.494  0.00  0.00    +0.000 C 
ATOM     14  O   UNL     1       2.262   1.973  18.962  0.00  0.00    +0.000 OA
ENDBRANCH  12  14
ENDBRANCH  11  12
ENDBRANCH   1  11
BRANCH   1  15
ATOM     15  C   UNL     1       2.996   6.648  19.687  0.00  0.00    +0.000 C 
BRANCH  15  16
ATOM     16  C   UNL     1       2.206   7.783  19.102  0.00  0.00    +0.000 A 
ATOM     17  C   UNL     1       2.063   8.292  17.823  0.00  0.00    +0.000 A 
ATOM     18  C   UNL     1       1.219   9.406  17.947  0.00  0.00    +0.000 A 
ATOM     19  N   UNL     1       0.816   9.595  19.203  0.00  0.00    +0.000 NA
ATOM     20  N   UNL     1       1.399   8.591  19.883  0.00  0.00    +0.000 N 
ATOM     21  C   UNL     1       1.092   8.454  21.286  0.00  0.00    +0.000 C 
ENDBRANCH  15  16
ENDBRANCH   1  15
TORSDOF 6
ENDMDL
MODEL 7
REMARK VINA RESULT:      -6.0      1.494      1.977
REMARK  Name = 
REMARK  9 active torsions:
REMARK  status: ('A' for Active; 'I' for Inactive)
REMARK    1  A    between atoms: C_1  and  O_2
REMARK    2  A    between atoms: O_2  and  C_3
REMARK    3  A    between atoms: C_3  and  C_4
REMARK    4  A    between atoms: C_4  and  N_5
REMARK    5  A    between atoms: N_5  and  C_6
REMARK    6  A    between atoms: C_6  and  C_7
REMARK    7  A    between atoms: N_11  and  C_12
REMARK    8  A    between atoms: C_13  and  C_15
REMARK    9  A    between atoms: N_20  and  C_21
REMARK                            x       y       z     vdW  Elec       q    Type
REMARK                         _______ _______ _______ _____ _____    ______ ____
ROOT
ATOM      1  N   UNL     1       3.798   4.363  17.332  0.00  0.00    +0.000 N 
ATOM      2  C   UNL     1       2.620   3.952  17.964  0.00  0.00    +0.000 C 
ATOM      3  O   UNL     1       1.653   4.718  18.010  0.00  0.00    +0.000 OA
ENDROOT
BRANCH   2   4
ATOM      4  C   UNL     1       2.547   2.539  18.628  0.00  0.00    +0.000 C 
ATOM      5  C   UNL     1       1.074   2.149  18.825  0.00  0.00    +0.000 C 
ATOM      6  O   UNL     1       0.415   2.964  19.806  0.00  0.00    +0.000 OA
ATOM      7  C   UNL     1       1.083   2.895  21.073  0.00  0.00    +0.000 C 
ATOM      8  C   UNL     1       2.585   3.223  20.988  0.00  0.00    +0.000 C 
ATOM      9  N   UNL     1       3.255   2.431  19.943  0.00  0.00    +0.000 NA
ATOM     10  C   UNL     1       4.681   2.705  19.871  0.00  0.00    +0.000 C 
ENDBRANCH   2   4
BRANCH   1  11
ATOM     11  C   UNL     1       3.911   5.783  16.930  0.00  0.00    +0.000 C 
BRANCH  11  12
ATOM     12  C   UNL     1       4.215   6.821  18.034  0.00  0.00    +0.000 C 
BRANCH  12  14
ATOM     13  C   UNL     1       2.525   8.430  17.800  0.00  0.00    +0.000 C 
ATOM     14  O   UNL     1       3.021   7.364  18.610  0.00  0.00    +0.000 OA
ENDBRANCH  12  14
ENDBRANCH  11  12
ENDBRANCH   1  11
BRANCH   1  15
ATOM     15  C   UNL     1       4.817   3.455  16.789  0.00  0.00    +0.000 C 
BRANCH  15  16
ATOM     16  C   UNL     1       5.733   4.095  15.786  0.00  0.00    +0.000 A 
ATOM     17  C   UNL     1       5.660   4.307  14.420  0.00  0.00    +0.000 A 
ATOM     18  C   UNL     1       6.873   4.912  14.061  0.00  0.00    +0.000 A 
ATOM     19  N   UNL     1       7.668   5.109  15.113  0.00  0.00    +0.000 NA
ATOM     20  N   UNL     1       6.953   4.635  16.150  0.00  0.00    +0.000 N 
ATOM     21  C   UNL     1       7.505   4.778  17.476  0.00  0.00    +0.000 C 
ENDBRANCH  15  16
ENDBRANCH   1  15
TORSDOF 6
ENDMDL
MODEL 8
REMARK VINA RESULT:      -6.0      1.563      2.125
REMARK  Name = 
REMARK  9 active torsions:
REMARK  status: ('A' for Active; 'I' for Inactive)
REMARK    1  A    between atoms: C_1  and  O_2
REMARK    2  A    between atoms: O_2  and  C_3
REMARK    3  A    between atoms: C_3  and  C_4
REMARK    4  A    between atoms: C_4  and  N_5
REMARK    5  A    between atoms: N_5  and  C_6
REMARK    6  A    between atoms: C_6  and  C_7
REMARK    7  A    between atoms: N_11  and  C_12
REMARK    8  A    between atoms: C_13  and  C_15
REMARK    9  A    between atoms: N_20  and  C_21
REMARK                            x       y       z     vdW  Elec       q    Type
REMARK                         _______ _______ _______ _____ _____    ______ ____
ROOT
ATOM      1  N   UNL     1       3.533   5.312  18.236  0.00  0.00    +0.000 N 
ATOM      2  C   UNL     1       2.573   4.712  19.058  0.00  0.00    +0.000 C 
ATOM      3  O   UNL     1       1.874   5.416  19.794  0.00  0.00    +0.000 OA
ENDROOT
BRANCH   2   4
ATOM      4  C   UNL     1       2.410   3.158  19.057  0.00  0.00    +0.000 C 
ATOM      5  C   UNL     1       0.928   2.804  19.258  0.00  0.00    +0.000 C 
ATOM      6  O   UNL     1       0.454   3.144  20.570  0.00  0.00    +0.000 OA
ATOM      7  C   UNL     1       1.226   2.490  21.587  0.00  0.00    +0.000 C 
ATOM      8  C   UNL     1       2.739   2.737  21.455  0.00  0.00    +0.000 C 
ATOM      9  N   UNL     1       3.221   2.445  20.094  0.00  0.00    +0.000 NA
ATOM     10  C   UNL     1       4.655   2.642  19.961  0.00  0.00    +0.000 C 
ENDBRANCH   2   4
BRANCH   1  11
ATOM     11  C   UNL     1       3.821   6.749  18.440  0.00  0.00    +0.000 C 
BRANCH  11  12
ATOM     12  C   UNL     1       3.212   7.753  17.435  0.00  0.00    +0.000 C 
BRANCH  12  14
ATOM     13  C   UNL     1       1.844   9.587  17.953  0.00  0.00    +0.000 C 
ATOM     14  O   UNL     1       1.894   8.167  17.816  0.00  0.00    +0.000 OA
ENDBRANCH  12  14
ENDBRANCH  11  12
ENDBRANCH   1  11
BRANCH   1  15
ATOM     15  C   UNL     1       4.082   4.709  17.014  0.00  0.00    +0.000 C 
BRANCH  15  16
ATOM     16  C   UNL     1       5.580   4.626  16.995  0.00  0.00    +0.000 A 
ATOM     17  C   UNL     1       6.555   4.656  17.977  0.00  0.00    +0.000 A 
ATOM     18  C   UNL     1       7.782   4.590  17.301  0.00  0.00    +0.000 A 
ATOM     19  N   UNL     1       7.625   4.494  15.981  0.00  0.00    +0.000 NA
ATOM     20  N   UNL     1       6.290   4.489  15.814  0.00  0.00    +0.000 N 
ATOM     21  C   UNL     1       5.773   4.307  14.480  0.00  0.00    +0.000 C 
ENDBRANCH  15  16
ENDBRANCH   1  15
TORSDOF 6
ENDMDL
MODEL 9
REMARK VINA RESULT:      -5.9      2.409      5.889
REMARK  Name = 
REMARK  9 active torsions:
REMARK  status: ('A' for Active; 'I' for Inactive)
REMARK    1  A    between atoms: C_1  and  O_2
REMARK    2  A    between atoms: O_2  and  C_3
REMARK    3  A    between atoms: C_3  and  C_4
REMARK    4  A    between atoms: C_4  and  N_5
REMARK    5  A    between atoms: N_5  and  C_6
REMARK    6  A    between atoms: C_6  and  C_7
REMARK    7  A    between atoms: N_11  and  C_12
REMARK    8  A    between atoms: C_13  and  C_15
REMARK    9  A    between atoms: N_20  and  C_21
REMARK                            x       y       z     vdW  Elec       q    Type
REMARK                         _______ _______ _______ _____ _____    ______ ____
ROOT
ATOM      1  N   UNL     1       3.450   5.405  19.040  0.00  0.00    +0.000 N 
ATOM      2  C   UNL     1       4.728   5.031  18.612  0.00  0.00    +0.000 C 
ATOM      3  O   UNL     1       5.146   3.896  18.858  0.00  0.00    +0.000 OA
ENDROOT
BRANCH   2   4
ATOM      4  C   UNL     1       5.624   6.060  17.849  0.00  0.00    +0.000 C 
ATOM      5  C   UNL     1       5.220   6.081  16.367  0.00  0.00    +0.000 C 
ATOM      6  O   UNL     1       5.544   4.857  15.691  0.00  0.00    +0.000 OA
ATOM      7  C   UNL     1       6.946   4.568  15.781  0.00  0.00    +0.000 C 
ATOM      8  C   UNL     1       7.474   4.568  17.227  0.00  0.00    +0.000 C 
ATOM      9  N   UNL     1       7.094   5.797  17.944  0.00  0.00    +0.000 NA
ATOM     10  C   UNL     1       7.614   5.828  19.302  0.00  0.00    +0.000 C 
ENDBRANCH   2   4
BRANCH   1  11
ATOM     11  C   UNL     1       2.732   4.495  19.960  0.00  0.00    +0.000 C 
BRANCH  11  12
ATOM     12  C   UNL     1       1.457   3.799  19.432  0.00  0.00    +0.000 C 
BRANCH  12  14
ATOM     13  C   UNL     1       1.630   2.859  21.574  0.00  0.00    +0.000 C 
ATOM     14  O   UNL     1       1.034   2.728  20.283  0.00  0.00    +0.000 OA
ENDBRANCH  12  14
ENDBRANCH  11  12
ENDBRANCH   1  11
BRANCH   1  15
ATOM     15  C   UNL     1       2.651   6.485  18.446  0.00  0.00    +0.000 C 
BRANCH  15  16
ATOM     16  C   UNL     1       2.062   7.433  19.450  0.00  0.00    +0.000 A 
ATOM     17  C   UNL     1       1.756   7.335  20.796  0.00  0.00    +0.000 A 
ATOM     18  C   UNL     1       1.171   8.561  21.146  0.00  0.00    +0.000 A 
ATOM     19  N   UNL     1       1.125   9.408  20.118  0.00  0.00    +0.000 NA
ATOM     20  N   UNL     1       1.692   8.722  19.109  0.00  0.00    +0.000 N 
ATOM     21  C   UNL     1       1.877   9.398  17.848  0.00  0.00    +0.000 C 
ENDBRANCH  15  16
ENDBRANCH   1  15
TORSDOF 6
ENDMDL
