MODEL 1
REMARK VINA RESULT:      -7.4      0.000      0.000
REMARK  Name = 
REMARK  9 active torsions:
REMARK  status: ('A' for Active; 'I' for Inactive)
REMARK    1  A    between atoms: C_2  and  C_4
REMARK    2  A    between atoms: C_7  and  O_8
REMARK    3  A    between atoms: O_8  and  C_9
REMARK    4  A    between atoms: C_9  and  C_10
REMARK    5  A    between atoms: N_12  and  C_13
REMARK    6  A    between atoms: C_16  and  C_17
REMARK    7  A    between atoms: C_17  and  O_18
REMARK    8  A    between atoms: C_19  and  O_20
REMARK    9  A    between atoms: C_21  and  O_22
REMARK                            x       y       z     vdW  Elec       q    Type
REMARK                         _______ _______ _______ _____ _____    ______ ____
ROOT
ATOM      1  C   UNL     1       8.388   8.893  18.289  0.00  0.00    +0.000 A 
ATOM      2  C   UNL     1       8.375   9.976  17.433  0.00  0.00    +0.000 A 
ATOM      3  N   UNL     1       9.104  10.920  18.086  0.00  0.00    +0.000 N 
ATOM      4  N   UNL     1       9.537  10.466  19.276  0.00  0.00    +0.000 NA
ATOM      5  N   UNL     1       9.100   9.222  19.413  0.00  0.00    +0.000 NA
ENDROOT
BRANCH   3   6
ATOM      6  C   UNL     1       9.533  12.232  17.647  0.00  0.00    +0.000 C 
ATOM      7  C   UNL     1       8.627  13.319  18.234  0.00  0.00    +0.000 C 
ATOM      8  O   UNL     1       8.990  14.622  17.743  0.00  0.00    +0.000 OA
ATOM      9  C   UNL     1      10.328  14.997  18.132  0.00  0.00    +0.000 C 
ATOM     10  C   UNL     1      11.328  14.007  17.525  0.00  0.00    +0.000 C 
ATOM     11  C   UNL     1      10.998  12.570  17.965  0.00  0.00    +0.000 C 
BRANCH  10  12
ATOM     12  O   UNL     1      11.287  14.057  16.086  0.00  0.00    +0.000 OA
ATOM     13  H   UNL     1      10.389  13.801  15.799  0.00  0.00    +0.000 HD
ENDBRANCH  10  12
BRANCH  11  14
ATOM     14  O   UNL     1      11.893  11.673  17.301  0.00  0.00    +0.000 OA
ATOM     15  H   UNL     1      12.653  11.529  17.902  0.00  0.00    +0.000 HD
ENDBRANCH  11  14
BRANCH   9  16
ATOM     16  C   UNL     1      10.569  16.428  17.635  0.00  0.00    +0.000 C 
BRANCH  16  17
ATOM     17  O   UNL     1      10.199  16.530  16.258  0.00  0.00    +0.000 OA
ATOM     18  H   UNL     1       9.421  15.945  16.161  0.00  0.00    +0.000 HD
ENDBRANCH  16  17
ENDBRANCH   9  16
ENDBRANCH   3   6
BRANCH   1  19
ATOM     19  C   UNL     1       7.804   7.537  18.112  0.00  0.00    +0.000 C 
BRANCH  19  20
ATOM     20  O   UNL     1       6.831   7.569  17.067  0.00  0.00    +0.000 OA
BRANCH  20  24
ATOM     21  C   UNL     1       3.935   4.560  17.337  0.00  0.00    +0.000 A 
ATOM     22  C   UNL     1       5.284   4.292  17.060  0.00  0.00    +0.000 A 
ATOM     23  C   UNL     1       6.218   5.325  16.980  0.00  0.00    +0.000 A 
ATOM     24  C   UNL     1       5.821   6.650  17.157  0.00  0.00    +0.000 A 
ATOM     25  C   UNL     1       4.488   6.937  17.448  0.00  0.00    +0.000 A 
ATOM     26  C   UNL     1       3.556   5.899  17.534  0.00  0.00    +0.000 A 
BRANCH  21  28
ATOM     27  O   UNL     1       3.370   2.270  17.650  0.00  0.00    +0.000 OA
ATOM     28  C   UNL     1       2.920   3.437  17.429  0.00  0.00    +0.000 C 
ATOM     29  O   UNL     1       1.698   3.753  17.278  0.00  0.00    +0.000 OA
ENDBRANCH  21  28
ENDBRANCH  20  24
ENDBRANCH  19  20
ENDBRANCH   1  19
TORSDOF 9
ENDMDL
MODEL 2
REMARK VINA RESULT:      -7.4      2.765     10.383
REMARK  Name = 
REMARK  9 active torsions:
REMARK  status: ('A' for Active; 'I' for Inactive)
REMARK    1  A    between atoms: C_2  and  C_4
REMARK    2  A    between atoms: C_7  and  O_8
REMARK    3  A    between atoms: O_8  and  C_9
REMARK    4  A    between atoms: C_9  and  C_10
REMARK    5  A    between atoms: N_12  and  C_13
REMARK    6  A    between atoms: C_16  and  C_17
REMARK    7  A    between atoms: C_17  and  O_18
REMARK    8  A    between atoms: C_19  and  O_20
REMARK    9  A    between atoms: C_21  and  O_22
REMARK                            x       y       z     vdW  Elec       q    Type
REMARK                         _______ _______ _______ _____ _____    ______ ____
ROOT
ATOM      1  C   UNL     1       7.193   6.641  18.153  0.00  0.00    +0.000 A 
ATOM      2  C   UNL     1       5.888   6.262  17.909  0.00  0.00    +0.000 A 
ATOM      3  N   UNL     1       5.634   5.326  18.863  0.00  0.00    +0.000 N 
ATOM      4  N   UNL     1       6.709   5.124  19.647  0.00  0.00    +0.000 NA
ATOM      5  N   UNL     1       7.674   5.924  19.217  0.00  0.00    +0.000 NA
ENDROOT
BRANCH   3   6
ATOM      6  C   UNL     1       4.401   4.639  19.186  0.00  0.00    +0.000 C 
ATOM      7  C   UNL     1       3.230   5.233  18.397  0.00  0.00    +0.000 C 
ATOM      8  O   UNL     1       1.985   4.615  18.767  0.00  0.00    +0.000 OA
ATOM      9  C   UNL     1       1.966   3.204  18.463  0.00  0.00    +0.000 C 
ATOM     10  C   UNL     1       3.060   2.497  19.270  0.00  0.00    +0.000 C 
ATOM     11  C   UNL     1       4.436   3.117  18.969  0.00  0.00    +0.000 C 
BRANCH  10  12
ATOM     12  O   UNL     1       2.813   2.619  20.683  0.00  0.00    +0.000 OA
ATOM     13  H   UNL     1       2.878   3.564  20.923  0.00  0.00    +0.000 HD
ENDBRANCH  10  12
BRANCH  11  14
ATOM     14  O   UNL     1       5.410   2.496  19.811  0.00  0.00    +0.000 OA
ATOM     15  H   UNL     1       4.983   1.712  20.215  0.00  0.00    +0.000 HD
ENDBRANCH  11  14
BRANCH   9  16
ATOM     16  C   UNL     1       0.569   2.676  18.813  0.00  0.00    +0.000 C 
BRANCH  16  17
ATOM     17  O   UNL     1       0.206   3.104  20.128  0.00  0.00    +0.000 OA
ATOM     18  H   UNL     1       0.214   2.289  20.669  0.00  0.00    +0.000 HD
ENDBRANCH  16  17
ENDBRANCH   9  16
ENDBRANCH   3   6
BRANCH   1  19
ATOM     19  C   UNL     1       8.023   7.671  17.474  0.00  0.00    +0.000 C 
BRANCH  19  20
ATOM     20  O   UNL     1       7.431   8.959  17.656  0.00  0.00    +0.000 OA
BRANCH  20  24
ATOM     21  C   UNL     1      10.084  11.772  19.257  0.00  0.00    +0.000 A 
ATOM     22  C   UNL     1       9.937  10.480  19.786  0.00  0.00    +0.000 A 
ATOM     23  C   UNL     1       9.042   9.572  19.221  0.00  0.00    +0.000 A 
ATOM     24  C   UNL     1       8.261   9.940  18.126  0.00  0.00    +0.000 A 
ATOM     25  C   UNL     1       8.401  11.213  17.577  0.00  0.00    +0.000 A 
ATOM     26  C   UNL     1       9.304  12.119  18.141  0.00  0.00    +0.000 A 
BRANCH  21  28
ATOM     27  O   UNL     1      10.597  13.571  20.727  0.00  0.00    +0.000 OA
ATOM     28  C   UNL     1      11.060  12.758  19.868  0.00  0.00    +0.000 C 
ATOM     29  O   UNL     1      12.267  12.692  19.474  0.00  0.00    +0.000 OA
ENDBRANCH  21  28
ENDBRANCH  20  24
ENDBRANCH  19  20
ENDBRANCH   1  19
TORSDOF 9
ENDMDL
MODEL 3
REMARK VINA RESULT:      -7.4      2.504     10.447
REMARK  Name = 
REMARK  9 active torsions:
REMARK  status: ('A' for Active; 'I' for Inactive)
REMARK    1  A    between atoms: C_2  and  C_4
REMARK    2  A    between atoms: C_7  and  O_8
REMARK    3  A    between atoms: O_8  and  C_9
REMARK    4  A    between atoms: C_9  and  C_10
REMARK    5  A    between atoms: N_12  and  C_13
REMARK    6  A    between atoms: C_16  and  C_17
REMARK    7  A    between atoms: C_17  and  O_18
REMARK    8  A    between atoms: C_19  and  O_20
REMARK    9  A    between atoms: C_21  and  O_22
REMARK                            x       y       z     vdW  Elec       q    Type
REMARK                         _______ _______ _______ _____ _____    ______ ____
ROOT
ATOM      1  C   UNL     1       7.009   6.822  18.151  0.00  0.00    +0.000 A 
ATOM      2  C   UNL     1       5.675   6.501  18.002  0.00  0.00    +0.000 A 
ATOM      3  N   UNL     1       5.513   5.397  18.780  0.00  0.00    +0.000 N 
ATOM      4  N   UNL     1       6.669   5.043  19.371  0.00  0.00    +0.000 NA
ATOM      5  N   UNL     1       7.596   5.910  18.989  0.00  0.00    +0.000 NA
ENDROOT
BRANCH   3   6
ATOM      6  C   UNL     1       4.310   4.663  19.114  0.00  0.00    +0.000 C 
ATOM      7  C   UNL     1       3.094   5.273  18.410  0.00  0.00    +0.000 C 
ATOM      8  O   UNL     1       1.879   4.605  18.794  0.00  0.00    +0.000 OA
ATOM      9  C   UNL     1       1.878   3.213  18.411  0.00  0.00    +0.000 C 
ATOM     10  C   UNL     1       3.021   2.489  19.130  0.00  0.00    +0.000 C 
ATOM     11  C   UNL     1       4.369   3.158  18.809  0.00  0.00    +0.000 C 
BRANCH  10  12
ATOM     12  O   UNL     1       2.831   2.525  20.558  0.00  0.00    +0.000 OA
ATOM     13  H   UNL     1       3.374   3.253  20.918  0.00  0.00    +0.000 HD
ENDBRANCH  10  12
BRANCH  11  14
ATOM     14  O   UNL     1       5.392   2.514  19.574  0.00  0.00    +0.000 OA
ATOM     15  H   UNL     1       5.630   3.121  20.304  0.00  0.00    +0.000 HD
ENDBRANCH  11  14
BRANCH   9  16
ATOM     16  C   UNL     1       0.509   2.633  18.787  0.00  0.00    +0.000 C 
BRANCH  16  17
ATOM     17  O   UNL     1       0.142   3.071  20.098  0.00  0.00    +0.000 OA
ATOM     18  H   UNL     1       0.848   3.694  20.363  0.00  0.00    +0.000 HD
ENDBRANCH  16  17
ENDBRANCH   9  16
ENDBRANCH   3   6
BRANCH   1  19
ATOM     19  C   UNL     1       7.779   7.963  17.587  0.00  0.00    +0.000 C 
BRANCH  19  20
ATOM     20  O   UNL     1       8.687   8.460  18.572  0.00  0.00    +0.000 OA
BRANCH  20  24
ATOM     21  C   UNL     1       9.303  12.583  18.939  0.00  0.00    +0.000 A 
ATOM     22  C   UNL     1       9.696  11.666  19.926  0.00  0.00    +0.000 A 
ATOM     23  C   UNL     1       9.473  10.299  19.764  0.00  0.00    +0.000 A 
ATOM     24  C   UNL     1       8.836   9.819  18.619  0.00  0.00    +0.000 A 
ATOM     25  C   UNL     1       8.451  10.712  17.620  0.00  0.00    +0.000 A 
ATOM     26  C   UNL     1       8.682  12.080  17.782  0.00  0.00    +0.000 A 
BRANCH  21  28
ATOM     27  O   UNL     1       8.921  14.853  18.336  0.00  0.00    +0.000 OA
ATOM     28  C   UNL     1       9.549  14.069  19.113  0.00  0.00    +0.000 C 
ATOM     29  O   UNL     1      10.364  14.414  20.026  0.00  0.00    +0.000 OA
ENDBRANCH  21  28
ENDBRANCH  20  24
ENDBRANCH  19  20
ENDBRANCH   1  19
TORSDOF 9
ENDMDL
MODEL 4
REMARK VINA RESULT:      -7.3      2.434     10.398
REMARK  Name = 
REMARK  9 active torsions:
REMARK  status: ('A' for Active; 'I' for Inactive)
REMARK    1  A    between atoms: C_2  and  C_4
REMARK    2  A    between atoms: C_7  and  O_8
REMARK    3  A    between atoms: O_8  and  C_9
REMARK    4  A    between atoms: C_9  and  C_10
REMARK    5  A    between atoms: N_12  and  C_13
REMARK    6  A    between atoms: C_16  and  C_17
REMARK    7  A    between atoms: C_17  and  O_18
REMARK    8  A    between atoms: C_19  and  O_20
REMARK    9  A    between atoms: C_21  and  O_22
REMARK                            x       y       z     vdW  Elec       q    Type
REMARK                         _______ _______ _______ _____ _____    ______ ____
ROOT
ATOM      1  C   UNL     1       7.048   6.831  18.157  0.00  0.00    +0.000 A 
ATOM      2  C   UNL     1       5.698   6.560  18.052  0.00  0.00    +0.000 A 
ATOM      3  N   UNL     1       5.539   5.404  18.751  0.00  0.00    +0.000 N 
ATOM      4  N   UNL     1       6.710   4.972  19.253  0.00  0.00    +0.000 NA
ATOM      5  N   UNL     1       7.645   5.840  18.891  0.00  0.00    +0.000 NA
ENDROOT
BRANCH   3   6
ATOM      6  C   UNL     1       4.331   4.681  19.089  0.00  0.00    +0.000 C 
ATOM      7  C   UNL     1       3.120   5.294  18.381  0.00  0.00    +0.000 C 
ATOM      8  O   UNL     1       1.900   4.637  18.769  0.00  0.00    +0.000 OA
ATOM      9  C   UNL     1       1.889   3.243  18.394  0.00  0.00    +0.000 C 
ATOM     10  C   UNL     1       3.026   2.515  19.118  0.00  0.00    +0.000 C 
ATOM     11  C   UNL     1       4.379   3.173  18.793  0.00  0.00    +0.000 C 
BRANCH  10  12
ATOM     12  O   UNL     1       2.837   2.561  20.545  0.00  0.00    +0.000 OA
ATOM     13  H   UNL     1       2.052   3.113  20.730  0.00  0.00    +0.000 HD
ENDBRANCH  10  12
BRANCH  11  14
ATOM     14  O   UNL     1       5.397   2.526  19.561  0.00  0.00    +0.000 OA
ATOM     15  H   UNL     1       6.238   2.629  19.068  0.00  0.00    +0.000 HD
ENDBRANCH  11  14
BRANCH   9  16
ATOM     16  C   UNL     1       0.516   2.675  18.774  0.00  0.00    +0.000 C 
BRANCH  16  17
ATOM     17  O   UNL     1       0.165   3.099  20.093  0.00  0.00    +0.000 OA
ATOM     18  H   UNL     1       0.709   2.545  20.689  0.00  0.00    +0.000 HD
ENDBRANCH  16  17
ENDBRANCH   9  16
ENDBRANCH   3   6
BRANCH   1  19
ATOM     19  C   UNL     1       7.825   7.990  17.643  0.00  0.00    +0.000 C 
BRANCH  19  20
ATOM     20  O   UNL     1       8.764   8.412  18.633  0.00  0.00    +0.000 OA
BRANCH  20  24
ATOM     21  C   UNL     1       9.124  12.578  18.806  0.00  0.00    +0.000 A 
ATOM     22  C   UNL     1       8.548  11.911  17.714  0.00  0.00    +0.000 A 
ATOM     23  C   UNL     1       8.445  10.520  17.697  0.00  0.00    +0.000 A 
ATOM     24  C   UNL     1       8.933   9.764  18.763  0.00  0.00    +0.000 A 
ATOM     25  C   UNL     1       9.496  10.407  19.863  0.00  0.00    +0.000 A 
ATOM     26  C   UNL     1       9.591  11.801  19.880  0.00  0.00    +0.000 A 
BRANCH  21  28
ATOM     27  O   UNL     1       8.899  14.677  19.903  0.00  0.00    +0.000 OA
ATOM     28  C   UNL     1       9.231  14.090  18.827  0.00  0.00    +0.000 C 
ATOM     29  O   UNL     1       9.648  14.652  17.765  0.00  0.00    +0.000 OA
ENDBRANCH  21  28
ENDBRANCH  20  24
ENDBRANCH  19  20
ENDBRANCH   1  19
TORSDOF 9
ENDMDL
MODEL 5
REMARK VINA RESULT:      -7.2      2.353     10.345
REMARK  Name = 
REMARK  9 active torsions:
REMARK  status: ('A' for Active; 'I' for Inactive)
REMARK    1  A    between atoms: C_2  and  C_4
REMARK    2  A    between atoms: C_7  and  O_8
REMARK    3  A    between atoms: O_8  and  C_9
REMARK    4  A    between atoms: C_9  and  C_10
REMARK    5  A    between atoms: N_12  and  C_13
REMARK    6  A    between atoms: C_16  and  C_17
REMARK    7  A    between atoms: C_17  and  O_18
REMARK    8  A    between atoms: C_19  and  O_20
REMARK    9  A    between atoms: C_21  and  O_22
REMARK                            x       y       z     vdW  Elec       q    Type
REMARK                         _______ _______ _______ _____ _____    ______ ____
ROOT
ATOM      1  C   UNL     1       7.357   6.788  18.060  0.00  0.00    +0.000 A 
ATOM      2  C   UNL     1       6.094   6.297  17.792  0.00  0.00    +0.000 A 
ATOM      3  N   UNL     1       5.918   5.319  18.721  0.00  0.00    +0.000 N 
ATOM      4  N   UNL     1       6.999   5.197  19.513  0.00  0.00    +0.000 NA
ATOM      5  N   UNL     1       7.891   6.093  19.113  0.00  0.00    +0.000 NA
ENDROOT
BRANCH   3   6
ATOM      6  C   UNL     1       4.750   4.514  19.013  0.00  0.00    +0.000 C 
ATOM      7  C   UNL     1       3.704   5.338  19.770  0.00  0.00    +0.000 C 
ATOM      8  O   UNL     1       2.572   4.531  20.139  0.00  0.00    +0.000 OA
ATOM      9  C   UNL     1       1.877   4.009  18.987  0.00  0.00    +0.000 C 
ATOM     10  C   UNL     1       2.822   3.098  18.196  0.00  0.00    +0.000 C 
ATOM     11  C   UNL     1       4.091   3.866  17.785  0.00  0.00    +0.000 C 
BRANCH  10  12
ATOM     12  O   UNL     1       3.222   1.963  18.988  0.00  0.00    +0.000 OA
ATOM     13  H   UNL     1       2.993   1.152  18.493  0.00  0.00    +0.000 HD
ENDBRANCH  10  12
BRANCH  11  14
ATOM     14  O   UNL     1       4.984   2.957  17.136  0.00  0.00    +0.000 OA
ATOM     15  H   UNL     1       4.441   2.385  16.556  0.00  0.00    +0.000 HD
ENDBRANCH  11  14
BRANCH   9  16
ATOM     16  C   UNL     1       0.647   3.248  19.497  0.00  0.00    +0.000 C 
BRANCH  16  17
ATOM     17  O   UNL     1       0.825   2.908  20.874  0.00  0.00    +0.000 OA
ATOM     18  H   UNL     1       0.446   3.660  21.371  0.00  0.00    +0.000 HD
ENDBRANCH  16  17
ENDBRANCH   9  16
ENDBRANCH   3   6
BRANCH   1  19
ATOM     19  C   UNL     1       8.095   7.906  17.415  0.00  0.00    +0.000 C 
BRANCH  19  20
ATOM     20  O   UNL     1       7.522   9.152  17.815  0.00  0.00    +0.000 OA
BRANCH  20  24
ATOM     21  C   UNL     1      10.084  12.300  18.833  0.00  0.00    +0.000 A 
ATOM     22  C   UNL     1       9.122  12.404  17.817  0.00  0.00    +0.000 A 
ATOM     23  C   UNL     1       8.285  11.330  17.510  0.00  0.00    +0.000 A 
ATOM     24  C   UNL     1       8.406  10.123  18.200  0.00  0.00    +0.000 A 
ATOM     25  C   UNL     1       9.346  10.005  19.222  0.00  0.00    +0.000 A 
ATOM     26  C   UNL     1      10.177  11.085  19.531  0.00  0.00    +0.000 A 
BRANCH  21  28
ATOM     27  O   UNL     1      12.003  13.223  19.895  0.00  0.00    +0.000 OA
ATOM     28  C   UNL     1      10.990  13.469  19.169  0.00  0.00    +0.000 C 
ATOM     29  O   UNL     1      10.665  14.603  18.696  0.00  0.00    +0.000 OA
ENDBRANCH  21  28
ENDBRANCH  20  24
ENDBRANCH  19  20
ENDBRANCH   1  19
TORSDOF 9
ENDMDL
MODEL 6
REMARK VINA RESULT:      -7.2      2.389     10.393
REMARK  Name = 
REMARK  9 active torsions:
REMARK  status: ('A' for Active; 'I' for Inactive)
REMARK    1  A    between atoms: C_2  and  C_4
REMARK    2  A    between atoms: C_7  and  O_8
REMARK    3  A    between atoms: O_8  and  C_9
REMARK    4  A    between atoms: C_9  and  C_10
REMARK    5  A    between atoms: N_12  and  C_13
REMARK    6  A    between atoms: C_16  and  C_17
REMARK    7  A    between atoms: C_17  and  O_18
REMARK    8  A    between atoms: C_19  and  O_20
REMARK    9  A    between atoms: C_21  and  O_22
REMARK                            x       y       z     vdW  Elec       q    Type
REMARK                         _______ _______ _______ _____ _____    ______ ____
ROOT
ATOM      1  C   UNL     1       7.427   7.052  17.998  0.00  0.00    +0.000 A 
ATOM      2  C   UNL     1       6.108   6.646  17.959  0.00  0.00    +0.000 A 
ATOM      3  N   UNL     1       6.157   5.335  18.318  0.00  0.00    +0.000 N 
ATOM      4  N   UNL     1       7.421   4.942  18.559  0.00  0.00    +0.000 NA
ATOM      5  N   UNL     1       8.210   5.988  18.362  0.00  0.00    +0.000 NA
ENDROOT
BRANCH   3   6
ATOM      6  C   UNL     1       5.081   4.397  18.561  0.00  0.00    +0.000 C 
ATOM      7  C   UNL     1       3.985   5.042  19.414  0.00  0.00    +0.000 C 
ATOM      8  O   UNL     1       2.947   4.098  19.731  0.00  0.00    +0.000 OA
ATOM      9  C   UNL     1       2.270   3.616  18.551  0.00  0.00    +0.000 C 
ATOM     10  C   UNL     1       3.273   2.878  17.658  0.00  0.00    +0.000 C 
ATOM     11  C   UNL     1       4.449   3.801  17.292  0.00  0.00    +0.000 C 
BRANCH  10  12
ATOM     12  O   UNL     1       3.803   1.721  18.332  0.00  0.00    +0.000 OA
ATOM     13  H   UNL     1       4.038   1.056  17.655  0.00  0.00    +0.000 HD
ENDBRANCH  10  12
BRANCH  11  14
ATOM     14  O   UNL     1       5.405   3.046  16.542  0.00  0.00    +0.000 OA
ATOM     15  H   UNL     1       5.792   3.653  15.878  0.00  0.00    +0.000 HD
ENDBRANCH  11  14
BRANCH   9  16
ATOM     16  C   UNL     1       1.134   2.696  19.015  0.00  0.00    +0.000 C 
BRANCH  16  17
ATOM     17  O   UNL     1       1.060   1.552  18.160  0.00  0.00    +0.000 OA
ATOM     18  H   UNL     1       0.113   1.469  17.931  0.00  0.00    +0.000 HD
ENDBRANCH  16  17
ENDBRANCH   9  16
ENDBRANCH   3   6
BRANCH   1  19
ATOM     19  C   UNL     1       8.012   8.398  17.754  0.00  0.00    +0.000 C 
BRANCH  19  20
ATOM     20  O   UNL     1       8.850   8.761  18.852  0.00  0.00    +0.000 OA
BRANCH  20  24
ATOM     21  C   UNL     1       9.461  12.894  19.089  0.00  0.00    +0.000 A 
ATOM     22  C   UNL     1       9.088  12.249  17.900  0.00  0.00    +0.000 A 
ATOM     23  C   UNL     1       8.892  10.869  17.864  0.00  0.00    +0.000 A 
ATOM     24  C   UNL     1       9.084  10.100  19.012  0.00  0.00    +0.000 A 
ATOM     25  C   UNL     1       9.441  10.722  20.207  0.00  0.00    +0.000 A 
ATOM     26  C   UNL     1       9.629  12.107  20.241  0.00  0.00    +0.000 A 
BRANCH  21  28
ATOM     27  O   UNL     1      10.865  14.814  19.037  0.00  0.00    +0.000 OA
ATOM     28  C   UNL     1       9.670  14.396  19.129  0.00  0.00    +0.000 C 
ATOM     29  O   UNL     1       8.630  15.118  19.250  0.00  0.00    +0.000 OA
ENDBRANCH  21  28
ENDBRANCH  20  24
ENDBRANCH  19  20
ENDBRANCH   1  19
TORSDOF 9
ENDMDL
MODEL 7
REMARK VINA RESULT:      -7.1      2.604     10.431
REMARK  Name = 
REMARK  9 active torsions:
REMARK  status: ('A' for Active; 'I' for Inactive)
REMARK    1  A    between atoms: C_2  and  C_4
REMARK    2  A    between atoms: C_7  and  O_8
REMARK    3  A    between atoms: O_8  and  C_9
REMARK    4  A    between atoms: C_9  and  C_10
REMARK    5  A    between atoms: N_12  and  C_13
REMARK    6  A    between atoms: C_16  and  C_17
REMARK    7  A    between atoms: C_17  and  O_18
REMARK    8  A    between atoms: C_19  and  O_20
REMARK    9  A    between atoms: C_21  and  O_22
REMARK                            x       y       z     vdW  Elec       q    Type
REMARK                         _______ _______ _______ _____ _____    ______ ____
ROOT
ATOM      1  C   UNL     1       7.356   7.456  17.436  0.00  0.00    +0.000 A 
ATOM      2  C   UNL     1       6.460   6.944  18.353  0.00  0.00    +0.000 A 
ATOM      3  N   UNL     1       6.065   5.764  17.803  0.00  0.00    +0.000 N 
ATOM      4  N   UNL     1       6.664   5.553  16.617  0.00  0.00    +0.000 NA
ATOM      5  N   UNL     1       7.457   6.589  16.380  0.00  0.00    +0.000 NA
ENDROOT
BRANCH   3   6
ATOM      6  C   UNL     1       5.215   4.725  18.345  0.00  0.00    +0.000 C 
ATOM      7  C   UNL     1       4.154   5.325  19.272  0.00  0.00    +0.000 C 
ATOM      8  O   UNL     1       3.352   4.297  19.882  0.00  0.00    +0.000 OA
ATOM      9  C   UNL     1       2.611   3.534  18.907  0.00  0.00    +0.000 C 
ATOM     10  C   UNL     1       3.592   2.824  17.969  0.00  0.00    +0.000 C 
ATOM     11  C   UNL     1       4.525   3.843  17.292  0.00  0.00    +0.000 C 
BRANCH  10  12
ATOM     12  O   UNL     1       4.406   1.884  18.695  0.00  0.00    +0.000 OA
ATOM     13  H   UNL     1       4.423   1.045  18.195  0.00  0.00    +0.000 HD
ENDBRANCH  10  12
BRANCH  11  14
ATOM     14  O   UNL     1       5.482   3.132  16.503  0.00  0.00    +0.000 OA
ATOM     15  H   UNL     1       6.056   3.801  16.075  0.00  0.00    +0.000 HD
ENDBRANCH  11  14
BRANCH   9  16
ATOM     16  C   UNL     1       1.731   2.539  19.673  0.00  0.00    +0.000 C 
BRANCH  16  17
ATOM     17  O   UNL     1       0.590   3.214  20.207  0.00  0.00    +0.000 OA
ATOM     18  H   UNL     1       0.439   3.970  19.605  0.00  0.00    +0.000 HD
ENDBRANCH  16  17
ENDBRANCH   9  16
ENDBRANCH   3   6
BRANCH   1  19
ATOM     19  C   UNL     1       8.167   8.701  17.496  0.00  0.00    +0.000 C 
BRANCH  19  20
ATOM     20  O   UNL     1       8.560   8.951  18.847  0.00  0.00    +0.000 OA
BRANCH  20  24
ATOM     21  C   UNL     1      10.752  12.495  19.232  0.00  0.00    +0.000 A 
ATOM     22  C   UNL     1      10.432  11.932  17.987  0.00  0.00    +0.000 A 
ATOM     23  C   UNL     1       9.697  10.749  17.902  0.00  0.00    +0.000 A 
ATOM     24  C   UNL     1       9.282  10.093  19.061  0.00  0.00    +0.000 A 
ATOM     25  C   UNL     1       9.577  10.643  20.307  0.00  0.00    +0.000 A 
ATOM     26  C   UNL     1      10.307  11.832  20.388  0.00  0.00    +0.000 A 
BRANCH  21  28
ATOM     27  O   UNL     1      11.367  14.499  20.356  0.00  0.00    +0.000 OA
ATOM     28  C   UNL     1      11.547  13.783  19.323  0.00  0.00    +0.000 C 
ATOM     29  O   UNL     1      12.333  14.043  18.359  0.00  0.00    +0.000 OA
ENDBRANCH  21  28
ENDBRANCH  20  24
ENDBRANCH  19  20
ENDBRANCH   1  19
TORSDOF 9
ENDMDL
MODEL 8
REMARK VINA RESULT:      -7.1      6.198      7.863
REMARK  Name = 
REMARK  9 active torsions:
REMARK  status: ('A' for Active; 'I' for Inactive)
REMARK    1  A    between atoms: C_2  and  C_4
REMARK    2  A    between atoms: C_7  and  O_8
REMARK    3  A    between atoms: O_8  and  C_9
REMARK    4  A    between atoms: C_9  and  C_10
REMARK    5  A    between atoms: N_12  and  C_13
REMARK    6  A    between atoms: C_16  and  C_17
REMARK    7  A    between atoms: C_17  and  O_18
REMARK    8  A    between atoms: C_19  and  O_20
REMARK    9  A    between atoms: C_21  and  O_22
REMARK                            x       y       z     vdW  Elec       q    Type
REMARK                         _______ _______ _______ _____ _____    ______ ____
ROOT
ATOM      1  C   UNL     1       2.508   7.182  19.037  0.00  0.00    +0.000 A 
ATOM      2  C   UNL     1       1.708   8.106  19.679  0.00  0.00    +0.000 A 
ATOM      3  N   UNL     1       1.515   9.077  18.746  0.00  0.00    +0.000 N 
ATOM      4  N   UNL     1       2.157   8.788  17.600  0.00  0.00    +0.000 NA
ATOM      5  N   UNL     1       2.774   7.627  17.769  0.00  0.00    +0.000 NA
ENDROOT
BRANCH   3   6
ATOM      6  C   UNL     1       0.676  10.256  18.792  0.00  0.00    +0.000 C 
ATOM      7  C   UNL     1      -0.309  10.171  19.962  0.00  0.00    +0.000 C 
ATOM      8  O   UNL     1      -1.205  11.297  19.973  0.00  0.00    +0.000 OA
ATOM      9  C   UNL     1      -0.506  12.546  20.160  0.00  0.00    +0.000 C 
ATOM     10  C   UNL     1       0.458  12.767  18.990  0.00  0.00    +0.000 C 
ATOM     11  C   UNL     1       1.439  11.588  18.871  0.00  0.00    +0.000 C 
BRANCH  10  12
ATOM     12  O   UNL     1      -0.262  12.878  17.747  0.00  0.00    +0.000 OA
ATOM     13  H   UNL     1      -1.193  12.629  17.912  0.00  0.00    +0.000 HD
ENDBRANCH  10  12
BRANCH  11  14
ATOM     14  O   UNL     1       2.254  11.787  17.713  0.00  0.00    +0.000 OA
ATOM     15  H   UNL     1       3.035  11.204  17.807  0.00  0.00    +0.000 HD
ENDBRANCH  11  14
BRANCH   9  16
ATOM     16  C   UNL     1      -1.561  13.656  20.247  0.00  0.00    +0.000 C 
BRANCH  16  17
ATOM     17  O   UNL     1      -1.155  14.772  19.452  0.00  0.00    +0.000 OA
ATOM     18  H   UNL     1      -0.189  14.665  19.341  0.00  0.00    +0.000 HD
ENDBRANCH  16  17
ENDBRANCH   9  16
ENDBRANCH   3   6
BRANCH   1  19
ATOM     19  C   UNL     1       3.019   5.871  19.521  0.00  0.00    +0.000 C 
BRANCH  19  20
ATOM     20  O   UNL     1       4.443   5.843  19.410  0.00  0.00    +0.000 OA
BRANCH  20  24
ATOM     21  C   UNL     1       6.186   4.969  15.707  0.00  0.00    +0.000 A 
ATOM     22  C   UNL     1       6.670   5.977  16.554  0.00  0.00    +0.000 A 
ATOM     23  C   UNL     1       6.060   6.235  17.782  0.00  0.00    +0.000 A 
ATOM     24  C   UNL     1       4.942   5.503  18.182  0.00  0.00    +0.000 A 
ATOM     25  C   UNL     1       4.454   4.488  17.361  0.00  0.00    +0.000 A 
ATOM     26  C   UNL     1       5.072   4.227  16.135  0.00  0.00    +0.000 A 
BRANCH  21  28
ATOM     27  O   UNL     1       7.859   5.395  14.070  0.00  0.00    +0.000 OA
ATOM     28  C   UNL     1       6.851   4.685  14.374  0.00  0.00    +0.000 C 
ATOM     29  O   UNL     1       6.348   3.757  13.666  0.00  0.00    +0.000 OA
ENDBRANCH  21  28
ENDBRANCH  20  24
ENDBRANCH  19  20
ENDBRANCH   1  19
TORSDOF 9
ENDMDL
MODEL 9
REMARK VINA RESULT:      -7.1      0.431      1.022
REMARK  Name = 
REMARK  9 active torsions:
REMARK  status: ('A' for Active; 'I' for Inactive)
REMARK    1  A    between atoms: C_2  and  C_4
REMARK    2  A    between atoms: C_7  and  O_8
REMARK    3  A    between atoms: O_8  and  C_9
REMARK    4  A    between atoms: C_9  and  C_10
REMARK    5  A    between atoms: N_12  and  C_13
REMARK    6  A    between atoms: C_16  and  C_17
REMARK    7  A    between atoms: C_17  and  O_18
REMARK    8  A    between atoms: C_19  and  O_20
REMARK    9  A    between atoms: C_21  and  O_22
REMARK                            x       y       z     vdW  Elec       q    Type
REMARK                         _______ _______ _______ _____ _____    ______ ____
ROOT
ATOM      1  C   UNL     1       8.354   8.888  18.226  0.00  0.00    +0.000 A 
ATOM      2  C   UNL     1       8.296   9.996  17.404  0.00  0.00    +0.000 A 
ATOM      3  N   UNL     1       9.032  10.932  18.061  0.00  0.00    +0.000 N 
ATOM      4  N   UNL     1       9.512  10.449  19.222  0.00  0.00    +0.000 NA
ATOM      5  N   UNL     1       9.099   9.195  19.335  0.00  0.00    +0.000 NA
ENDROOT
BRANCH   3   6
ATOM      6  C   UNL     1       9.426  12.263  17.649  0.00  0.00    +0.000 C 
ATOM      7  C   UNL     1       8.509  13.315  18.280  0.00  0.00    +0.000 C 
ATOM      8  O   UNL     1       8.836  14.637  17.816  0.00  0.00    +0.000 OA
ATOM      9  C   UNL     1      10.174  15.030  18.190  0.00  0.00    +0.000 C 
ATOM     10  C   UNL     1      11.182  14.078  17.539  0.00  0.00    +0.000 C 
ATOM     11  C   UNL     1      10.890  12.623  17.948  0.00  0.00    +0.000 C 
BRANCH  10  12
ATOM     12  O   UNL     1      11.113  14.163  16.103  0.00  0.00    +0.000 OA
ATOM     13  H   UNL     1      10.603  13.395  15.778  0.00  0.00    +0.000 HD
ENDBRANCH  10  12
BRANCH  11  14
ATOM     14  O   UNL     1      11.790  11.762  17.245  0.00  0.00    +0.000 OA
ATOM     15  H   UNL     1      12.698  12.033  17.492  0.00  0.00    +0.000 HD
ENDBRANCH  11  14
BRANCH   9  16
ATOM     16  C   UNL     1      10.375  16.478  17.726  0.00  0.00    +0.000 C 
BRANCH  16  17
ATOM     17  O   UNL     1      11.722  16.660  17.283  0.00  0.00    +0.000 OA
ATOM     18  H   UNL     1      11.762  17.586  16.968  0.00  0.00    +0.000 HD
ENDBRANCH  16  17
ENDBRANCH   9  16
ENDBRANCH   3   6
BRANCH   1  19
ATOM     19  C   UNL     1       7.785   7.528  18.027  0.00  0.00    +0.000 C 
BRANCH  19  20
ATOM     20  O   UNL     1       6.735   7.587  17.060  0.00  0.00    +0.000 OA
BRANCH  20  24
ATOM     21  C   UNL     1       3.729   4.686  17.298  0.00  0.00    +0.000 A 
ATOM     22  C   UNL     1       3.557   5.996  17.769  0.00  0.00    +0.000 A 
ATOM     23  C   UNL     1       4.585   6.934  17.669  0.00  0.00    +0.000 A 
ATOM     24  C   UNL     1       5.813   6.577  17.113  0.00  0.00    +0.000 A 
ATOM     25  C   UNL     1       6.000   5.284  16.626  0.00  0.00    +0.000 A 
ATOM     26  C   UNL     1       4.966   4.349  16.722  0.00  0.00    +0.000 A 
BRANCH  21  28
ATOM     27  O   UNL     1       2.948   2.454  17.567  0.00  0.00    +0.000 OA
ATOM     28  C   UNL     1       2.610   3.667  17.403  0.00  0.00    +0.000 C 
ATOM     29  O   UNL     1       1.421   4.109  17.321  0.00  0.00    +0.000 OA
ENDBRANCH  21  28
ENDBRANCH  20  24
ENDBRANCH  19  20
ENDBRANCH   1  19
TORSDOF 9
ENDMDL
