MODEL 1
REMARK VINA RESULT:      -7.6      0.000      0.000
REMARK  Name = 
REMARK  3 active torsions:
REMARK  status: ('A' for Active; 'I' for Inactive)
REMARK    1  A    between atoms: C_1  and  C_2
REMARK    2  A    between atoms: C_2  and  C_3
REMARK    3  A    between atoms: C_2  and  N_4
REMARK                            x       y       z     vdW  Elec       q    Type
REMARK                         _______ _______ _______ _____ _____    ______ ____
ROOT
ATOM      1  N   UNL     1       3.406   3.548  19.452  0.00  0.00    +0.000 N 
ATOM      2  C   UNL     1       4.639   3.005  19.746  0.00  0.00    +0.000 C 
ATOM      3  O   UNL     1       4.830   2.119  20.575  0.00  0.00    +0.000 OA
ATOM      4  N   UNL     1       5.691   3.422  18.988  0.00  0.00    +0.000 N 
ATOM      5  C   UNL     1       5.607   4.335  17.943  0.00  0.00    +0.000 A 
ATOM      6  C   UNL     1       6.684   4.487  17.068  0.00  0.00    +0.000 A 
ATOM      7  C   UNL     1       6.617   5.434  16.048  0.00  0.00    +0.000 A 
ATOM      8  C   UNL     1       5.491   6.244  15.929  0.00  0.00    +0.000 A 
ATOM      9  C   UNL     1       4.416   6.081  16.805  0.00  0.00    +0.000 A 
ATOM     10  C   UNL     1       4.449   5.093  17.807  0.00  0.00    +0.000 A 
ATOM     11  C   UNL     1       3.329   4.865  18.810  0.00  0.00    +0.000 C 
ATOM     12  N   UNL     1       3.353   5.913  19.798  0.00  0.00    +0.000 N 
ATOM     13  C   UNL     1       2.333   6.815  19.645  0.00  0.00    +0.000 C 
ATOM     14  O   UNL     1       2.246   7.879  20.228  0.00  0.00    +0.000 OA
ATOM     15  N   UNL     1       1.465   6.347  18.722  0.00  0.00    +0.000 N 
ATOM     16  C   UNL     1       1.940   5.205  18.148  0.00  0.00    +0.000 C 
ATOM     17  O   UNL     1       1.366   4.590  17.263  0.00  0.00    +0.000 OA
ATOM     18  H   UNL     1       6.547   2.906  19.143  0.00  0.00    +0.000 HD
ATOM     19  H   UNL     1       4.164   6.133  20.359  0.00  0.00    +0.000 HD
ATOM     20  H   UNL     1       0.625   6.825  18.441  0.00  0.00    +0.000 HD
ENDROOT
BRANCH   1  22
ATOM     21  C   UNL     1       1.937   1.567  19.156  0.00  0.00    +0.000 C 
ATOM     22  C   UNL     1       2.181   2.870  19.929  0.00  0.00    +0.000 C 
ATOM     23  C   UNL     1       2.153   2.630  21.438  0.00  0.00    +0.000 C 
ENDBRANCH   1  22
TORSDOF 1
ENDMDL
MODEL 2
REMARK VINA RESULT:      -7.1      2.151      4.142
REMARK  Name = 
REMARK  3 active torsions:
REMARK  status: ('A' for Active; 'I' for Inactive)
REMARK    1  A    between atoms: C_1  and  C_2
REMARK    2  A    between atoms: C_2  and  C_3
REMARK    3  A    between atoms: C_2  and  N_4
REMARK                            x       y       z     vdW  Elec       q    Type
REMARK                         _______ _______ _______ _____ _____    ______ ____
ROOT
ATOM      1  N   UNL     1       3.526   3.466  18.602  0.00  0.00    +0.000 N 
ATOM      2  C   UNL     1       2.152   3.580  18.595  0.00  0.00    +0.000 C 
ATOM      3  O   UNL     1       1.376   2.680  18.904  0.00  0.00    +0.000 OA
ATOM      4  N   UNL     1       1.639   4.811  18.316  0.00  0.00    +0.000 N 
ATOM      5  C   UNL     1       2.394   5.949  18.057  0.00  0.00    +0.000 A 
ATOM      6  C   UNL     1       1.779   7.201  18.050  0.00  0.00    +0.000 A 
ATOM      7  C   UNL     1       2.527   8.337  17.745  0.00  0.00    +0.000 A 
ATOM      8  C   UNL     1       3.874   8.210  17.418  0.00  0.00    +0.000 A 
ATOM      9  C   UNL     1       4.483   6.954  17.433  0.00  0.00    +0.000 A 
ATOM     10  C   UNL     1       3.752   5.805  17.790  0.00  0.00    +0.000 A 
ATOM     11  C   UNL     1       4.335   4.401  17.813  0.00  0.00    +0.000 C 
ATOM     12  N   UNL     1       4.485   3.925  16.461  0.00  0.00    +0.000 N 
ATOM     13  C   UNL     1       5.790   3.903  16.044  0.00  0.00    +0.000 C 
ATOM     14  O   UNL     1       6.156   3.723  14.898  0.00  0.00    +0.000 OA
ATOM     15  N   UNL     1       6.596   4.146  17.101  0.00  0.00    +0.000 N 
ATOM     16  C   UNL     1       5.860   4.462  18.206  0.00  0.00    +0.000 C 
ATOM     17  O   UNL     1       6.339   4.753  19.291  0.00  0.00    +0.000 OA
ATOM     18  H   UNL     1       0.639   4.886  18.450  0.00  0.00    +0.000 HD
ATOM     19  H   UNL     1       3.725   3.880  15.797  0.00  0.00    +0.000 HD
ATOM     20  H   UNL     1       7.600   4.171  17.054  0.00  0.00    +0.000 HD
ENDROOT
BRANCH   1  22
ATOM     21  C   UNL     1       3.802   2.287  20.772  0.00  0.00    +0.000 C 
ATOM     22  C   UNL     1       4.155   2.311  19.279  0.00  0.00    +0.000 C 
ATOM     23  C   UNL     1       3.853   0.966  18.618  0.00  0.00    +0.000 C 
ENDBRANCH   1  22
TORSDOF 1
ENDMDL
MODEL 3
REMARK VINA RESULT:      -7.1      1.943      4.883
REMARK  Name = 
REMARK  3 active torsions:
REMARK  status: ('A' for Active; 'I' for Inactive)
REMARK    1  A    between atoms: C_1  and  C_2
REMARK    2  A    between atoms: C_2  and  C_3
REMARK    3  A    between atoms: C_2  and  N_4
REMARK                            x       y       z     vdW  Elec       q    Type
REMARK                         _______ _______ _______ _____ _____    ______ ____
ROOT
ATOM      1  N   UNL     1       4.895   4.651  17.481  0.00  0.00    +0.000 N 
ATOM      2  C   UNL     1       5.201   5.970  17.745  0.00  0.00    +0.000 C 
ATOM      3  O   UNL     1       6.100   6.600  17.196  0.00  0.00    +0.000 OA
ATOM      4  N   UNL     1       4.378   6.630  18.608  0.00  0.00    +0.000 N 
ATOM      5  C   UNL     1       3.258   6.080  19.219  0.00  0.00    +0.000 A 
ATOM      6  C   UNL     1       2.343   6.912  19.865  0.00  0.00    +0.000 A 
ATOM      7  C   UNL     1       1.244   6.356  20.517  0.00  0.00    +0.000 A 
ATOM      8  C   UNL     1       1.084   4.974  20.548  0.00  0.00    +0.000 A 
ATOM      9  C   UNL     1       2.002   4.149  19.893  0.00  0.00    +0.000 A 
ATOM     10  C   UNL     1       3.088   4.700  19.187  0.00  0.00    +0.000 A 
ATOM     11  C   UNL     1       4.138   3.871  18.466  0.00  0.00    +0.000 C 
ATOM     12  N   UNL     1       5.027   3.280  19.435  0.00  0.00    +0.000 N 
ATOM     13  C   UNL     1       4.822   1.935  19.596  0.00  0.00    +0.000 C 
ATOM     14  O   UNL     1       5.309   1.254  20.479  0.00  0.00    +0.000 OA
ATOM     15  N   UNL     1       3.971   1.500  18.642  0.00  0.00    +0.000 N 
ATOM     16  C   UNL     1       3.488   2.547  17.912  0.00  0.00    +0.000 C 
ATOM     17  O   UNL     1       2.679   2.436  17.004  0.00  0.00    +0.000 OA
ATOM     18  H   UNL     1       4.555   7.624  18.673  0.00  0.00    +0.000 HD
ATOM     19  H   UNL     1       5.542   3.815  20.119  0.00  0.00    +0.000 HD
ATOM     20  H   UNL     1       3.671   0.544  18.543  0.00  0.00    +0.000 HD
ENDROOT
BRANCH   1  22
ATOM     21  C   UNL     1       4.827   4.551  14.999  0.00  0.00    +0.000 C 
ATOM     22  C   UNL     1       5.465   4.000  16.281  0.00  0.00    +0.000 C 
ATOM     23  C   UNL     1       6.991   4.062  16.209  0.00  0.00    +0.000 C 
ENDBRANCH   1  22
TORSDOF 1
ENDMDL
MODEL 4
REMARK VINA RESULT:      -6.4      2.597      4.259
REMARK  Name = 
REMARK  3 active torsions:
REMARK  status: ('A' for Active; 'I' for Inactive)
REMARK    1  A    between atoms: C_1  and  C_2
REMARK    2  A    between atoms: C_2  and  C_3
REMARK    3  A    between atoms: C_2  and  N_4
REMARK                            x       y       z     vdW  Elec       q    Type
REMARK                         _______ _______ _______ _____ _____    ______ ____
ROOT
ATOM      1  N   UNL     1       4.463   5.217  17.678  0.00  0.00    +0.000 N 
ATOM      2  C   UNL     1       3.712   4.172  17.181  0.00  0.00    +0.000 C 
ATOM      3  O   UNL     1       2.664   3.768  17.679  0.00  0.00    +0.000 OA
ATOM      4  N   UNL     1       4.124   3.625  16.003  0.00  0.00    +0.000 N 
ATOM      5  C   UNL     1       5.225   4.050  15.269  0.00  0.00    +0.000 A 
ATOM      6  C   UNL     1       5.398   3.604  13.959  0.00  0.00    +0.000 A 
ATOM      7  C   UNL     1       6.525   3.994  13.239  0.00  0.00    +0.000 A 
ATOM      8  C   UNL     1       7.487   4.800  13.843  0.00  0.00    +0.000 A 
ATOM      9  C   UNL     1       7.303   5.247  15.152  0.00  0.00    +0.000 A 
ATOM     10  C   UNL     1       6.144   4.903  15.873  0.00  0.00    +0.000 A 
ATOM     11  C   UNL     1       5.877   5.333  17.307  0.00  0.00    +0.000 C 
ATOM     12  N   UNL     1       6.701   4.556  18.199  0.00  0.00    +0.000 N 
ATOM     13  C   UNL     1       7.743   5.274  18.723  0.00  0.00    +0.000 C 
ATOM     14  O   UNL     1       8.676   4.801  19.345  0.00  0.00    +0.000 OA
ATOM     15  N   UNL     1       7.585   6.578  18.409  0.00  0.00    +0.000 N 
ATOM     16  C   UNL     1       6.522   6.747  17.570  0.00  0.00    +0.000 C 
ATOM     17  O   UNL     1       6.174   7.823  17.109  0.00  0.00    +0.000 OA
ATOM     18  H   UNL     1       3.477   2.956  15.606  0.00  0.00    +0.000 HD
ATOM     19  H   UNL     1       6.697   3.547  18.225  0.00  0.00    +0.000 HD
ATOM     20  H   UNL     1       8.216   7.310  18.690  0.00  0.00    +0.000 HD
ENDROOT
BRANCH   1  22
ATOM     21  C   UNL     1       2.805   7.023  18.081  0.00  0.00    +0.000 C 
ATOM     22  C   UNL     1       3.875   6.112  18.698  0.00  0.00    +0.000 C 
ATOM     23  C   UNL     1       3.335   5.382  19.927  0.00  0.00    +0.000 C 
ENDBRANCH   1  22
TORSDOF 1
ENDMDL
MODEL 5
REMARK VINA RESULT:      -6.3      1.995      5.241
REMARK  Name = 
REMARK  3 active torsions:
REMARK  status: ('A' for Active; 'I' for Inactive)
REMARK    1  A    between atoms: C_1  and  C_2
REMARK    2  A    between atoms: C_2  and  C_3
REMARK    3  A    between atoms: C_2  and  N_4
REMARK                            x       y       z     vdW  Elec       q    Type
REMARK                         _______ _______ _______ _____ _____    ______ ____
ROOT
ATOM      1  N   UNL     1       4.355   6.351  17.570  0.00  0.00    +0.000 N 
ATOM      2  C   UNL     1       3.179   6.954  17.966  0.00  0.00    +0.000 C 
ATOM      3  O   UNL     1       2.832   8.085  17.638  0.00  0.00    +0.000 OA
ATOM      4  N   UNL     1       2.313   6.194  18.692  0.00  0.00    +0.000 N 
ATOM      5  C   UNL     1       2.520   4.865  19.044  0.00  0.00    +0.000 A 
ATOM      6  C   UNL     1       1.463   4.109  19.550  0.00  0.00    +0.000 A 
ATOM      7  C   UNL     1       1.683   2.791  19.945  0.00  0.00    +0.000 A 
ATOM      8  C   UNL     1       2.962   2.248  19.863  0.00  0.00    +0.000 A 
ATOM      9  C   UNL     1       4.013   3.010  19.349  0.00  0.00    +0.000 A 
ATOM     10  C   UNL     1       3.795   4.325  18.898  0.00  0.00    +0.000 A 
ATOM     11  C   UNL     1       4.888   5.225  18.344  0.00  0.00    +0.000 C 
ATOM     12  N   UNL     1       5.710   5.700  19.429  0.00  0.00    +0.000 N 
ATOM     13  C   UNL     1       6.940   5.099  19.468  0.00  0.00    +0.000 C 
ATOM     14  O   UNL     1       7.734   5.188  20.386  0.00  0.00    +0.000 OA
ATOM     15  N   UNL     1       7.112   4.368  18.345  0.00  0.00    +0.000 N 
ATOM     16  C   UNL     1       5.970   4.355  17.599  0.00  0.00    +0.000 C 
ATOM     17  O   UNL     1       5.843   3.746  16.548  0.00  0.00    +0.000 OA
ATOM     18  H   UNL     1       1.411   6.625  18.848  0.00  0.00    +0.000 HD
ATOM     19  H   UNL     1       5.346   6.196  20.230  0.00  0.00    +0.000 HD
ATOM     20  H   UNL     1       7.942   3.840  18.134  0.00  0.00    +0.000 HD
ENDROOT
BRANCH   1  22
ATOM     21  C   UNL     1       6.524   7.394  16.952  0.00  0.00    +0.000 C 
ATOM     22  C   UNL     1       5.139   6.945  16.466  0.00  0.00    +0.000 C 
ATOM     23  C   UNL     1       5.252   6.048  15.233  0.00  0.00    +0.000 C 
ENDBRANCH   1  22
TORSDOF 1
ENDMDL
MODEL 6
REMARK VINA RESULT:      -6.1      2.618      5.088
REMARK  Name = 
REMARK  3 active torsions:
REMARK  status: ('A' for Active; 'I' for Inactive)
REMARK    1  A    between atoms: C_1  and  C_2
REMARK    2  A    between atoms: C_2  and  C_3
REMARK    3  A    between atoms: C_2  and  N_4
REMARK                            x       y       z     vdW  Elec       q    Type
REMARK                         _______ _______ _______ _____ _____    ______ ____
ROOT
ATOM      1  N   UNL     1       5.120   5.542  16.470  0.00  0.00    +0.000 N 
ATOM      2  C   UNL     1       4.817   6.730  15.839  0.00  0.00    +0.000 C 
ATOM      3  O   UNL     1       5.214   7.046  14.720  0.00  0.00    +0.000 OA
ATOM      4  N   UNL     1       3.941   7.557  16.474  0.00  0.00    +0.000 N 
ATOM      5  C   UNL     1       3.326   7.284  17.690  0.00  0.00    +0.000 A 
ATOM      6  C   UNL     1       2.252   8.067  18.115  0.00  0.00    +0.000 A 
ATOM      7  C   UNL     1       1.666   7.821  19.355  0.00  0.00    +0.000 A 
ATOM      8  C   UNL     1       2.175   6.818  20.175  0.00  0.00    +0.000 A 
ATOM      9  C   UNL     1       3.246   6.034  19.739  0.00  0.00    +0.000 A 
ATOM     10  C   UNL     1       3.814   6.238  18.468  0.00  0.00    +0.000 A 
ATOM     11  C   UNL     1       4.992   5.442  17.928  0.00  0.00    +0.000 C 
ATOM     12  N   UNL     1       6.202   5.882  18.575  0.00  0.00    +0.000 N 
ATOM     13  C   UNL     1       6.677   4.981  19.490  0.00  0.00    +0.000 C 
ATOM     14  O   UNL     1       7.565   5.199  20.292  0.00  0.00    +0.000 OA
ATOM     15  N   UNL     1       5.978   3.830  19.380  0.00  0.00    +0.000 N 
ATOM     16  C   UNL     1       4.949   3.972  18.495  0.00  0.00    +0.000 C 
ATOM     17  O   UNL     1       4.144   3.093  18.230  0.00  0.00    +0.000 OA
ATOM     18  H   UNL     1       3.643   8.351  15.923  0.00  0.00    +0.000 HD
ATOM     19  H   UNL     1       6.516   6.843  18.577  0.00  0.00    +0.000 HD
ATOM     20  H   UNL     1       6.146   3.009  19.938  0.00  0.00    +0.000 HD
ENDROOT
BRANCH   1  22
ATOM     21  C   UNL     1       5.028   4.291  14.325  0.00  0.00    +0.000 C 
ATOM     22  C   UNL     1       5.716   4.436  15.689  0.00  0.00    +0.000 C 
ATOM     23  C   UNL     1       7.234   4.536  15.533  0.00  0.00    +0.000 C 
ENDBRANCH   1  22
TORSDOF 1
ENDMDL
MODEL 7
REMARK VINA RESULT:      -6.0      4.783      7.057
REMARK  Name = 
REMARK  3 active torsions:
REMARK  status: ('A' for Active; 'I' for Inactive)
REMARK    1  A    between atoms: C_1  and  C_2
REMARK    2  A    between atoms: C_2  and  C_3
REMARK    3  A    between atoms: C_2  and  N_4
REMARK                            x       y       z     vdW  Elec       q    Type
REMARK                         _______ _______ _______ _____ _____    ______ ____
ROOT
ATOM      1  N   UNL     1       0.244  10.454  21.348  0.00  0.00    +0.000 N 
ATOM      2  C   UNL     1       0.929   9.638  22.223  0.00  0.00    +0.000 C 
ATOM      3  O   UNL     1       0.862   9.718  23.447  0.00  0.00    +0.000 OA
ATOM      4  N   UNL     1       1.650   8.619  21.678  0.00  0.00    +0.000 N 
ATOM      5  C   UNL     1       1.730   8.339  20.319  0.00  0.00    +0.000 A 
ATOM      6  C   UNL     1       2.270   7.125  19.893  0.00  0.00    +0.000 A 
ATOM      7  C   UNL     1       2.392   6.863  18.530  0.00  0.00    +0.000 A 
ATOM      8  C   UNL     1       2.004   7.827  17.603  0.00  0.00    +0.000 A 
ATOM      9  C   UNL     1       1.458   9.036  18.038  0.00  0.00    +0.000 A 
ATOM     10  C   UNL     1       1.282   9.293  19.410  0.00  0.00    +0.000 A 
ATOM     11  C   UNL     1       0.714  10.589  19.965  0.00  0.00    +0.000 C 
ATOM     12  N   UNL     1       1.709  11.627  19.866  0.00  0.00    +0.000 N 
ATOM     13  C   UNL     1       1.439  12.535  18.877  0.00  0.00    +0.000 C 
ATOM     14  O   UNL     1       2.211  13.384  18.475  0.00  0.00    +0.000 OA
ATOM     15  N   UNL     1       0.194  12.311  18.401  0.00  0.00    +0.000 N 
ATOM     16  C   UNL     1      -0.340  11.186  18.957  0.00  0.00    +0.000 C 
ATOM     17  O   UNL     1      -1.443  10.740  18.680  0.00  0.00    +0.000 OA
ATOM     18  H   UNL     1       2.027   7.968  22.353  0.00  0.00    +0.000 HD
ATOM     19  H   UNL     1       2.633  11.554  20.269  0.00  0.00    +0.000 HD
ATOM     20  H   UNL     1      -0.241  12.855  17.674  0.00  0.00    +0.000 HD
ENDROOT
BRANCH   1  22
ATOM     21  C   UNL     1      -1.502  10.679  23.102  0.00  0.00    +0.000 C 
ATOM     22  C   UNL     1      -0.858  11.300  21.855  0.00  0.00    +0.000 C 
ATOM     23  C   UNL     1      -0.459  12.754  22.107  0.00  0.00    +0.000 C 
ENDBRANCH   1  22
TORSDOF 1
ENDMDL
MODEL 8
REMARK VINA RESULT:      -6.0      7.678      9.981
REMARK  Name = 
REMARK  3 active torsions:
REMARK  status: ('A' for Active; 'I' for Inactive)
REMARK    1  A    between atoms: C_1  and  C_2
REMARK    2  A    between atoms: C_2  and  C_3
REMARK    3  A    between atoms: C_2  and  N_4
REMARK                            x       y       z     vdW  Elec       q    Type
REMARK                         _______ _______ _______ _____ _____    ______ ____
ROOT
ATOM      1  N   UNL     1      -2.617  12.613  21.344  0.00  0.00    +0.000 N 
ATOM      2  C   UNL     1      -2.444  12.460  22.703  0.00  0.00    +0.000 C 
ATOM      3  O   UNL     1      -3.110  13.035  23.560  0.00  0.00    +0.000 OA
ATOM      4  N   UNL     1      -1.530  11.533  23.105  0.00  0.00    +0.000 N 
ATOM      5  C   UNL     1      -0.782  10.730  22.253  0.00  0.00    +0.000 A 
ATOM      6  C   UNL     1      -0.081   9.639  22.767  0.00  0.00    +0.000 A 
ATOM      7  C   UNL     1       0.705   8.861  21.919  0.00  0.00    +0.000 A 
ATOM      8  C   UNL     1       0.813   9.197  20.573  0.00  0.00    +0.000 A 
ATOM      9  C   UNL     1       0.103  10.288  20.065  0.00  0.00    +0.000 A 
ATOM     10  C   UNL     1      -0.736  11.051  20.900  0.00  0.00    +0.000 A 
ATOM     11  C   UNL     1      -1.526  12.261  20.430  0.00  0.00    +0.000 C 
ATOM     12  N   UNL     1      -0.630  13.377  20.256  0.00  0.00    +0.000 N 
ATOM     13  C   UNL     1      -0.389  13.669  18.940  0.00  0.00    +0.000 C 
ATOM     14  O   UNL     1       0.466  14.434  18.537  0.00  0.00    +0.000 OA
ATOM     15  N   UNL     1      -1.229  12.948  18.166  0.00  0.00    +0.000 N 
ATOM     16  C   UNL     1      -1.950  12.071  18.924  0.00  0.00    +0.000 C 
ATOM     17  O   UNL     1      -2.763  11.280  18.473  0.00  0.00    +0.000 OA
ATOM     18  H   UNL     1      -1.527  11.356  24.102  0.00  0.00    +0.000 HD
ATOM     19  H   UNL     1      -0.027  13.727  20.987  0.00  0.00    +0.000 HD
ATOM     20  H   UNL     1      -1.255  12.994  17.161  0.00  0.00    +0.000 HD
ENDROOT
BRANCH   1  22
ATOM     21  C   UNL     1      -5.102  12.569  21.353  0.00  0.00    +0.000 C 
ATOM     22  C   UNL     1      -3.840  13.274  20.838  0.00  0.00    +0.000 C 
ATOM     23  C   UNL     1      -3.895  14.776  21.119  0.00  0.00    +0.000 C 
ENDBRANCH   1  22
TORSDOF 1
ENDMDL
MODEL 9
REMARK VINA RESULT:      -5.9     10.319     12.343
REMARK  Name = 
REMARK  3 active torsions:
REMARK  status: ('A' for Active; 'I' for Inactive)
REMARK    1  A    between atoms: C_1  and  C_2
REMARK    2  A    between atoms: C_2  and  C_3
REMARK    3  A    between atoms: C_2  and  N_4
REMARK                            x       y       z     vdW  Elec       q    Type
REMARK                         _______ _______ _______ _____ _____    ______ ____
ROOT
ATOM      1  N   UNL     1       9.756  16.141  18.368  0.00  0.00    +0.000 N 
ATOM      2  C   UNL     1      10.778  16.106  17.443  0.00  0.00    +0.000 C 
ATOM      3  O   UNL     1      11.360  17.097  17.009  0.00  0.00    +0.000 OA
ATOM      4  N   UNL     1      11.226  14.876  17.068  0.00  0.00    +0.000 N 
ATOM      5  C   UNL     1      10.741  13.668  17.556  0.00  0.00    +0.000 A 
ATOM      6  C   UNL     1      11.444  12.489  17.310  0.00  0.00    +0.000 A 
ATOM      7  C   UNL     1      10.934  11.273  17.761  0.00  0.00    +0.000 A 
ATOM      8  C   UNL     1       9.711  11.240  18.426  0.00  0.00    +0.000 A 
ATOM      9  C   UNL     1       9.017  12.426  18.674  0.00  0.00    +0.000 A 
ATOM     10  C   UNL     1       9.546  13.666  18.269  0.00  0.00    +0.000 A 
ATOM     11  C   UNL     1       8.845  14.998  18.484  0.00  0.00    +0.000 C 
ATOM     12  N   UNL     1       7.756  15.120  17.547  0.00  0.00    +0.000 N 
ATOM     13  C   UNL     1       6.528  14.967  18.133  0.00  0.00    +0.000 C 
ATOM     14  O   UNL     1       5.477  14.840  17.534  0.00  0.00    +0.000 OA
ATOM     15  N   UNL     1       6.678  14.944  19.476  0.00  0.00    +0.000 N 
ATOM     16  C   UNL     1       8.000  14.949  19.813  0.00  0.00    +0.000 C 
ATOM     17  O   UNL     1       8.417  14.905  20.961  0.00  0.00    +0.000 OA
ATOM     18  H   UNL     1      12.059  14.893  16.494  0.00  0.00    +0.000 HD
ATOM     19  H   UNL     1       7.870  15.044  16.546  0.00  0.00    +0.000 HD
ATOM     20  H   UNL     1       5.919  14.851  20.130  0.00  0.00    +0.000 HD
ENDROOT
BRANCH   1  22
ATOM     21  C   UNL     1      10.675  17.728  20.045  0.00  0.00    +0.000 C 
ATOM     22  C   UNL     1       9.499  17.389  19.119  0.00  0.00    +0.000 C 
ATOM     23  C   UNL     1       9.132  18.580  18.234  0.00  0.00    +0.000 C 
ENDBRANCH   1  22
TORSDOF 1
ENDMDL
