MODEL 1
REMARK VINA RESULT:      -8.6      0.000      0.000
REMARK  Name = 
REMARK  5 active torsions:
REMARK  status: ('A' for Active; 'I' for Inactive)
REMARK    1  A    between atoms: C_1  and  S_2
REMARK    2  A    between atoms: S_2  and  C_5
REMARK    3  A    between atoms: C_5  and  C_6
REMARK    4  A    between atoms: C_8  and  N_9
REMARK    5  A    between atoms: C_16  and  C_17
REMARK                            x       y       z     vdW  Elec       q    Type
REMARK                         _______ _______ _______ _____ _____    ______ ____
ROOT
ATOM      1  C   UNL     1       4.359   5.235  17.159  0.00  0.00    +0.000 A 
ATOM      2  C   UNL     1       3.861   4.093  17.770  0.00  0.00    +0.000 A 
ATOM      3  C   UNL     1       2.816   4.212  18.666  0.00  0.00    +0.000 A 
ATOM      4  N   UNL     1       2.284   5.420  18.908  0.00  0.00    +0.000 NA
ATOM      5  C   UNL     1       2.784   6.490  18.264  0.00  0.00    +0.000 A 
ATOM      6  N   UNL     1       3.794   6.436  17.381  0.00  0.00    +0.000 NA
ENDROOT
BRANCH   3   7
ATOM      7  N   UNL     1       2.362   3.135  19.396  0.00  0.00    +0.000 N 
ATOM      8  C   UNL     1       1.029   3.064  20.008  0.00  0.00    +0.000 C 
ATOM      9  C   UNL     1       1.144   3.008  21.542  0.00  0.00    +0.000 C 
ATOM     10  O   UNL     1       2.025   1.961  21.979  0.00  0.00    +0.000 OA
ATOM     11  C   UNL     1       3.342   2.166  21.441  0.00  0.00    +0.000 C 
ATOM     12  C   UNL     1       3.320   2.144  19.908  0.00  0.00    +0.000 C 
ENDBRANCH   3   7
BRANCH   5  13
ATOM     13  C   UNL     1       2.245   7.821  18.606  0.00  0.00    +0.000 A 
ATOM     14  C   UNL     1       2.252   8.879  17.676  0.00  0.00    +0.000 A 
ATOM     15  C   UNL     1       1.713  10.131  17.987  0.00  0.00    +0.000 A 
ATOM     16  C   UNL     1       1.155  10.356  19.242  0.00  0.00    +0.000 A 
ATOM     17  C   UNL     1       1.135   9.332  20.183  0.00  0.00    +0.000 A 
ATOM     18  C   UNL     1       1.673   8.081  19.867  0.00  0.00    +0.000 A 
ENDBRANCH   5  13
BRANCH   1  19
ATOM     19  C   UNL     1       5.607   5.189  16.329  0.00  0.00    +0.000 C 
ATOM     20  C   UNL     1       5.586   5.681  14.896  0.00  0.00    +0.000 C 
ATOM     21  C   UNL     1       5.727   4.212  15.178  0.00  0.00    +0.000 C 
BRANCH  19  23
ATOM     22  C   UNL     1       6.749   5.612  18.903  0.00  0.00    +0.000 C 
ATOM     23  S   UNL     1       7.185   5.527  17.186  0.00  0.00    +0.000 S 
ATOM     24  O   UNL     1       7.606   6.848  16.755  0.00  0.00    +0.000 OA
ATOM     25  O   UNL     1       8.054   4.380  17.007  0.00  0.00    +0.000 OA
ENDBRANCH  19  23
ENDBRANCH   1  19
TORSDOF 4
ENDMDL
MODEL 2
REMARK VINA RESULT:      -8.2      1.051      1.779
REMARK  Name = 
REMARK  5 active torsions:
REMARK  status: ('A' for Active; 'I' for Inactive)
REMARK    1  A    between atoms: C_1  and  S_2
REMARK    2  A    between atoms: S_2  and  C_5
REMARK    3  A    between atoms: C_5  and  C_6
REMARK    4  A    between atoms: C_8  and  N_9
REMARK    5  A    between atoms: C_16  and  C_17
REMARK                            x       y       z     vdW  Elec       q    Type
REMARK                         _______ _______ _______ _____ _____    ______ ____
ROOT
ATOM      1  C   UNL     1       5.104   5.928  17.751  0.00  0.00    +0.000 A 
ATOM      2  C   UNL     1       4.654   4.672  18.133  0.00  0.00    +0.000 A 
ATOM      3  C   UNL     1       3.402   4.552  18.704  0.00  0.00    +0.000 A 
ATOM      4  N   UNL     1       2.634   5.642  18.854  0.00  0.00    +0.000 NA
ATOM      5  C   UNL     1       3.106   6.830  18.436  0.00  0.00    +0.000 A 
ATOM      6  N   UNL     1       4.311   7.008  17.871  0.00  0.00    +0.000 NA
ENDROOT
BRANCH   3   7
ATOM      7  N   UNL     1       2.952   3.354  19.216  0.00  0.00    +0.000 N 
ATOM      8  C   UNL     1       1.655   2.754  18.876  0.00  0.00    +0.000 C 
ATOM      9  C   UNL     1       0.753   2.683  20.121  0.00  0.00    +0.000 C 
ATOM     10  O   UNL     1       1.406   2.035  21.225  0.00  0.00    +0.000 OA
ATOM     11  C   UNL     1       2.601   2.750  21.581  0.00  0.00    +0.000 C 
ATOM     12  C   UNL     1       3.592   2.784  20.412  0.00  0.00    +0.000 C 
ENDBRANCH   3   7
BRANCH   5  13
ATOM     13  C   UNL     1       2.284   8.031  18.686  0.00  0.00    +0.000 A 
ATOM     14  C   UNL     1       2.050   8.986  17.678  0.00  0.00    +0.000 A 
ATOM     15  C   UNL     1       1.246  10.106  17.904  0.00  0.00    +0.000 A 
ATOM     16  C   UNL     1       0.657  10.301  19.149  0.00  0.00    +0.000 A 
ATOM     17  C   UNL     1       0.871   9.377  20.166  0.00  0.00    +0.000 A 
ATOM     18  C   UNL     1       1.675   8.257  19.936  0.00  0.00    +0.000 A 
ENDBRANCH   5  13
BRANCH   1  19
ATOM     19  C   UNL     1       6.520   6.142  17.305  0.00  0.00    +0.000 C 
ATOM     20  C   UNL     1       7.563   6.626  18.291  0.00  0.00    +0.000 C 
ATOM     21  C   UNL     1       7.087   7.543  17.200  0.00  0.00    +0.000 C 
BRANCH  19  23
ATOM     22  C   UNL     1       5.752   4.152  15.418  0.00  0.00    +0.000 C 
ATOM     23  S   UNL     1       7.183   4.976  16.065  0.00  0.00    +0.000 S 
ATOM     24  O   UNL     1       7.975   4.007  16.802  0.00  0.00    +0.000 OA
ATOM     25  O   UNL     1       7.775   5.745  14.987  0.00  0.00    +0.000 OA
ENDBRANCH  19  23
ENDBRANCH   1  19
TORSDOF 4
ENDMDL
MODEL 3
REMARK VINA RESULT:      -8.0      1.038      1.972
REMARK  Name = 
REMARK  5 active torsions:
REMARK  status: ('A' for Active; 'I' for Inactive)
REMARK    1  A    between atoms: C_1  and  S_2
REMARK    2  A    between atoms: S_2  and  C_5
REMARK    3  A    between atoms: C_5  and  C_6
REMARK    4  A    between atoms: C_8  and  N_9
REMARK    5  A    between atoms: C_16  and  C_17
REMARK                            x       y       z     vdW  Elec       q    Type
REMARK                         _______ _______ _______ _____ _____    ______ ____
ROOT
ATOM      1  C   UNL     1       4.797   5.638  17.682  0.00  0.00    +0.000 A 
ATOM      2  C   UNL     1       4.285   4.440  18.159  0.00  0.00    +0.000 A 
ATOM      3  C   UNL     1       3.076   4.446  18.828  0.00  0.00    +0.000 A 
ATOM      4  N   UNL     1       2.409   5.600  18.982  0.00  0.00    +0.000 NA
ATOM      5  C   UNL     1       2.935   6.727  18.471  0.00  0.00    +0.000 A 
ATOM      6  N   UNL     1       4.101   6.783  17.808  0.00  0.00    +0.000 NA
ENDROOT
BRANCH   3   7
ATOM      7  N   UNL     1       2.579   3.313  19.432  0.00  0.00    +0.000 N 
ATOM      8  C   UNL     1       1.190   3.172  19.891  0.00  0.00    +0.000 C 
ATOM      9  C   UNL     1       1.142   3.012  21.421  0.00  0.00    +0.000 C 
ATOM     10  O   UNL     1       2.001   1.956  21.881  0.00  0.00    +0.000 OA
ATOM     11  C   UNL     1       3.362   2.226  21.503  0.00  0.00    +0.000 C 
ATOM     12  C   UNL     1       3.504   2.308  19.979  0.00  0.00    +0.000 C 
ENDBRANCH   3   7
BRANCH   5  13
ATOM     13  C   UNL     1       2.230   8.000  18.722  0.00  0.00    +0.000 A 
ATOM     14  C   UNL     1       1.605   8.264  19.956  0.00  0.00    +0.000 A 
ATOM     15  C   UNL     1       0.965   9.482  20.206  0.00  0.00    +0.000 A 
ATOM     16  C   UNL     1       0.933  10.467  19.223  0.00  0.00    +0.000 A 
ATOM     17  C   UNL     1       1.540  10.235  17.993  0.00  0.00    +0.000 A 
ATOM     18  C   UNL     1       2.180   9.016  17.747  0.00  0.00    +0.000 A 
ENDBRANCH   5  13
BRANCH   1  19
ATOM     19  C   UNL     1       6.185   5.719  17.119  0.00  0.00    +0.000 C 
ATOM     20  C   UNL     1       7.365   5.221  17.929  0.00  0.00    +0.000 C 
ATOM     21  C   UNL     1       7.191   6.694  17.694  0.00  0.00    +0.000 C 
BRANCH  19  23
ATOM     22  C   UNL     1       6.034   3.704  15.112  0.00  0.00    +0.000 C 
ATOM     23  S   UNL     1       6.369   5.433  15.324  0.00  0.00    +0.000 S 
ATOM     24  O   UNL     1       7.769   5.668  15.017  0.00  0.00    +0.000 OA
ATOM     25  O   UNL     1       5.329   6.172  14.636  0.00  0.00    +0.000 OA
ENDBRANCH  19  23
ENDBRANCH   1  19
TORSDOF 4
ENDMDL
MODEL 4
REMARK VINA RESULT:      -8.0      2.065      5.156
REMARK  Name = 
REMARK  5 active torsions:
REMARK  status: ('A' for Active; 'I' for Inactive)
REMARK    1  A    between atoms: C_1  and  S_2
REMARK    2  A    between atoms: S_2  and  C_5
REMARK    3  A    between atoms: C_5  and  C_6
REMARK    4  A    between atoms: C_8  and  N_9
REMARK    5  A    between atoms: C_16  and  C_17
REMARK                            x       y       z     vdW  Elec       q    Type
REMARK                         _______ _______ _______ _____ _____    ______ ____
ROOT
ATOM      1  C   UNL     1       2.842   5.021  19.204  0.00  0.00    +0.000 A 
ATOM      2  C   UNL     1       4.000   5.035  18.439  0.00  0.00    +0.000 A 
ATOM      3  C   UNL     1       4.425   6.228  17.886  0.00  0.00    +0.000 A 
ATOM      4  N   UNL     1       3.730   7.352  18.119  0.00  0.00    +0.000 NA
ATOM      5  C   UNL     1       2.634   7.287  18.895  0.00  0.00    +0.000 A 
ATOM      6  N   UNL     1       2.174   6.160  19.462  0.00  0.00    +0.000 NA
ENDROOT
BRANCH   3   7
ATOM      7  N   UNL     1       5.493   6.283  17.018  0.00  0.00    +0.000 N 
ATOM      8  C   UNL     1       5.368   6.178  15.558  0.00  0.00    +0.000 C 
ATOM      9  C   UNL     1       6.074   4.910  15.047  0.00  0.00    +0.000 C 
ATOM     10  O   UNL     1       7.433   4.826  15.506  0.00  0.00    +0.000 OA
ATOM     11  C   UNL     1       7.468   4.807  16.944  0.00  0.00    +0.000 C 
ATOM     12  C   UNL     1       6.860   6.088  17.526  0.00  0.00    +0.000 C 
ENDBRANCH   3   7
BRANCH   5  13
ATOM     13  C   UNL     1       1.833   8.516  19.071  0.00  0.00    +0.000 A 
ATOM     14  C   UNL     1       1.173   8.797  20.283  0.00  0.00    +0.000 A 
ATOM     15  C   UNL     1       0.442   9.975  20.461  0.00  0.00    +0.000 A 
ATOM     16  C   UNL     1       0.351  10.902  19.428  0.00  0.00    +0.000 A 
ATOM     17  C   UNL     1       0.991  10.653  18.218  0.00  0.00    +0.000 A 
ATOM     18  C   UNL     1       1.722   9.474  18.044  0.00  0.00    +0.000 A 
ENDBRANCH   5  13
BRANCH   1  19
ATOM     19  C   UNL     1       2.234   3.731  19.667  0.00  0.00    +0.000 C 
ATOM     20  C   UNL     1       1.207   3.730  20.781  0.00  0.00    +0.000 C 
ATOM     21  C   UNL     1       2.577   3.167  21.030  0.00  0.00    +0.000 C 
BRANCH  19  23
ATOM     22  C   UNL     1       3.370   1.439  18.416  0.00  0.00    +0.000 C 
ATOM     23  S   UNL     1       1.920   2.459  18.394  0.00  0.00    +0.000 S 
ATOM     24  O   UNL     1       1.872   3.159  17.123  0.00  0.00    +0.000 OA
ATOM     25  O   UNL     1       0.801   1.646  18.829  0.00  0.00    +0.000 OA
ENDBRANCH  19  23
ENDBRANCH   1  19
TORSDOF 4
ENDMDL
MODEL 5
REMARK VINA RESULT:      -7.8      1.954      5.066
REMARK  Name = 
REMARK  5 active torsions:
REMARK  status: ('A' for Active; 'I' for Inactive)
REMARK    1  A    between atoms: C_1  and  S_2
REMARK    2  A    between atoms: S_2  and  C_5
REMARK    3  A    between atoms: C_5  and  C_6
REMARK    4  A    between atoms: C_8  and  N_9
REMARK    5  A    between atoms: C_16  and  C_17
REMARK                            x       y       z     vdW  Elec       q    Type
REMARK                         _______ _______ _______ _____ _____    ______ ____
ROOT
ATOM      1  C   UNL     1       2.924   4.757  19.533  0.00  0.00    +0.000 A 
ATOM      2  C   UNL     1       4.153   4.779  18.889  0.00  0.00    +0.000 A 
ATOM      3  C   UNL     1       4.602   5.965  18.341  0.00  0.00    +0.000 A 
ATOM      4  N   UNL     1       3.858   7.076  18.462  0.00  0.00    +0.000 NA
ATOM      5  C   UNL     1       2.691   7.005  19.124  0.00  0.00    +0.000 A 
ATOM      6  N   UNL     1       2.204   5.885  19.682  0.00  0.00    +0.000 NA
ENDROOT
BRANCH   3   7
ATOM      7  N   UNL     1       5.751   6.022  17.583  0.00  0.00    +0.000 N 
ATOM      8  C   UNL     1       5.777   5.876  16.122  0.00  0.00    +0.000 C 
ATOM      9  C   UNL     1       6.557   4.612  15.720  0.00  0.00    +0.000 C 
ATOM     10  O   UNL     1       7.863   4.571  16.317  0.00  0.00    +0.000 OA
ATOM     11  C   UNL     1       7.753   4.591  17.751  0.00  0.00    +0.000 C 
ATOM     12  C   UNL     1       7.063   5.872  18.232  0.00  0.00    +0.000 C 
ENDBRANCH   3   7
BRANCH   5  13
ATOM     13  C   UNL     1       1.846   8.215  19.175  0.00  0.00    +0.000 A 
ATOM     14  C   UNL     1       1.589   8.983  18.023  0.00  0.00    +0.000 A 
ATOM     15  C   UNL     1       0.763  10.110  18.063  0.00  0.00    +0.000 A 
ATOM     16  C   UNL     1       0.175  10.500  19.263  0.00  0.00    +0.000 A 
ATOM     17  C   UNL     1       0.411   9.763  20.419  0.00  0.00    +0.000 A 
ATOM     18  C   UNL     1       1.237   8.636  20.374  0.00  0.00    +0.000 A 
ENDBRANCH   5  13
BRANCH   1  19
ATOM     19  C   UNL     1       2.304   3.466  19.978  0.00  0.00    +0.000 C 
ATOM     20  C   UNL     1       1.363   3.443  21.165  0.00  0.00    +0.000 C 
ATOM     21  C   UNL     1       2.726   2.822  21.283  0.00  0.00    +0.000 C 
BRANCH  19  23
ATOM     22  C   UNL     1       2.157   3.134  17.154  0.00  0.00    +0.000 C 
ATOM     23  S   UNL     1       1.849   2.272  18.672  0.00  0.00    +0.000 S 
ATOM     24  O   UNL     1       0.418   2.061  18.796  0.00  0.00    +0.000 OA
ATOM     25  O   UNL     1       2.768   1.152  18.739  0.00  0.00    +0.000 OA
ENDBRANCH  19  23
ENDBRANCH   1  19
TORSDOF 4
ENDMDL
MODEL 6
REMARK VINA RESULT:      -7.6      1.854      5.000
REMARK  Name = 
REMARK  5 active torsions:
REMARK  status: ('A' for Active; 'I' for Inactive)
REMARK    1  A    between atoms: C_1  and  S_2
REMARK    2  A    between atoms: S_2  and  C_5
REMARK    3  A    between atoms: C_5  and  C_6
REMARK    4  A    between atoms: C_8  and  N_9
REMARK    5  A    between atoms: C_16  and  C_17
REMARK                            x       y       z     vdW  Elec       q    Type
REMARK                         _______ _______ _______ _____ _____    ______ ____
ROOT
ATOM      1  C   UNL     1       2.937   5.252  19.314  0.00  0.00    +0.000 A 
ATOM      2  C   UNL     1       3.992   5.371  18.421  0.00  0.00    +0.000 A 
ATOM      3  C   UNL     1       4.217   6.588  17.806  0.00  0.00    +0.000 A 
ATOM      4  N   UNL     1       3.432   7.635  18.100  0.00  0.00    +0.000 NA
ATOM      5  C   UNL     1       2.444   7.473  18.997  0.00  0.00    +0.000 A 
ATOM      6  N   UNL     1       2.180   6.319  19.631  0.00  0.00    +0.000 NA
ENDROOT
BRANCH   3   7
ATOM      7  N   UNL     1       5.168   6.734  16.819  0.00  0.00    +0.000 N 
ATOM      8  C   UNL     1       5.124   6.033  15.529  0.00  0.00    +0.000 C 
ATOM      9  C   UNL     1       6.321   5.075  15.396  0.00  0.00    +0.000 C 
ATOM     10  O   UNL     1       7.573   5.738  15.639  0.00  0.00    +0.000 OA
ATOM     11  C   UNL     1       7.590   6.291  16.966  0.00  0.00    +0.000 C 
ATOM     12  C   UNL     1       6.474   7.328  17.144  0.00  0.00    +0.000 C 
ENDBRANCH   3   7
BRANCH   5  13
ATOM     13  C   UNL     1       1.538   8.612  19.246  0.00  0.00    +0.000 A 
ATOM     14  C   UNL     1       1.139   9.476  18.208  0.00  0.00    +0.000 A 
ATOM     15  C   UNL     1       0.255  10.535  18.437  0.00  0.00    +0.000 A 
ATOM     16  C   UNL     1      -0.251  10.757  19.714  0.00  0.00    +0.000 A 
ATOM     17  C   UNL     1       0.126   9.922  20.761  0.00  0.00    +0.000 A 
ATOM     18  C   UNL     1       1.009   8.863  20.528  0.00  0.00    +0.000 A 
ENDBRANCH   5  13
BRANCH   1  19
ATOM     19  C   UNL     1       2.533   3.917  19.864  0.00  0.00    +0.000 C 
ATOM     20  C   UNL     1       1.185   3.323  19.504  0.00  0.00    +0.000 C 
ATOM     21  C   UNL     1       1.434   3.815  20.902  0.00  0.00    +0.000 C 
BRANCH  19  23
ATOM     22  C   UNL     1       3.509   1.472  18.778  0.00  0.00    +0.000 C 
ATOM     23  S   UNL     1       3.849   2.663  20.048  0.00  0.00    +0.000 S 
ATOM     24  O   UNL     1       3.630   2.032  21.337  0.00  0.00    +0.000 OA
ATOM     25  O   UNL     1       5.120   3.289  19.739  0.00  0.00    +0.000 OA
ENDBRANCH  19  23
ENDBRANCH   1  19
TORSDOF 4
ENDMDL
MODEL 7
REMARK VINA RESULT:      -7.5      1.852      5.143
REMARK  Name = 
REMARK  5 active torsions:
REMARK  status: ('A' for Active; 'I' for Inactive)
REMARK    1  A    between atoms: C_1  and  S_2
REMARK    2  A    between atoms: S_2  and  C_5
REMARK    3  A    between atoms: C_5  and  C_6
REMARK    4  A    between atoms: C_8  and  N_9
REMARK    5  A    between atoms: C_16  and  C_17
REMARK                            x       y       z     vdW  Elec       q    Type
REMARK                         _______ _______ _______ _____ _____    ______ ____
ROOT
ATOM      1  C   UNL     1       2.804   4.820  18.813  0.00  0.00    +0.000 A 
ATOM      2  C   UNL     1       3.959   4.830  18.043  0.00  0.00    +0.000 A 
ATOM      3  C   UNL     1       4.426   6.032  17.548  0.00  0.00    +0.000 A 
ATOM      4  N   UNL     1       3.773   7.168  17.840  0.00  0.00    +0.000 NA
ATOM      5  C   UNL     1       2.678   7.105  18.617  0.00  0.00    +0.000 A 
ATOM      6  N   UNL     1       2.179   5.969  19.130  0.00  0.00    +0.000 NA
ENDROOT
BRANCH   3   7
ATOM      7  N   UNL     1       5.493   6.091  16.678  0.00  0.00    +0.000 N 
ATOM      8  C   UNL     1       5.374   5.911  15.225  0.00  0.00    +0.000 C 
ATOM      9  C   UNL     1       6.135   4.650  14.776  0.00  0.00    +0.000 C 
ATOM     10  O   UNL     1       7.495   4.647  15.239  0.00  0.00    +0.000 OA
ATOM     11  C   UNL     1       7.529   4.699  16.675  0.00  0.00    +0.000 C 
ATOM     12  C   UNL     1       6.865   5.980  17.195  0.00  0.00    +0.000 C 
ENDBRANCH   3   7
BRANCH   5  13
ATOM     13  C   UNL     1       1.924   8.352  18.857  0.00  0.00    +0.000 A 
ATOM     14  C   UNL     1       1.328   8.623  20.105  0.00  0.00    +0.000 A 
ATOM     15  C   UNL     1       0.642   9.817  20.343  0.00  0.00    +0.000 A 
ATOM     16  C   UNL     1       0.532  10.771  19.336  0.00  0.00    +0.000 A 
ATOM     17  C   UNL     1       1.108  10.532  18.093  0.00  0.00    +0.000 A 
ATOM     18  C   UNL     1       1.795   9.337  17.858  0.00  0.00    +0.000 A 
ENDBRANCH   5  13
BRANCH   1  19
ATOM     19  C   UNL     1       2.151   3.532  19.215  0.00  0.00    +0.000 C 
ATOM     20  C   UNL     1       2.020   2.400  18.215  0.00  0.00    +0.000 C 
ATOM     21  C   UNL     1       0.795   3.151  18.655  0.00  0.00    +0.000 C 
BRANCH  19  23
ATOM     22  C   UNL     1       4.025   2.168  20.867  0.00  0.00    +0.000 C 
ATOM     23  S   UNL     1       2.438   2.955  20.924  0.00  0.00    +0.000 S 
ATOM     24  O   UNL     1       1.433   1.940  21.184  0.00  0.00    +0.000 OA
ATOM     25  O   UNL     1       2.551   4.117  21.784  0.00  0.00    +0.000 OA
ENDBRANCH  19  23
ENDBRANCH   1  19
TORSDOF 4
ENDMDL
MODEL 8
REMARK VINA RESULT:      -7.4      1.265      2.426
REMARK  Name = 
REMARK  5 active torsions:
REMARK  status: ('A' for Active; 'I' for Inactive)
REMARK    1  A    between atoms: C_1  and  S_2
REMARK    2  A    between atoms: S_2  and  C_5
REMARK    3  A    between atoms: C_5  and  C_6
REMARK    4  A    between atoms: C_8  and  N_9
REMARK    5  A    between atoms: C_16  and  C_17
REMARK                            x       y       z     vdW  Elec       q    Type
REMARK                         _______ _______ _______ _____ _____    ______ ____
ROOT
ATOM      1  C   UNL     1       5.124   6.124  17.800  0.00  0.00    +0.000 A 
ATOM      2  C   UNL     1       4.679   4.899  18.277  0.00  0.00    +0.000 A 
ATOM      3  C   UNL     1       3.437   4.823  18.878  0.00  0.00    +0.000 A 
ATOM      4  N   UNL     1       2.675   5.924  18.966  0.00  0.00    +0.000 NA
ATOM      5  C   UNL     1       3.141   7.078  18.459  0.00  0.00    +0.000 A 
ATOM      6  N   UNL     1       4.335   7.213  17.860  0.00  0.00    +0.000 NA
ENDROOT
BRANCH   3   7
ATOM      7  N   UNL     1       2.995   3.666  19.480  0.00  0.00    +0.000 N 
ATOM      8  C   UNL     1       3.734   2.396  19.456  0.00  0.00    +0.000 C 
ATOM      9  C   UNL     1       2.938   1.325  18.689  0.00  0.00    +0.000 C 
ATOM     10  O   UNL     1       1.596   1.191  19.184  0.00  0.00    +0.000 OA
ATOM     11  C   UNL     1       0.896   2.441  19.061  0.00  0.00    +0.000 C 
ATOM     12  C   UNL     1       1.584   3.541  19.877  0.00  0.00    +0.000 C 
ENDBRANCH   3   7
BRANCH   5  13
ATOM     13  C   UNL     1       2.327   8.296  18.640  0.00  0.00    +0.000 A 
ATOM     14  C   UNL     1       1.529   8.485  19.785  0.00  0.00    +0.000 A 
ATOM     15  C   UNL     1       0.783   9.653  19.973  0.00  0.00    +0.000 A 
ATOM     16  C   UNL     1       0.815  10.662  19.015  0.00  0.00    +0.000 A 
ATOM     17  C   UNL     1       1.592  10.504  17.871  0.00  0.00    +0.000 A 
ATOM     18  C   UNL     1       2.337   9.335  17.688  0.00  0.00    +0.000 A 
ENDBRANCH   5  13
BRANCH   1  19
ATOM     19  C   UNL     1       6.531   6.302  17.313  0.00  0.00    +0.000 C 
ATOM     20  C   UNL     1       7.615   6.757  18.269  0.00  0.00    +0.000 C 
ATOM     21  C   UNL     1       7.131   7.687  17.192  0.00  0.00    +0.000 C 
BRANCH  19  23
ATOM     22  C   UNL     1       5.652   4.417  15.368  0.00  0.00    +0.000 C 
ATOM     23  S   UNL     1       7.128   5.120  16.054  0.00  0.00    +0.000 S 
ATOM     24  O   UNL     1       7.836   4.079  16.778  0.00  0.00    +0.000 OA
ATOM     25  O   UNL     1       7.790   5.869  15.004  0.00  0.00    +0.000 OA
ENDBRANCH  19  23
ENDBRANCH   1  19
TORSDOF 4
ENDMDL
MODEL 9
REMARK VINA RESULT:      -7.4      1.879      5.024
REMARK  Name = 
REMARK  5 active torsions:
REMARK  status: ('A' for Active; 'I' for Inactive)
REMARK    1  A    between atoms: C_1  and  S_2
REMARK    2  A    between atoms: S_2  and  C_5
REMARK    3  A    between atoms: C_5  and  C_6
REMARK    4  A    between atoms: C_8  and  N_9
REMARK    5  A    between atoms: C_16  and  C_17
REMARK                            x       y       z     vdW  Elec       q    Type
REMARK                         _______ _______ _______ _____ _____    ______ ____
ROOT
ATOM      1  C   UNL     1       2.872   4.724  18.700  0.00  0.00    +0.000 A 
ATOM      2  C   UNL     1       4.021   4.776  17.924  0.00  0.00    +0.000 A 
ATOM      3  C   UNL     1       4.469   6.000  17.466  0.00  0.00    +0.000 A 
ATOM      4  N   UNL     1       3.802   7.116  17.799  0.00  0.00    +0.000 NA
ATOM      5  C   UNL     1       2.713   7.013  18.580  0.00  0.00    +0.000 A 
ATOM      6  N   UNL     1       2.233   5.853  19.059  0.00  0.00    +0.000 NA
ENDROOT
BRANCH   3   7
ATOM      7  N   UNL     1       5.528   6.101  16.592  0.00  0.00    +0.000 N 
ATOM      8  C   UNL     1       5.403   5.967  15.135  0.00  0.00    +0.000 C 
ATOM      9  C   UNL     1       6.178   4.733  14.639  0.00  0.00    +0.000 C 
ATOM     10  O   UNL     1       7.541   4.734  15.094  0.00  0.00    +0.000 OA
ATOM     11  C   UNL     1       7.583   4.740  16.531  0.00  0.00    +0.000 C 
ATOM     12  C   UNL     1       6.906   5.993  17.096  0.00  0.00    +0.000 C 
ENDBRANCH   3   7
BRANCH   5  13
ATOM     13  C   UNL     1       1.944   8.240  18.867  0.00  0.00    +0.000 A 
ATOM     14  C   UNL     1       1.657   9.182  17.859  0.00  0.00    +0.000 A 
ATOM     15  C   UNL     1       0.902  10.328  18.122  0.00  0.00    +0.000 A 
ATOM     16  C   UNL     1       0.415  10.562  19.404  0.00  0.00    +0.000 A 
ATOM     17  C   UNL     1       0.682   9.652  20.422  0.00  0.00    +0.000 A 
ATOM     18  C   UNL     1       1.438   8.506  20.154  0.00  0.00    +0.000 A 
ENDBRANCH   5  13
BRANCH   1  19
ATOM     19  C   UNL     1       2.239   3.414  19.064  0.00  0.00    +0.000 C 
ATOM     20  C   UNL     1       2.138   2.307  18.034  0.00  0.00    +0.000 C 
ATOM     21  C   UNL     1       0.896   3.024  18.482  0.00  0.00    +0.000 C 
BRANCH  19  23
ATOM     22  C   UNL     1       2.476   4.254  21.774  0.00  0.00    +0.000 C 
ATOM     23  S   UNL     1       2.522   2.800  20.760  0.00  0.00    +0.000 S 
ATOM     24  O   UNL     1       3.874   2.271  20.780  0.00  0.00    +0.000 OA
ATOM     25  O   UNL     1       1.398   1.964  21.136  0.00  0.00    +0.000 OA
ENDBRANCH  19  23
ENDBRANCH   1  19
TORSDOF 4
ENDMDL
