MODEL 1
REMARK VINA RESULT:      -9.5      0.000      0.000
REMARK  Name = 
REMARK  8 active torsions:
REMARK  status: ('A' for Active; 'I' for Inactive)
REMARK    1  A    between atoms: C_1  and  C_2
REMARK    2  A    between atoms: C_5  and  C_6
REMARK    3  A    between atoms: C_7  and  C_8
REMARK    4  A    between atoms: C_10  and  C_11
REMARK    5  A    between atoms: C_11  and  O_13
REMARK    6  A    between atoms: C_15  and  S_16
REMARK    7  A    between atoms: S_16  and  N_19
REMARK    8  A    between atoms: N_22  and  C_23
REMARK                            x       y       z     vdW  Elec       q    Type
REMARK                         _______ _______ _______ _____ _____    ______ ____
ROOT
ATOM      1  C   UNL     1       2.209   6.695  20.047  0.00  0.00    +0.000 A 
ATOM      2  C   UNL     1       1.566   5.544  20.534  0.00  0.00    +0.000 A 
ATOM      3  C   UNL     1       2.129   4.259  20.451  0.00  0.00    +0.000 A 
ATOM      4  C   UNL     1       3.411   4.098  19.927  0.00  0.00    +0.000 A 
ATOM      5  C   UNL     1       4.093   5.226  19.460  0.00  0.00    +0.000 A 
ATOM      6  C   UNL     1       3.494   6.504  19.490  0.00  0.00    +0.000 A 
ENDROOT
BRANCH   1  13
ATOM      7  C   UNL     1      -0.274   9.766  23.123  0.00  0.00    +0.000 C 
ATOM      8  C   UNL     1       0.360   9.549  21.781  0.00  0.00    +0.000 A 
ATOM      9  C   UNL     1       0.148  10.453  20.747  0.00  0.00    +0.000 A 
ATOM     10  C   UNL     1       0.672  10.194  19.486  0.00  0.00    +0.000 A 
ATOM     11  C   UNL     1       1.404   9.016  19.216  0.00  0.00    +0.000 A 
ATOM     12  C   UNL     1       1.873   8.860  17.789  0.00  0.00    +0.000 C 
ATOM     13  C   UNL     1       1.606   8.053  20.245  0.00  0.00    +0.000 A 
ATOM     14  C   UNL     1       1.094   8.376  21.526  0.00  0.00    +0.000 A 
ENDBRANCH   1  13
BRANCH   5  15
ATOM     15  S   UNL     1       5.757   5.011  18.846  0.00  0.00    +0.000 S 
ATOM     16  O   UNL     1       6.634   5.391  19.937  0.00  0.00    +0.000 OA
ATOM     17  O   UNL     1       5.841   3.705  18.228  0.00  0.00    +0.000 OA
BRANCH  15  18
ATOM     18  N   UNL     1       5.891   6.195  17.629  0.00  0.00    +0.000 NA
ATOM     19  C   UNL     1       4.821   6.242  16.583  0.00  0.00    +0.000 C 
ATOM     20  C   UNL     1       5.030   5.194  15.474  0.00  0.00    +0.000 C 
ATOM     21  N   UNL     1       6.358   5.268  14.837  0.00  0.00    +0.000 NA
ATOM     22  C   UNL     1       6.529   4.151  13.903  0.00  0.00    +0.000 C 
ATOM     23  C   UNL     1       7.429   5.245  15.855  0.00  0.00    +0.000 C 
ATOM     24  C   UNL     1       7.236   6.293  16.973  0.00  0.00    +0.000 C 
ENDBRANCH  15  18
ENDBRANCH   5  15
BRANCH   3  25
ATOM     25  C   UNL     1       1.342   3.133  21.024  0.00  0.00    +0.000 C 
ATOM     26  O   UNL     1       1.619   2.623  22.096  0.00  0.00    +0.000 OA
BRANCH  25  27
ATOM     27  O   UNL     1       0.285   2.750  20.287  0.00  0.00    +0.000 OA
ATOM     28  H   UNL     1      -0.591   2.961  20.655  0.00  0.00    +0.000 HD
ENDBRANCH  25  27
ENDBRANCH   3  25
TORSDOF 5
ENDMDL
MODEL 2
REMARK VINA RESULT:      -8.2      1.662      2.179
REMARK  Name = 
REMARK  8 active torsions:
REMARK  status: ('A' for Active; 'I' for Inactive)
REMARK    1  A    between atoms: C_1  and  C_2
REMARK    2  A    between atoms: C_5  and  C_6
REMARK    3  A    between atoms: C_7  and  C_8
REMARK    4  A    between atoms: C_10  and  C_11
REMARK    5  A    between atoms: C_11  and  O_13
REMARK    6  A    between atoms: C_15  and  S_16
REMARK    7  A    between atoms: S_16  and  N_19
REMARK    8  A    between atoms: N_22  and  C_23
REMARK                            x       y       z     vdW  Elec       q    Type
REMARK                         _______ _______ _______ _____ _____    ______ ____
ROOT
ATOM      1  C   UNL     1       2.012   6.629  19.783  0.00  0.00    +0.000 A 
ATOM      2  C   UNL     1       1.732   5.541  20.630  0.00  0.00    +0.000 A 
ATOM      3  C   UNL     1       2.180   4.234  20.372  0.00  0.00    +0.000 A 
ATOM      4  C   UNL     1       2.995   3.987  19.268  0.00  0.00    +0.000 A 
ATOM      5  C   UNL     1       3.319   5.052  18.420  0.00  0.00    +0.000 A 
ATOM      6  C   UNL     1       2.814   6.348  18.653  0.00  0.00    +0.000 A 
ENDROOT
BRANCH   1  13
ATOM      7  C   UNL     1      -0.004   9.604  23.267  0.00  0.00    +0.000 C 
ATOM      8  C   UNL     1       0.574   9.467  21.890  0.00  0.00    +0.000 A 
ATOM      9  C   UNL     1       0.460  10.506  20.972  0.00  0.00    +0.000 A 
ATOM     10  C   UNL     1       0.925  10.333  19.674  0.00  0.00    +0.000 A 
ATOM     11  C   UNL     1       1.495   9.113  19.248  0.00  0.00    +0.000 A 
ATOM     12  C   UNL     1       1.916   9.068  17.798  0.00  0.00    +0.000 C 
ATOM     13  C   UNL     1       1.591   8.018  20.153  0.00  0.00    +0.000 A 
ATOM     14  C   UNL     1       1.147   8.251  21.479  0.00  0.00    +0.000 A 
ENDBRANCH   1  13
BRANCH   5  15
ATOM     15  S   UNL     1       4.413   4.730  17.045  0.00  0.00    +0.000 S 
ATOM     16  O   UNL     1       3.948   3.491  16.451  0.00  0.00    +0.000 OA
ATOM     17  O   UNL     1       4.527   5.946  16.268  0.00  0.00    +0.000 OA
BRANCH  15  18
ATOM     18  N   UNL     1       5.914   4.422  17.790  0.00  0.00    +0.000 NA
ATOM     19  C   UNL     1       6.178   5.068  19.116  0.00  0.00    +0.000 C 
ATOM     20  C   UNL     1       6.636   6.531  18.980  0.00  0.00    +0.000 C 
ATOM     21  N   UNL     1       7.805   6.704  18.096  0.00  0.00    +0.000 NA
ATOM     22  C   UNL     1       8.083   8.130  17.905  0.00  0.00    +0.000 C 
ATOM     23  C   UNL     1       7.572   6.054  16.789  0.00  0.00    +0.000 C 
ATOM     24  C   UNL     1       7.115   4.583  16.907  0.00  0.00    +0.000 C 
ENDBRANCH  15  18
ENDBRANCH   5  15
BRANCH   3  25
ATOM     25  C   UNL     1       1.822   3.185  21.365  0.00  0.00    +0.000 C 
ATOM     26  O   UNL     1       2.560   2.880  22.284  0.00  0.00    +0.000 OA
BRANCH  25  27
ATOM     27  O   UNL     1       0.611   2.629  21.187  0.00  0.00    +0.000 OA
ATOM     28  H   UNL     1       0.603   1.673  20.999  0.00  0.00    +0.000 HD
ENDBRANCH  25  27
ENDBRANCH   3  25
TORSDOF 5
ENDMDL
MODEL 3
REMARK VINA RESULT:      -7.8      1.389      1.854
REMARK  Name = 
REMARK  8 active torsions:
REMARK  status: ('A' for Active; 'I' for Inactive)
REMARK    1  A    between atoms: C_1  and  C_2
REMARK    2  A    between atoms: C_5  and  C_6
REMARK    3  A    between atoms: C_7  and  C_8
REMARK    4  A    between atoms: C_10  and  C_11
REMARK    5  A    between atoms: C_11  and  O_13
REMARK    6  A    between atoms: C_15  and  S_16
REMARK    7  A    between atoms: S_16  and  N_19
REMARK    8  A    between atoms: N_22  and  C_23
REMARK                            x       y       z     vdW  Elec       q    Type
REMARK                         _______ _______ _______ _____ _____    ______ ____
ROOT
ATOM      1  C   UNL     1       2.101   7.253  19.789  0.00  0.00    +0.000 A 
ATOM      2  C   UNL     1       1.920   6.006  20.414  0.00  0.00    +0.000 A 
ATOM      3  C   UNL     1       2.668   4.865  20.078  0.00  0.00    +0.000 A 
ATOM      4  C   UNL     1       3.687   4.960  19.132  0.00  0.00    +0.000 A 
ATOM      5  C   UNL     1       3.916   6.193  18.512  0.00  0.00    +0.000 A 
ATOM      6  C   UNL     1       3.118   7.318  18.811  0.00  0.00    +0.000 A 
ENDROOT
BRANCH   1  13
ATOM      7  C   UNL     1      -0.196   9.551  23.598  0.00  0.00    +0.000 C 
ATOM      8  C   UNL     1       0.195   9.569  22.150  0.00  0.00    +0.000 A 
ATOM      9  C   UNL     1      -0.351  10.511  21.284  0.00  0.00    +0.000 A 
ATOM     10  C   UNL     1      -0.045  10.461  19.929  0.00  0.00    +0.000 A 
ATOM     11  C   UNL     1       0.797   9.460  19.397  0.00  0.00    +0.000 A 
ATOM     12  C   UNL     1       1.002   9.517  17.902  0.00  0.00    +0.000 C 
ATOM     13  C   UNL     1       1.341   8.459  20.251  0.00  0.00    +0.000 A 
ATOM     14  C   UNL     1       1.041   8.572  21.632  0.00  0.00    +0.000 A 
ENDBRANCH   1  13
BRANCH   5  15
ATOM     15  S   UNL     1       5.265   6.313  17.347  0.00  0.00    +0.000 S 
ATOM     16  O   UNL     1       4.688   6.842  16.126  0.00  0.00    +0.000 OA
ATOM     17  O   UNL     1       6.371   6.971  18.007  0.00  0.00    +0.000 OA
BRANCH  15  18
ATOM     18  N   UNL     1       5.694   4.688  17.062  0.00  0.00    +0.000 NA
ATOM     19  C   UNL     1       7.122   4.396  16.717  0.00  0.00    +0.000 C 
ATOM     20  C   UNL     1       7.436   4.656  15.233  0.00  0.00    +0.000 C 
ATOM     21  N   UNL     1       6.539   3.939  14.306  0.00  0.00    +0.000 NA
ATOM     22  C   UNL     1       6.810   4.352  12.926  0.00  0.00    +0.000 C 
ATOM     23  C   UNL     1       5.124   4.197  14.644  0.00  0.00    +0.000 C 
ATOM     24  C   UNL     1       4.790   3.939  16.130  0.00  0.00    +0.000 C 
ENDBRANCH  15  18
ENDBRANCH   5  15
BRANCH   3  25
ATOM     25  C   UNL     1       2.380   3.615  20.834  0.00  0.00    +0.000 C 
ATOM     26  O   UNL     1       2.300   3.594  22.050  0.00  0.00    +0.000 OA
BRANCH  25  27
ATOM     27  O   UNL     1       2.180   2.527  20.071  0.00  0.00    +0.000 OA
ATOM     28  H   UNL     1       2.806   1.792  20.203  0.00  0.00    +0.000 HD
ENDBRANCH  25  27
ENDBRANCH   3  25
TORSDOF 5
ENDMDL
MODEL 4
REMARK VINA RESULT:      -7.8      3.393      7.353
REMARK  Name = 
REMARK  8 active torsions:
REMARK  status: ('A' for Active; 'I' for Inactive)
REMARK    1  A    between atoms: C_1  and  C_2
REMARK    2  A    between atoms: C_5  and  C_6
REMARK    3  A    between atoms: C_7  and  C_8
REMARK    4  A    between atoms: C_10  and  C_11
REMARK    5  A    between atoms: C_11  and  O_13
REMARK    6  A    between atoms: C_15  and  S_16
REMARK    7  A    between atoms: S_16  and  N_19
REMARK    8  A    between atoms: N_22  and  C_23
REMARK                            x       y       z     vdW  Elec       q    Type
REMARK                         _______ _______ _______ _____ _____    ______ ____
ROOT
ATOM      1  C   UNL     1       4.067   6.108  18.138  0.00  0.00    +0.000 A 
ATOM      2  C   UNL     1       3.439   5.261  19.069  0.00  0.00    +0.000 A 
ATOM      3  C   UNL     1       2.309   5.643  19.813  0.00  0.00    +0.000 A 
ATOM      4  C   UNL     1       1.725   6.889  19.592  0.00  0.00    +0.000 A 
ATOM      5  C   UNL     1       2.305   7.747  18.651  0.00  0.00    +0.000 A 
ATOM      6  C   UNL     1       3.476   7.378  17.954  0.00  0.00    +0.000 A 
ENDROOT
BRANCH   1  13
ATOM      7  C   UNL     1       5.527   4.170  13.760  0.00  0.00    +0.000 C 
ATOM      8  C   UNL     1       5.906   4.641  15.133  0.00  0.00    +0.000 A 
ATOM      9  C   UNL     1       7.172   4.378  15.644  0.00  0.00    +0.000 A 
ATOM     10  C   UNL     1       7.479   4.746  16.948  0.00  0.00    +0.000 A 
ATOM     11  C   UNL     1       6.527   5.368  17.786  0.00  0.00    +0.000 A 
ATOM     12  C   UNL     1       7.000   5.671  19.188  0.00  0.00    +0.000 C 
ATOM     13  C   UNL     1       5.210   5.617  17.304  0.00  0.00    +0.000 A 
ATOM     14  C   UNL     1       4.952   5.267  15.955  0.00  0.00    +0.000 A 
ENDBRANCH   1  13
BRANCH   5  15
ATOM     15  S   UNL     1       1.510   9.315  18.337  0.00  0.00    +0.000 S 
ATOM     16  O   UNL     1       2.579  10.252  18.051  0.00  0.00    +0.000 OA
ATOM     17  O   UNL     1       0.430   9.090  17.401  0.00  0.00    +0.000 OA
BRANCH  15  18
ATOM     18  N   UNL     1       0.838   9.733  19.847  0.00  0.00    +0.000 NA
ATOM     19  C   UNL     1      -0.648   9.898  19.925  0.00  0.00    +0.000 C 
ATOM     20  C   UNL     1      -1.118  11.276  19.425  0.00  0.00    +0.000 C 
ATOM     21  N   UNL     1      -0.451  12.406  20.099  0.00  0.00    +0.000 NA
ATOM     22  C   UNL     1      -0.843  13.669  19.467  0.00  0.00    +0.000 C 
ATOM     23  C   UNL     1       1.018  12.251  20.052  0.00  0.00    +0.000 C 
ATOM     24  C   UNL     1       1.506  10.874  20.553  0.00  0.00    +0.000 C 
ENDBRANCH  15  18
ENDBRANCH   5  15
BRANCH   3  25
ATOM     25  C   UNL     1       1.739   4.636  20.749  0.00  0.00    +0.000 C 
ATOM     26  O   UNL     1       2.322   4.284  21.760  0.00  0.00    +0.000 OA
BRANCH  25  27
ATOM     27  O   UNL     1       0.522   4.177  20.412  0.00  0.00    +0.000 OA
ATOM     28  H   UNL     1       0.366   3.228  20.567  0.00  0.00    +0.000 HD
ENDBRANCH  25  27
ENDBRANCH   3  25
TORSDOF 5
ENDMDL
MODEL 5
REMARK VINA RESULT:      -7.5      0.701      1.792
REMARK  Name = 
REMARK  8 active torsions:
REMARK  status: ('A' for Active; 'I' for Inactive)
REMARK    1  A    between atoms: C_1  and  C_2
REMARK    2  A    between atoms: C_5  and  C_6
REMARK    3  A    between atoms: C_7  and  C_8
REMARK    4  A    between atoms: C_10  and  C_11
REMARK    5  A    between atoms: C_11  and  O_13
REMARK    6  A    between atoms: C_15  and  S_16
REMARK    7  A    between atoms: S_16  and  N_19
REMARK    8  A    between atoms: N_22  and  C_23
REMARK                            x       y       z     vdW  Elec       q    Type
REMARK                         _______ _______ _______ _____ _____    ______ ____
ROOT
ATOM      1  C   UNL     1       2.262   6.868  19.722  0.00  0.00    +0.000 A 
ATOM      2  C   UNL     1       1.620   5.775  20.333  0.00  0.00    +0.000 A 
ATOM      3  C   UNL     1       2.195   4.495  20.413  0.00  0.00    +0.000 A 
ATOM      4  C   UNL     1       3.487   4.287  19.932  0.00  0.00    +0.000 A 
ATOM      5  C   UNL     1       4.168   5.359  19.345  0.00  0.00    +0.000 A 
ATOM      6  C   UNL     1       3.558   6.624  19.214  0.00  0.00    +0.000 A 
ENDROOT
BRANCH   1  13
ATOM      7  C   UNL     1       2.201  11.475  17.765  0.00  0.00    +0.000 C 
ATOM      8  C   UNL     1       1.645  10.513  18.772  0.00  0.00    +0.000 A 
ATOM      9  C   UNL     1       0.822  10.964  19.798  0.00  0.00    +0.000 A 
ATOM     10  C   UNL     1       0.383  10.075  20.772  0.00  0.00    +0.000 A 
ATOM     11  C   UNL     1       0.771   8.717  20.763  0.00  0.00    +0.000 A 
ATOM     12  C   UNL     1       0.245   7.887  21.910  0.00  0.00    +0.000 C 
ATOM     13  C   UNL     1       1.643   8.232  19.747  0.00  0.00    +0.000 A 
ATOM     14  C   UNL     1       2.030   9.160  18.749  0.00  0.00    +0.000 A 
ENDBRANCH   1  13
BRANCH   5  15
ATOM     15  S   UNL     1       5.844   5.089  18.789  0.00  0.00    +0.000 S 
ATOM     16  O   UNL     1       6.696   5.477  19.896  0.00  0.00    +0.000 OA
ATOM     17  O   UNL     1       5.915   3.766  18.207  0.00  0.00    +0.000 OA
BRANCH  15  18
ATOM     18  N   UNL     1       6.043   6.238  17.546  0.00  0.00    +0.000 NA
ATOM     19  C   UNL     1       4.960   6.344  16.517  0.00  0.00    +0.000 C 
ATOM     20  C   UNL     1       5.072   5.264  15.426  0.00  0.00    +0.000 C 
ATOM     21  N   UNL     1       6.391   5.227  14.766  0.00  0.00    +0.000 NA
ATOM     22  C   UNL     1       6.462   4.084  13.851  0.00  0.00    +0.000 C 
ATOM     23  C   UNL     1       7.475   5.144  15.766  0.00  0.00    +0.000 C 
ATOM     24  C   UNL     1       7.380   6.224  16.867  0.00  0.00    +0.000 C 
ENDBRANCH  15  18
ENDBRANCH   5  15
BRANCH   3  25
ATOM     25  C   UNL     1       1.407   3.438  21.103  0.00  0.00    +0.000 C 
ATOM     26  O   UNL     1       1.723   2.999  22.194  0.00  0.00    +0.000 OA
BRANCH  25  27
ATOM     27  O   UNL     1       0.307   3.034  20.445  0.00  0.00    +0.000 OA
ATOM     28  H   UNL     1       0.271   3.253  19.497  0.00  0.00    +0.000 HD
ENDBRANCH  25  27
ENDBRANCH   3  25
TORSDOF 5
ENDMDL
MODEL 6
REMARK VINA RESULT:      -7.4      3.528      8.233
REMARK  Name = 
REMARK  8 active torsions:
REMARK  status: ('A' for Active; 'I' for Inactive)
REMARK    1  A    between atoms: C_1  and  C_2
REMARK    2  A    between atoms: C_5  and  C_6
REMARK    3  A    between atoms: C_7  and  C_8
REMARK    4  A    between atoms: C_10  and  C_11
REMARK    5  A    between atoms: C_11  and  O_13
REMARK    6  A    between atoms: C_15  and  S_16
REMARK    7  A    between atoms: S_16  and  N_19
REMARK    8  A    between atoms: N_22  and  C_23
REMARK                            x       y       z     vdW  Elec       q    Type
REMARK                         _______ _______ _______ _____ _____    ______ ____
ROOT
ATOM      1  C   UNL     1       6.028   4.831  15.305  0.00  0.00    +0.000 A 
ATOM      2  C   UNL     1       6.818   5.809  15.937  0.00  0.00    +0.000 A 
ATOM      3  C   UNL     1       6.787   6.041  17.322  0.00  0.00    +0.000 A 
ATOM      4  C   UNL     1       5.997   5.235  18.141  0.00  0.00    +0.000 A 
ATOM      5  C   UNL     1       5.222   4.231  17.551  0.00  0.00    +0.000 A 
ATOM      6  C   UNL     1       5.212   4.047  16.152  0.00  0.00    +0.000 A 
ENDROOT
BRANCH   1  13
ATOM      7  C   UNL     1       4.106   2.610  11.252  0.00  0.00    +0.000 C 
ATOM      8  C   UNL     1       5.205   3.438  11.848  0.00  0.00    +0.000 A 
ATOM      9  C   UNL     1       6.369   3.686  11.130  0.00  0.00    +0.000 A 
ATOM     10  C   UNL     1       7.413   4.383  11.728  0.00  0.00    +0.000 A 
ATOM     11  C   UNL     1       7.333   4.833  13.064  0.00  0.00    +0.000 A 
ATOM     12  C   UNL     1       8.563   5.540  13.582  0.00  0.00    +0.000 C 
ATOM     13  C   UNL     1       6.169   4.562  13.838  0.00  0.00    +0.000 A 
ATOM     14  C   UNL     1       5.111   3.889  13.177  0.00  0.00    +0.000 A 
ENDBRANCH   1  13
BRANCH   5  15
ATOM     15  S   UNL     1       4.262   3.170  18.620  0.00  0.00    +0.000 S 
ATOM     16  O   UNL     1       3.855   2.045  17.800  0.00  0.00    +0.000 OA
ATOM     17  O   UNL     1       5.003   2.982  19.848  0.00  0.00    +0.000 OA
BRANCH  15  18
ATOM     18  N   UNL     1       2.874   4.097  18.963  0.00  0.00    +0.000 NA
ATOM     19  C   UNL     1       2.853   4.871  20.244  0.00  0.00    +0.000 C 
ATOM     20  C   UNL     1       2.473   4.000  21.456  0.00  0.00    +0.000 C 
ATOM     21  N   UNL     1       1.198   3.278  21.285  0.00  0.00    +0.000 NA
ATOM     22  C   UNL     1       0.984   2.365  22.412  0.00  0.00    +0.000 C 
ATOM     23  C   UNL     1       1.189   2.524  20.014  0.00  0.00    +0.000 C 
ATOM     24  C   UNL     1       1.566   3.384  18.787  0.00  0.00    +0.000 C 
ENDBRANCH  15  18
ENDBRANCH   5  15
BRANCH   3  25
ATOM     25  C   UNL     1       7.689   7.098  17.855  0.00  0.00    +0.000 C 
ATOM     26  O   UNL     1       7.849   8.164  17.288  0.00  0.00    +0.000 OA
BRANCH  25  27
ATOM     27  O   UNL     1       8.283   6.798  19.023  0.00  0.00    +0.000 OA
ATOM     28  H   UNL     1       8.672   7.547  19.509  0.00  0.00    +0.000 HD
ENDBRANCH  25  27
ENDBRANCH   3  25
TORSDOF 5
ENDMDL
MODEL 7
REMARK VINA RESULT:      -7.4      1.046      1.945
REMARK  Name = 
REMARK  8 active torsions:
REMARK  status: ('A' for Active; 'I' for Inactive)
REMARK    1  A    between atoms: C_1  and  C_2
REMARK    2  A    between atoms: C_5  and  C_6
REMARK    3  A    between atoms: C_7  and  C_8
REMARK    4  A    between atoms: C_10  and  C_11
REMARK    5  A    between atoms: C_11  and  O_13
REMARK    6  A    between atoms: C_15  and  S_16
REMARK    7  A    between atoms: S_16  and  N_19
REMARK    8  A    between atoms: N_22  and  C_23
REMARK                            x       y       z     vdW  Elec       q    Type
REMARK                         _______ _______ _______ _____ _____    ______ ____
ROOT
ATOM      1  C   UNL     1       2.103   6.523  19.903  0.00  0.00    +0.000 A 
ATOM      2  C   UNL     1       1.281   5.406  20.139  0.00  0.00    +0.000 A 
ATOM      3  C   UNL     1       1.715   4.082  19.952  0.00  0.00    +0.000 A 
ATOM      4  C   UNL     1       3.035   3.833  19.580  0.00  0.00    +0.000 A 
ATOM      5  C   UNL     1       3.890   4.920  19.367  0.00  0.00    +0.000 A 
ATOM      6  C   UNL     1       3.428   6.246  19.496  0.00  0.00    +0.000 A 
ENDROOT
BRANCH   1  13
ATOM      7  C   UNL     1      -0.040   9.572  23.245  0.00  0.00    +0.000 C 
ATOM      8  C   UNL     1       0.542   9.394  21.874  0.00  0.00    +0.000 A 
ATOM      9  C   UNL     1       0.382  10.381  20.908  0.00  0.00    +0.000 A 
ATOM     10  C   UNL     1       0.852  10.166  19.618  0.00  0.00    +0.000 A 
ATOM     11  C   UNL     1       1.476   8.953  19.250  0.00  0.00    +0.000 A 
ATOM     12  C   UNL     1       1.896   8.856  17.803  0.00  0.00    +0.000 C 
ATOM     13  C   UNL     1       1.620   7.908  20.207  0.00  0.00    +0.000 A 
ATOM     14  C   UNL     1       1.168   8.185  21.521  0.00  0.00    +0.000 A 
ENDBRANCH   1  13
BRANCH   5  15
ATOM     15  S   UNL     1       5.594   4.581  18.949  0.00  0.00    +0.000 S 
ATOM     16  O   UNL     1       6.390   5.420  19.824  0.00  0.00    +0.000 OA
ATOM     17  O   UNL     1       5.769   3.145  18.912  0.00  0.00    +0.000 OA
BRANCH  15  18
ATOM     18  N   UNL     1       5.745   5.185  17.363  0.00  0.00    +0.000 NA
ATOM     19  C   UNL     1       7.121   5.266  16.778  0.00  0.00    +0.000 C 
ATOM     20  C   UNL     1       7.889   6.518  17.243  0.00  0.00    +0.000 C 
ATOM     21  N   UNL     1       7.164   7.779  16.997  0.00  0.00    +0.000 NA
ATOM     22  C   UNL     1       7.891   8.901  17.597  0.00  0.00    +0.000 C 
ATOM     23  C   UNL     1       5.794   7.711  17.548  0.00  0.00    +0.000 C 
ATOM     24  C   UNL     1       5.009   6.463  17.089  0.00  0.00    +0.000 C 
ENDBRANCH  15  18
ENDBRANCH   5  15
BRANCH   3  25
ATOM     25  C   UNL     1       0.741   2.999  20.257  0.00  0.00    +0.000 C 
ATOM     26  O   UNL     1       0.030   2.502  19.402  0.00  0.00    +0.000 OA
BRANCH  25  27
ATOM     27  O   UNL     1       0.735   2.589  21.538  0.00  0.00    +0.000 OA
ATOM     28  H   UNL     1       0.003   2.000  21.794  0.00  0.00    +0.000 HD
ENDBRANCH  25  27
ENDBRANCH   3  25
TORSDOF 5
ENDMDL
MODEL 8
REMARK VINA RESULT:      -7.4      3.153      6.667
REMARK  Name = 
REMARK  8 active torsions:
REMARK  status: ('A' for Active; 'I' for Inactive)
REMARK    1  A    between atoms: C_1  and  C_2
REMARK    2  A    between atoms: C_5  and  C_6
REMARK    3  A    between atoms: C_7  and  C_8
REMARK    4  A    between atoms: C_10  and  C_11
REMARK    5  A    between atoms: C_11  and  O_13
REMARK    6  A    between atoms: C_15  and  S_16
REMARK    7  A    between atoms: S_16  and  N_19
REMARK    8  A    between atoms: N_22  and  C_23
REMARK                            x       y       z     vdW  Elec       q    Type
REMARK                         _______ _______ _______ _____ _____    ______ ____
ROOT
ATOM      1  C   UNL     1       3.496   5.829  19.160  0.00  0.00    +0.000 A 
ATOM      2  C   UNL     1       2.914   4.677  19.718  0.00  0.00    +0.000 A 
ATOM      3  C   UNL     1       1.843   4.723  20.627  0.00  0.00    +0.000 A 
ATOM      4  C   UNL     1       1.269   5.950  20.958  0.00  0.00    +0.000 A 
ATOM      5  C   UNL     1       1.803   7.115  20.397  0.00  0.00    +0.000 A 
ATOM      6  C   UNL     1       2.918   7.063  19.535  0.00  0.00    +0.000 A 
ENDROOT
BRANCH   1  13
ATOM      7  C   UNL     1       7.729   7.749  17.301  0.00  0.00    +0.000 C 
ATOM      8  C   UNL     1       6.661   6.699  17.212  0.00  0.00    +0.000 A 
ATOM      9  C   UNL     1       6.569   5.880  16.092  0.00  0.00    +0.000 A 
ATOM     10  C   UNL     1       5.523   4.971  15.987  0.00  0.00    +0.000 A 
ATOM     11  C   UNL     1       4.529   4.868  16.984  0.00  0.00    +0.000 A 
ATOM     12  C   UNL     1       3.437   3.862  16.706  0.00  0.00    +0.000 C 
ATOM     13  C   UNL     1       4.574   5.719  18.125  0.00  0.00    +0.000 A 
ATOM     14  C   UNL     1       5.681   6.600  18.216  0.00  0.00    +0.000 A 
ENDBRANCH   1  13
BRANCH   5  15
ATOM     15  S   UNL     1       1.018   8.672  20.785  0.00  0.00    +0.000 S 
ATOM     16  O   UNL     1      -0.408   8.404  20.800  0.00  0.00    +0.000 OA
ATOM     17  O   UNL     1       1.693   9.241  21.932  0.00  0.00    +0.000 OA
BRANCH  15  18
ATOM     18  N   UNL     1       1.355   9.641  19.424  0.00  0.00    +0.000 NA
ATOM     19  C   UNL     1       1.428  11.123  19.626  0.00  0.00    +0.000 C 
ATOM     20  C   UNL     1       0.039  11.786  19.654  0.00  0.00    +0.000 C 
ATOM     21  N   UNL     1      -0.784  11.481  18.467  0.00  0.00    +0.000 NA
ATOM     22  C   UNL     1      -2.134  12.024  18.640  0.00  0.00    +0.000 C 
ATOM     23  C   UNL     1      -0.851  10.022  18.238  0.00  0.00    +0.000 C 
ATOM     24  C   UNL     1       0.535   9.341  18.204  0.00  0.00    +0.000 C 
ENDBRANCH  15  18
ENDBRANCH   5  15
BRANCH   3  25
ATOM     25  C   UNL     1       1.316   3.423  21.124  0.00  0.00    +0.000 C 
ATOM     26  O   UNL     1       1.732   2.897  22.141  0.00  0.00    +0.000 OA
BRANCH  25  27
ATOM     27  O   UNL     1       0.325   2.895  20.385  0.00  0.00    +0.000 OA
ATOM     28  H   UNL     1      -0.574   3.211  20.587  0.00  0.00    +0.000 HD
ENDBRANCH  25  27
ENDBRANCH   3  25
TORSDOF 5
ENDMDL
MODEL 9
REMARK VINA RESULT:      -7.3      2.763      7.794
REMARK  Name = 
REMARK  8 active torsions:
REMARK  status: ('A' for Active; 'I' for Inactive)
REMARK    1  A    between atoms: C_1  and  C_2
REMARK    2  A    between atoms: C_5  and  C_6
REMARK    3  A    between atoms: C_7  and  C_8
REMARK    4  A    between atoms: C_10  and  C_11
REMARK    5  A    between atoms: C_11  and  O_13
REMARK    6  A    between atoms: C_15  and  S_16
REMARK    7  A    between atoms: S_16  and  N_19
REMARK    8  A    between atoms: N_22  and  C_23
REMARK                            x       y       z     vdW  Elec       q    Type
REMARK                         _______ _______ _______ _____ _____    ______ ____
ROOT
ATOM      1  C   UNL     1       5.908   4.500  15.897  0.00  0.00    +0.000 A 
ATOM      2  C   UNL     1       6.769   5.217  16.747  0.00  0.00    +0.000 A 
ATOM      3  C   UNL     1       6.635   5.221  18.146  0.00  0.00    +0.000 A 
ATOM      4  C   UNL     1       5.654   4.436  18.749  0.00  0.00    +0.000 A 
ATOM      5  C   UNL     1       4.800   3.685  17.936  0.00  0.00    +0.000 A 
ATOM      6  C   UNL     1       4.902   3.735  16.529  0.00  0.00    +0.000 A 
ENDROOT
BRANCH   1  13
ATOM      7  C   UNL     1       4.481   2.648  11.470  0.00  0.00    +0.000 C 
ATOM      8  C   UNL     1       5.437   3.510  12.241  0.00  0.00    +0.000 A 
ATOM      9  C   UNL     1       6.594   3.990  11.639  0.00  0.00    +0.000 A 
ATOM     10  C   UNL     1       7.512   4.716  12.390  0.00  0.00    +0.000 A 
ATOM     11  C   UNL     1       7.310   4.965  13.765  0.00  0.00    +0.000 A 
ATOM     12  C   UNL     1       8.415   5.733  14.451  0.00  0.00    +0.000 C 
ATOM     13  C   UNL     1       6.153   4.454  14.419  0.00  0.00    +0.000 A 
ATOM     14  C   UNL     1       5.222   3.758  13.608  0.00  0.00    +0.000 A 
ENDBRANCH   1  13
BRANCH   5  15
ATOM     15  S   UNL     1       3.588   2.638  18.727  0.00  0.00    +0.000 S 
ATOM     16  O   UNL     1       3.620   1.379  18.007  0.00  0.00    +0.000 OA
ATOM     17  O   UNL     1       3.809   2.698  20.156  0.00  0.00    +0.000 OA
BRANCH  15  18
ATOM     18  N   UNL     1       2.106   3.404  18.377  0.00  0.00    +0.000 NA
ATOM     19  C   UNL     1       2.157   4.781  17.790  0.00  0.00    +0.000 C 
ATOM     20  C   UNL     1       2.376   5.870  18.856  0.00  0.00    +0.000 C 
ATOM     21  N   UNL     1       1.391   5.828  19.953  0.00  0.00    +0.000 NA
ATOM     22  C   UNL     1       1.756   6.795  20.992  0.00  0.00    +0.000 C 
ATOM     23  C   UNL     1       1.310   4.470  20.532  0.00  0.00    +0.000 C 
ATOM     24  C   UNL     1       1.087   3.365  19.476  0.00  0.00    +0.000 C 
ENDBRANCH  15  18
ENDBRANCH   5  15
BRANCH   3  25
ATOM     25  C   UNL     1       7.629   6.013  18.922  0.00  0.00    +0.000 C 
ATOM     26  O   UNL     1       8.139   7.028  18.482  0.00  0.00    +0.000 OA
BRANCH  25  27
ATOM     27  O   UNL     1       7.890   5.541  20.153  0.00  0.00    +0.000 OA
ATOM     28  H   UNL     1       7.159   5.072  20.594  0.00  0.00    +0.000 HD
ENDBRANCH  25  27
ENDBRANCH   3  25
TORSDOF 5
ENDMDL
