MODEL 1
REMARK VINA RESULT:      -8.3      0.000      0.000
REMARK  Name = 
REMARK  7 active torsions:
REMARK  status: ('A' for Active; 'I' for Inactive)
REMARK    1  A    between atoms: C_2  and  C_5
REMARK    2  A    between atoms: N_3  and  O_4
REMARK    3  A    between atoms: N_8  and  C1*_9
REMARK    4  A    between atoms: C4*_11  and  C5*_12
REMARK    5  A    between atoms: C5*_12  and  O5*_13
REMARK    6  A    between atoms: C3*_14  and  O3*_15
REMARK    7  A    between atoms: C2*_16  and  O2*_17
REMARK                            x       y       z     vdW  Elec       q    Type
REMARK                         _______ _______ _______ _____ _____    ______ ____
ROOT
ATOM      1  C   UNL     1       6.450   5.794  17.508  0.00  0.00    +0.000 A 
ATOM      2  C   UNL     1       5.345   5.255  18.131  0.00  0.00    +0.000 A 
ATOM      3 CL   UNL     1       4.795   5.541  19.726  0.00  0.00    +0.000 Cl
ATOM      4  N   UNL     1       4.647   4.446  17.273  0.00  0.00    +0.000 N 
ATOM      5  C   UNL     1       5.289   4.468  16.035  0.00  0.00    +0.000 A 
ATOM      6  C   UNL     1       4.987   3.831  14.813  0.00  0.00    +0.000 A 
ATOM      7  C   UNL     1       5.833   4.040  13.713  0.00  0.00    +0.000 A 
ATOM      8 CL   UNL     1       5.412   3.255  12.230  0.00  0.00    +0.000 Cl
ATOM      9  C   UNL     1       6.962   4.849  13.825  0.00  0.00    +0.000 A 
ATOM     10 CL   UNL     1       8.036   5.141  12.502  0.00  0.00    +0.000 Cl
ATOM     11  C   UNL     1       7.262   5.469  15.044  0.00  0.00    +0.000 A 
ATOM     12  C   UNL     1       6.415   5.294  16.166  0.00  0.00    +0.000 A 
ENDROOT
BRANCH   1  14
ATOM     13  N   UNL     1       8.118   6.150  19.165  0.00  0.00    +0.000 N 
ATOM     14  C   UNL     1       7.407   6.695  18.134  0.00  0.00    +0.000 C 
ATOM     15  N   UNL     1       7.546   7.897  17.673  0.00  0.00    +0.000 NA
ATOM     16  H   UNL     1       8.910   6.748  19.380  0.00  0.00    +0.000 HD
ATOM     17  H   UNL     1       8.389   5.183  19.031  0.00  0.00    +0.000 HD
BRANCH  15  18
ATOM     18  O   UNL     1       8.563   8.585  18.353  0.00  0.00    +0.000 OA
ATOM     19  H   UNL     1       9.348   8.055  18.118  0.00  0.00    +0.000 HD
ENDBRANCH  15  18
ENDBRANCH   1  14
BRANCH   4  20
ATOM     20  C1* UNL     1       3.443   3.666  17.564  0.00  0.00    +0.000 C 
ATOM     21  O4* UNL     1       2.373   4.543  17.976  0.00  0.00    +0.000 OA
ATOM     22  C4* UNL     1       1.554   3.848  18.951  0.00  0.00    +0.000 C 
ATOM     23  C3* UNL     1       2.169   2.464  19.163  0.00  0.00    +0.000 C 
ATOM     24  C2* UNL     1       3.599   2.598  18.650  0.00  0.00    +0.000 C 
BRANCH  23  25
ATOM     25  O3* UNL     1       1.510   1.456  18.372  0.00  0.00    +0.000 OA
ATOM     26  H3* UNL     1       1.442   0.633  18.888  0.00  0.00    +0.000 HD
ENDBRANCH  23  25
BRANCH  24  27
ATOM     27  O2* UNL     1       4.086   1.357  18.139  0.00  0.00    +0.000 OA
ATOM     28  H2* UNL     1       4.420   0.853  18.912  0.00  0.00    +0.000 HD
ENDBRANCH  24  27
BRANCH  22  29
ATOM     29  C5* UNL     1       1.471   4.670  20.239  0.00  0.00    +0.000 C 
BRANCH  29  30
ATOM     30  O5* UNL     1       1.720   3.836  21.367  0.00  0.00    +0.000 OA
ATOM     31  H5* UNL     1       0.972   3.210  21.417  0.00  0.00    +0.000 HD
ENDBRANCH  29  30
ENDBRANCH  22  29
ENDBRANCH   4  20
TORSDOF 7
ENDMDL
MODEL 2
REMARK VINA RESULT:      -7.0      3.465      6.684
REMARK  Name = 
REMARK  7 active torsions:
REMARK  status: ('A' for Active; 'I' for Inactive)
REMARK    1  A    between atoms: C_2  and  C_5
REMARK    2  A    between atoms: N_3  and  O_4
REMARK    3  A    between atoms: N_8  and  C1*_9
REMARK    4  A    between atoms: C4*_11  and  C5*_12
REMARK    5  A    between atoms: C5*_12  and  O5*_13
REMARK    6  A    between atoms: C3*_14  and  O3*_15
REMARK    7  A    between atoms: C2*_16  and  O2*_17
REMARK                            x       y       z     vdW  Elec       q    Type
REMARK                         _______ _______ _______ _____ _____    ______ ____
ROOT
ATOM      1  C   UNL     1       2.399   4.125  20.005  0.00  0.00    +0.000 A 
ATOM      2  C   UNL     1       3.508   3.658  19.333  0.00  0.00    +0.000 A 
ATOM      3 CL   UNL     1       4.105   2.054  19.278  0.00  0.00    +0.000 Cl
ATOM      4  N   UNL     1       4.105   4.663  18.618  0.00  0.00    +0.000 N 
ATOM      5  C   UNL     1       3.358   5.827  18.795  0.00  0.00    +0.000 A 
ATOM      6  C   UNL     1       3.519   7.130  18.282  0.00  0.00    +0.000 A 
ATOM      7  C   UNL     1       2.594   8.121  18.644  0.00  0.00    +0.000 A 
ATOM      8 CL   UNL     1       2.821   9.700  17.973  0.00  0.00    +0.000 Cl
ATOM      9  C   UNL     1       1.542   7.831  19.510  0.00  0.00    +0.000 A 
ATOM     10 CL   UNL     1       0.375   9.014  19.988  0.00  0.00    +0.000 Cl
ATOM     11  C   UNL     1       1.394   6.538  20.026  0.00  0.00    +0.000 A 
ATOM     12  C   UNL     1       2.299   5.512  19.661  0.00  0.00    +0.000 A 
ENDROOT
BRANCH   1  14
ATOM     13  N   UNL     1       0.348   2.957  20.292  0.00  0.00    +0.000 N 
ATOM     14  C   UNL     1       1.537   3.320  20.858  0.00  0.00    +0.000 C 
ATOM     15  N   UNL     1       1.945   2.984  22.040  0.00  0.00    +0.000 NA
ATOM     16  H   UNL     1      -0.075   2.217  20.846  0.00  0.00    +0.000 HD
ATOM     17  H   UNL     1       0.399   2.721  19.308  0.00  0.00    +0.000 HD
BRANCH  15  18
ATOM     18  O   UNL     1       1.014   2.151  22.679  0.00  0.00    +0.000 OA
ATOM     19  H   UNL     1       1.025   2.507  23.588  0.00  0.00    +0.000 HD
ENDBRANCH  15  18
ENDBRANCH   1  14
BRANCH   4  20
ATOM     20  C1* UNL     1       5.321   4.579  17.807  0.00  0.00    +0.000 C 
ATOM     21  O4* UNL     1       6.470   4.376  18.658  0.00  0.00    +0.000 OA
ATOM     22  C4* UNL     1       7.610   5.048  18.063  0.00  0.00    +0.000 C 
ATOM     23  C3* UNL     1       7.127   5.717  16.775  0.00  0.00    +0.000 C 
ATOM     24  C2* UNL     1       5.613   5.800  16.932  0.00  0.00    +0.000 C 
BRANCH  23  25
ATOM     25  O3* UNL     1       7.406   4.912  15.613  0.00  0.00    +0.000 OA
ATOM     26  H3* UNL     1       6.771   4.174  15.570  0.00  0.00    +0.000 HD
ENDBRANCH  23  25
BRANCH  24  27
ATOM     27  O2* UNL     1       4.956   5.742  15.666  0.00  0.00    +0.000 OA
ATOM     28  H2* UNL     1       5.289   6.506  15.147  0.00  0.00    +0.000 HD
ENDBRANCH  24  27
BRANCH  22  29
ATOM     29  C5* UNL     1       8.210   6.038  19.063  0.00  0.00    +0.000 C 
BRANCH  29  30
ATOM     30  O5* UNL     1       8.037   5.554  20.392  0.00  0.00    +0.000 OA
ATOM     31  H5* UNL     1       7.709   4.637  20.310  0.00  0.00    +0.000 HD
ENDBRANCH  29  30
ENDBRANCH  22  29
ENDBRANCH   4  20
TORSDOF 7
ENDMDL
MODEL 3
REMARK VINA RESULT:      -7.0      3.290      7.005
REMARK  Name = 
REMARK  7 active torsions:
REMARK  status: ('A' for Active; 'I' for Inactive)
REMARK    1  A    between atoms: C_2  and  C_5
REMARK    2  A    between atoms: N_3  and  O_4
REMARK    3  A    between atoms: N_8  and  C1*_9
REMARK    4  A    between atoms: C4*_11  and  C5*_12
REMARK    5  A    between atoms: C5*_12  and  O5*_13
REMARK    6  A    between atoms: C3*_14  and  O3*_15
REMARK    7  A    between atoms: C2*_16  and  O2*_17
REMARK                            x       y       z     vdW  Elec       q    Type
REMARK                         _______ _______ _______ _____ _____    ______ ____
ROOT
ATOM      1  C   UNL     1       2.414   4.815  19.947  0.00  0.00    +0.000 A 
ATOM      2  C   UNL     1       3.486   4.642  19.099  0.00  0.00    +0.000 A 
ATOM      3 CL   UNL     1       4.314   3.188  18.736  0.00  0.00    +0.000 Cl
ATOM      4  N   UNL     1       3.823   5.822  18.489  0.00  0.00    +0.000 N 
ATOM      5  C   UNL     1       2.932   6.804  18.921  0.00  0.00    +0.000 A 
ATOM      6  C   UNL     1       2.821   8.173  18.600  0.00  0.00    +0.000 A 
ATOM      7  C   UNL     1       1.807   8.931  19.206  0.00  0.00    +0.000 A 
ATOM      8 CL   UNL     1       1.696  10.601  18.766  0.00  0.00    +0.000 Cl
ATOM      9  C   UNL     1       0.932   8.350  20.121  0.00  0.00    +0.000 A 
ATOM     10 CL   UNL     1      -0.334   9.237  20.895  0.00  0.00    +0.000 Cl
ATOM     11  C   UNL     1       1.055   6.993  20.445  0.00  0.00    +0.000 A 
ATOM     12  C   UNL     1       2.055   6.198  19.834  0.00  0.00    +0.000 A 
ENDROOT
BRANCH   1  14
ATOM     13  N   UNL     1       0.601   3.314  20.289  0.00  0.00    +0.000 N 
ATOM     14  C   UNL     1       1.805   3.766  20.751  0.00  0.00    +0.000 C 
ATOM     15  N   UNL     1       2.429   3.319  21.794  0.00  0.00    +0.000 NA
ATOM     16  H   UNL     1       0.368   2.442  20.755  0.00  0.00    +0.000 HD
ATOM     17  H   UNL     1       0.533   3.243  19.280  0.00  0.00    +0.000 HD
BRANCH  15  18
ATOM     18  O   UNL     1       1.723   2.265  22.394  0.00  0.00    +0.000 OA
ATOM     19  H   UNL     1       0.863   2.318  21.933  0.00  0.00    +0.000 HD
ENDBRANCH  15  18
ENDBRANCH   1  14
BRANCH   4  20
ATOM     20  C1* UNL     1       4.923   6.060  17.553  0.00  0.00    +0.000 C 
ATOM     21  O4* UNL     1       4.599   5.507  16.259  0.00  0.00    +0.000 OA
ATOM     22  C4* UNL     1       5.823   5.032  15.641  0.00  0.00    +0.000 C 
ATOM     23  C3* UNL     1       6.965   5.297  16.622  0.00  0.00    +0.000 C 
ATOM     24  C2* UNL     1       6.277   5.480  17.970  0.00  0.00    +0.000 C 
BRANCH  23  25
ATOM     25  O3* UNL     1       7.667   6.517  16.315  0.00  0.00    +0.000 OA
ATOM     26  H3* UNL     1       8.416   6.320  15.725  0.00  0.00    +0.000 HD
ENDBRANCH  23  25
BRANCH  24  27
ATOM     27  O2* UNL     1       7.018   6.361  18.816  0.00  0.00    +0.000 OA
ATOM     28  H2* UNL     1       7.303   5.826  19.587  0.00  0.00    +0.000 HD
ENDBRANCH  24  27
BRANCH  22  29
ATOM     29  C5* UNL     1       5.679   3.554  15.273  0.00  0.00    +0.000 C 
BRANCH  29  30
ATOM     30  O5* UNL     1       6.274   3.308  14.002  0.00  0.00    +0.000 OA
ATOM     31  H5* UNL     1       6.598   4.170  13.678  0.00  0.00    +0.000 HD
ENDBRANCH  29  30
ENDBRANCH  22  29
ENDBRANCH   4  20
TORSDOF 7
ENDMDL
MODEL 4
REMARK VINA RESULT:      -6.3      4.421      6.476
REMARK  Name = 
REMARK  7 active torsions:
REMARK  status: ('A' for Active; 'I' for Inactive)
REMARK    1  A    between atoms: C_2  and  C_5
REMARK    2  A    between atoms: N_3  and  O_4
REMARK    3  A    between atoms: N_8  and  C1*_9
REMARK    4  A    between atoms: C4*_11  and  C5*_12
REMARK    5  A    between atoms: C5*_12  and  O5*_13
REMARK    6  A    between atoms: C3*_14  and  O3*_15
REMARK    7  A    between atoms: C2*_16  and  O2*_17
REMARK                            x       y       z     vdW  Elec       q    Type
REMARK                         _______ _______ _______ _____ _____    ______ ____
ROOT
ATOM      1  C   UNL     1       1.951   5.318  20.056  0.00  0.00    +0.000 A 
ATOM      2  C   UNL     1       1.569   6.610  20.345  0.00  0.00    +0.000 A 
ATOM      3 CL   UNL     1       0.572   7.148  21.629  0.00  0.00    +0.000 Cl
ATOM      4  N   UNL     1       2.144   7.497  19.473  0.00  0.00    +0.000 N 
ATOM      5  C   UNL     1       2.955   6.779  18.594  0.00  0.00    +0.000 A 
ATOM      6  C   UNL     1       3.774   7.195  17.524  0.00  0.00    +0.000 A 
ATOM      7  C   UNL     1       4.486   6.228  16.800  0.00  0.00    +0.000 A 
ATOM      8 CL   UNL     1       5.493   6.788  15.508  0.00  0.00    +0.000 Cl
ATOM      9  C   UNL     1       4.379   4.875  17.118  0.00  0.00    +0.000 A 
ATOM     10 CL   UNL     1       5.235   3.643  16.259  0.00  0.00    +0.000 Cl
ATOM     11  C   UNL     1       3.555   4.467  18.174  0.00  0.00    +0.000 A 
ATOM     12  C   UNL     1       2.840   5.422  18.937  0.00  0.00    +0.000 A 
ENDROOT
BRANCH   1  14
ATOM     13  N   UNL     1       0.429   3.503  20.260  0.00  0.00    +0.000 N 
ATOM     14  C   UNL     1       1.520   4.134  20.785  0.00  0.00    +0.000 C 
ATOM     15  N   UNL     1       2.188   3.748  21.825  0.00  0.00    +0.000 NA
ATOM     16  H   UNL     1       0.344   2.578  20.673  0.00  0.00    +0.000 HD
ATOM     17  H   UNL     1       0.398   3.477  19.247  0.00  0.00    +0.000 HD
BRANCH  15  18
ATOM     18  O   UNL     1       1.668   2.553  22.346  0.00  0.00    +0.000 OA
ATOM     19  H   UNL     1       2.484   2.074  22.588  0.00  0.00    +0.000 HD
ENDBRANCH  15  18
ENDBRANCH   1  14
BRANCH   4  20
ATOM     20  C1* UNL     1       1.959   8.948  19.426  0.00  0.00    +0.000 C 
ATOM     21  O4* UNL     1       1.743   9.463  20.757  0.00  0.00    +0.000 OA
ATOM     22  C4* UNL     1       0.838  10.593  20.674  0.00  0.00    +0.000 C 
ATOM     23  C3* UNL     1       0.462  10.773  19.203  0.00  0.00    +0.000 C 
ATOM     24  C2* UNL     1       0.796   9.434  18.556  0.00  0.00    +0.000 C 
BRANCH  23  25
ATOM     25  O3* UNL     1       1.265  11.784  18.563  0.00  0.00    +0.000 OA
ATOM     26  H3* UNL     1       2.012  11.361  18.103  0.00  0.00    +0.000 HD
ENDBRANCH  23  25
BRANCH  24  27
ATOM     27  O2* UNL     1       1.162   9.596  17.185  0.00  0.00    +0.000 OA
ATOM     28  H2* UNL     1       1.531  10.502  17.104  0.00  0.00    +0.000 HD
ENDBRANCH  24  27
BRANCH  22  29
ATOM     29  C5* UNL     1      -0.375  10.354  21.577  0.00  0.00    +0.000 C 
BRANCH  29  30
ATOM     30  O5* UNL     1      -0.017  10.562  22.940  0.00  0.00    +0.000 OA
ATOM     31  H5* UNL     1      -0.601   9.985  23.469  0.00  0.00    +0.000 HD
ENDBRANCH  29  30
ENDBRANCH  22  29
ENDBRANCH   4  20
TORSDOF 7
ENDMDL
MODEL 5
REMARK VINA RESULT:      -5.9     11.113     13.620
REMARK  Name = 
REMARK  7 active torsions:
REMARK  status: ('A' for Active; 'I' for Inactive)
REMARK    1  A    between atoms: C_2  and  C_5
REMARK    2  A    between atoms: N_3  and  O_4
REMARK    3  A    between atoms: N_8  and  C1*_9
REMARK    4  A    between atoms: C4*_11  and  C5*_12
REMARK    5  A    between atoms: C5*_12  and  O5*_13
REMARK    6  A    between atoms: C3*_14  and  O3*_15
REMARK    7  A    between atoms: C2*_16  and  O2*_17
REMARK                            x       y       z     vdW  Elec       q    Type
REMARK                         _______ _______ _______ _____ _____    ______ ____
ROOT
ATOM      1  C   UNL     1      -4.955  12.941  22.826  0.00  0.00    +0.000 A 
ATOM      2  C   UNL     1      -3.652  13.331  23.044  0.00  0.00    +0.000 A 
ATOM      3 CL   UNL     1      -2.939  13.834  24.517  0.00  0.00    +0.000 Cl
ATOM      4  N   UNL     1      -2.911  13.225  21.896  0.00  0.00    +0.000 N 
ATOM      5  C   UNL     1      -3.737  12.723  20.891  0.00  0.00    +0.000 A 
ATOM      6  C   UNL     1      -3.482  12.413  19.538  0.00  0.00    +0.000 A 
ATOM      7  C   UNL     1      -4.530  11.915  18.749  0.00  0.00    +0.000 A 
ATOM      8 CL   UNL     1      -4.165  11.530  17.101  0.00  0.00    +0.000 Cl
ATOM      9  C   UNL     1      -5.806  11.744  19.281  0.00  0.00    +0.000 A 
ATOM     10 CL   UNL     1      -7.130  11.134  18.353  0.00  0.00    +0.000 Cl
ATOM     11  C   UNL     1      -6.055  12.064  20.622  0.00  0.00    +0.000 A 
ATOM     12  C   UNL     1      -5.013  12.548  21.449  0.00  0.00    +0.000 A 
ENDROOT
BRANCH   1  14
ATOM     13  N   UNL     1      -5.817  12.046  24.854  0.00  0.00    +0.000 N 
ATOM     14  C   UNL     1      -6.007  12.933  23.833  0.00  0.00    +0.000 C 
ATOM     15  N   UNL     1      -7.000  13.756  23.722  0.00  0.00    +0.000 NA
ATOM     16  H   UNL     1      -6.452  12.269  25.615  0.00  0.00    +0.000 HD
ATOM     17  H   UNL     1      -4.858  11.954  25.165  0.00  0.00    +0.000 HD
BRANCH  15  18
ATOM     18  O   UNL     1      -7.868  13.653  24.821  0.00  0.00    +0.000 OA
ATOM     19  H   UNL     1      -7.609  14.433  25.348  0.00  0.00    +0.000 HD
ENDBRANCH  15  18
ENDBRANCH   1  14
BRANCH   4  20
ATOM     20  C1* UNL     1      -1.503  13.577  21.709  0.00  0.00    +0.000 C 
ATOM     21  O4* UNL     1      -1.360  14.454  20.570  0.00  0.00    +0.000 OA
ATOM     22  C4* UNL     1      -0.089  14.174  19.929  0.00  0.00    +0.000 C 
ATOM     23  C3* UNL     1       0.583  13.046  20.713  0.00  0.00    +0.000 C 
ATOM     24  C2* UNL     1      -0.553  12.396  21.495  0.00  0.00    +0.000 C 
BRANCH  23  25
ATOM     25  O3* UNL     1       1.541  13.548  21.664  0.00  0.00    +0.000 OA
ATOM     26  H3* UNL     1       1.088  13.757  22.501  0.00  0.00    +0.000 HD
ENDBRANCH  23  25
BRANCH  24  27
ATOM     27  O2* UNL     1      -0.085  11.835  22.723  0.00  0.00    +0.000 OA
ATOM     28  H2* UNL     1      -0.108  12.561  23.383  0.00  0.00    +0.000 HD
ENDBRANCH  24  27
BRANCH  22  29
ATOM     29  C5* UNL     1      -0.315  13.827  18.456  0.00  0.00    +0.000 C 
BRANCH  29  30
ATOM     30  O5* UNL     1       0.548  12.763  18.067  0.00  0.00    +0.000 OA
ATOM     31  H5* UNL     1       1.178  12.637  18.802  0.00  0.00    +0.000 HD
ENDBRANCH  29  30
ENDBRANCH  22  29
ENDBRANCH   4  20
TORSDOF 7
ENDMDL
MODEL 6
REMARK VINA RESULT:      -5.9     10.854     12.384
REMARK  Name = 
REMARK  7 active torsions:
REMARK  status: ('A' for Active; 'I' for Inactive)
REMARK    1  A    between atoms: C_2  and  C_5
REMARK    2  A    between atoms: N_3  and  O_4
REMARK    3  A    between atoms: N_8  and  C1*_9
REMARK    4  A    between atoms: C4*_11  and  C5*_12
REMARK    5  A    between atoms: C5*_12  and  O5*_13
REMARK    6  A    between atoms: C3*_14  and  O3*_15
REMARK    7  A    between atoms: C2*_16  and  O2*_17
REMARK                            x       y       z     vdW  Elec       q    Type
REMARK                         _______ _______ _______ _____ _____    ______ ____
ROOT
ATOM      1  C   UNL     1       8.274  13.877  21.596  0.00  0.00    +0.000 A 
ATOM      2  C   UNL     1       9.186  13.913  20.565  0.00  0.00    +0.000 A 
ATOM      3 CL   UNL     1      10.795  13.326  20.566  0.00  0.00    +0.000 Cl
ATOM      4  N   UNL     1       8.629  14.457  19.437  0.00  0.00    +0.000 N 
ATOM      5  C   UNL     1       7.299  14.767  19.716  0.00  0.00    +0.000 A 
ATOM      6  C   UNL     1       6.281  15.329  18.916  0.00  0.00    +0.000 A 
ATOM      7  C   UNL     1       5.013  15.534  19.479  0.00  0.00    +0.000 A 
ATOM      8 CL   UNL     1       3.791  16.206  18.454  0.00  0.00    +0.000 Cl
ATOM      9  C   UNL     1       4.761  15.207  20.810  0.00  0.00    +0.000 A 
ATOM     10 CL   UNL     1       3.217  15.439  21.553  0.00  0.00    +0.000 Cl
ATOM     11  C   UNL     1       5.779  14.661  21.602  0.00  0.00    +0.000 A 
ATOM     12  C   UNL     1       7.063  14.422  21.056  0.00  0.00    +0.000 A 
ENDROOT
BRANCH   1  14
ATOM     13  N   UNL     1       8.705  14.321  23.892  0.00  0.00    +0.000 N 
ATOM     14  C   UNL     1       8.539  13.364  22.932  0.00  0.00    +0.000 C 
ATOM     15  N   UNL     1       8.568  12.084  23.129  0.00  0.00    +0.000 NA
ATOM     16  H   UNL     1       8.645  13.890  24.810  0.00  0.00    +0.000 HD
ATOM     17  H   UNL     1       8.093  15.124  23.802  0.00  0.00    +0.000 HD
BRANCH  15  18
ATOM     18  O   UNL     1       8.761  11.785  24.486  0.00  0.00    +0.000 OA
ATOM     19  H   UNL     1       8.243  12.491  24.918  0.00  0.00    +0.000 HD
ENDBRANCH  15  18
ENDBRANCH   1  14
BRANCH   4  20
ATOM     20  C1* UNL     1       9.281  14.700  18.149  0.00  0.00    +0.000 C 
ATOM     21  O4* UNL     1       9.879  13.480  17.659  0.00  0.00    +0.000 OA
ATOM     22  C4* UNL     1      11.084  13.818  16.926  0.00  0.00    +0.000 C 
ATOM     23  C3* UNL     1      11.244  15.338  16.982  0.00  0.00    +0.000 C 
ATOM     24  C2* UNL     1      10.375  15.770  18.158  0.00  0.00    +0.000 C 
BRANCH  23  25
ATOM     25  O3* UNL     1      10.732  15.978  15.797  0.00  0.00    +0.000 OA
ATOM     26  H3* UNL     1      10.203  15.338  15.287  0.00  0.00    +0.000 HD
ENDBRANCH  23  25
BRANCH  24  27
ATOM     27  O2* UNL     1       9.859  17.088  17.965  0.00  0.00    +0.000 OA
ATOM     28  H2* UNL     1      10.126  17.606  18.755  0.00  0.00    +0.000 HD
ENDBRANCH  24  27
BRANCH  22  29
ATOM     29  C5* UNL     1      12.279  13.068  17.517  0.00  0.00    +0.000 C 
BRANCH  29  30
ATOM     30  O5* UNL     1      12.076  11.662  17.405  0.00  0.00    +0.000 OA
ATOM     31  H5* UNL     1      11.114  11.515  17.491  0.00  0.00    +0.000 HD
ENDBRANCH  29  30
ENDBRANCH  22  29
ENDBRANCH   4  20
TORSDOF 7
ENDMDL
MODEL 7
REMARK VINA RESULT:      -5.9      9.451     12.431
REMARK  Name = 
REMARK  7 active torsions:
REMARK  status: ('A' for Active; 'I' for Inactive)
REMARK    1  A    between atoms: C_2  and  C_5
REMARK    2  A    between atoms: N_3  and  O_4
REMARK    3  A    between atoms: N_8  and  C1*_9
REMARK    4  A    between atoms: C4*_11  and  C5*_12
REMARK    5  A    between atoms: C5*_12  and  O5*_13
REMARK    6  A    between atoms: C3*_14  and  O3*_15
REMARK    7  A    between atoms: C2*_16  and  O2*_17
REMARK                            x       y       z     vdW  Elec       q    Type
REMARK                         _______ _______ _______ _____ _____    ______ ____
ROOT
ATOM      1  C   UNL     1      -4.458  11.921  18.416  0.00  0.00    +0.000 A 
ATOM      2  C   UNL     1      -3.306  11.434  17.839  0.00  0.00    +0.000 A 
ATOM      3 CL   UNL     1      -3.097  10.848  16.244  0.00  0.00    +0.000 Cl
ATOM      4  N   UNL     1      -2.252  11.513  18.710  0.00  0.00    +0.000 N 
ATOM      5  C   UNL     1      -2.707  12.096  19.892  0.00  0.00    +0.000 A 
ATOM      6  C   UNL     1      -2.042  12.418  21.094  0.00  0.00    +0.000 A 
ATOM      7  C   UNL     1      -2.774  13.007  22.136  0.00  0.00    +0.000 A 
ATOM      8 CL   UNL     1      -1.912  13.403  23.584  0.00  0.00    +0.000 Cl
ATOM      9  C   UNL     1      -4.138  13.256  21.998  0.00  0.00    +0.000 A 
ATOM     10 CL   UNL     1      -5.085  13.979  23.251  0.00  0.00    +0.000 Cl
ATOM     11  C   UNL     1      -4.795  12.923  20.807  0.00  0.00    +0.000 A 
ATOM     12  C   UNL     1      -4.078  12.348  19.730  0.00  0.00    +0.000 A 
ENDROOT
BRANCH   1  14
ATOM     13  N   UNL     1      -6.579  10.918  18.025  0.00  0.00    +0.000 N 
ATOM     14  C   UNL     1      -5.760  11.980  17.766  0.00  0.00    +0.000 C 
ATOM     15  N   UNL     1      -6.064  13.008  17.040  0.00  0.00    +0.000 NA
ATOM     16  H   UNL     1      -7.527  11.147  17.741  0.00  0.00    +0.000 HD
ATOM     17  H   UNL     1      -6.535  10.568  18.975  0.00  0.00    +0.000 HD
BRANCH  15  18
ATOM     18  O   UNL     1      -7.380  12.919  16.562  0.00  0.00    +0.000 OA
ATOM     19  H   UNL     1      -7.302  13.352  15.690  0.00  0.00    +0.000 HD
ENDBRANCH  15  18
ENDBRANCH   1  14
BRANCH   4  20
ATOM     20  C1* UNL     1      -0.876  11.067  18.487  0.00  0.00    +0.000 C 
ATOM     21  O4* UNL     1      -0.616   9.867  19.247  0.00  0.00    +0.000 OA
ATOM     22  C4* UNL     1       0.773   9.878  19.668  0.00  0.00    +0.000 C 
ATOM     23  C3* UNL     1       1.400  11.172  19.147  0.00  0.00    +0.000 C 
ATOM     24  C2* UNL     1       0.211  12.081  18.853  0.00  0.00    +0.000 C 
BRANCH  23  25
ATOM     25  O3* UNL     1       2.113  10.965  17.912  0.00  0.00    +0.000 OA
ATOM     26  H3* UNL     1       1.697  11.492  17.206  0.00  0.00    +0.000 HD
ENDBRANCH  23  25
BRANCH  24  27
ATOM     27  O2* UNL     1       0.502  12.987  17.787  0.00  0.00    +0.000 OA
ATOM     28  H2* UNL     1       0.100  12.601  16.980  0.00  0.00    +0.000 HD
ENDBRANCH  24  27
BRANCH  22  29
ATOM     29  C5* UNL     1       0.855   9.743  21.190  0.00  0.00    +0.000 C 
BRANCH  29  30
ATOM     30  O5* UNL     1       1.583   8.569  21.536  0.00  0.00    +0.000 OA
ATOM     31  H5* UNL     1       2.333   8.515  20.912  0.00  0.00    +0.000 HD
ENDBRANCH  29  30
ENDBRANCH  22  29
ENDBRANCH   4  20
TORSDOF 7
ENDMDL
MODEL 8
REMARK VINA RESULT:      -5.9      9.400     11.975
REMARK  Name = 
REMARK  7 active torsions:
REMARK  status: ('A' for Active; 'I' for Inactive)
REMARK    1  A    between atoms: C_2  and  C_5
REMARK    2  A    between atoms: N_3  and  O_4
REMARK    3  A    between atoms: N_8  and  C1*_9
REMARK    4  A    between atoms: C4*_11  and  C5*_12
REMARK    5  A    between atoms: C5*_12  and  O5*_13
REMARK    6  A    between atoms: C3*_14  and  O3*_15
REMARK    7  A    between atoms: C2*_16  and  O2*_17
REMARK                            x       y       z     vdW  Elec       q    Type
REMARK                         _______ _______ _______ _____ _____    ______ ____
ROOT
ATOM      1  C   UNL     1      -2.253  11.775  19.338  0.00  0.00    +0.000 A 
ATOM      2  C   UNL     1      -2.849  12.449  20.381  0.00  0.00    +0.000 A 
ATOM      3 CL   UNL     1      -4.226  13.463  20.326  0.00  0.00    +0.000 Cl
ATOM      4  N   UNL     1      -2.219  12.171  21.566  0.00  0.00    +0.000 N 
ATOM      5  C   UNL     1      -1.190  11.264  21.310  0.00  0.00    +0.000 A 
ATOM      6  C   UNL     1      -0.253  10.647  22.163  0.00  0.00    +0.000 A 
ATOM      7  C   UNL     1       0.687   9.763  21.611  0.00  0.00    +0.000 A 
ATOM      8 CL   UNL     1       1.804   9.013  22.700  0.00  0.00    +0.000 Cl
ATOM      9  C   UNL     1       0.708   9.508  20.242  0.00  0.00    +0.000 A 
ATOM     10 CL   UNL     1       1.843   8.428  19.511  0.00  0.00    +0.000 Cl
ATOM     11  C   UNL     1      -0.218  10.134  19.398  0.00  0.00    +0.000 A 
ATOM     12  C   UNL     1      -1.192  11.014  19.929  0.00  0.00    +0.000 A 
ENDROOT
BRANCH   1  14
ATOM     13  N   UNL     1      -1.701  12.256  17.075  0.00  0.00    +0.000 N 
ATOM     14  C   UNL     1      -2.672  11.848  17.946  0.00  0.00    +0.000 C 
ATOM     15  N   UNL     1      -3.879  11.506  17.625  0.00  0.00    +0.000 NA
ATOM     16  H   UNL     1      -1.996  12.052  16.125  0.00  0.00    +0.000 HD
ATOM     17  H   UNL     1      -0.774  11.902  17.277  0.00  0.00    +0.000 HD
BRANCH  15  18
ATOM     18  O   UNL     1      -4.071  11.571  16.236  0.00  0.00    +0.000 OA
ATOM     19  H   UNL     1      -5.032  11.415  16.164  0.00  0.00    +0.000 HD
ENDBRANCH  15  18
ENDBRANCH   1  14
BRANCH   4  20
ATOM     20  C1* UNL     1      -2.527  12.716  22.889  0.00  0.00    +0.000 C 
ATOM     21  O4* UNL     1      -3.670  12.035  23.451  0.00  0.00    +0.000 OA
ATOM     22  C4* UNL     1      -4.421  12.979  24.256  0.00  0.00    +0.000 C 
ATOM     23  C3* UNL     1      -3.703  14.327  24.171  0.00  0.00    +0.000 C 
ATOM     24  C2* UNL     1      -2.828  14.216  22.928  0.00  0.00    +0.000 C 
BRANCH  23  25
ATOM     25  O3* UNL     1      -2.837  14.548  25.302  0.00  0.00    +0.000 OA
ATOM     26  H3* UNL     1      -2.593  13.690  25.694  0.00  0.00    +0.000 HD
ENDBRANCH  23  25
BRANCH  24  27
ATOM     27  O2* UNL     1      -1.649  15.013  23.051  0.00  0.00    +0.000 OA
ATOM     28  H2* UNL     1      -1.920  15.836  23.512  0.00  0.00    +0.000 HD
ENDBRANCH  24  27
BRANCH  22  29
ATOM     29  C5* UNL     1      -5.870  13.040  23.768  0.00  0.00    +0.000 C 
BRANCH  29  30
ATOM     30  O5* UNL     1      -6.577  11.881  24.196  0.00  0.00    +0.000 OA
ATOM     31  H5* UNL     1      -6.689  11.967  25.162  0.00  0.00    +0.000 HD
ENDBRANCH  29  30
ENDBRANCH  22  29
ENDBRANCH   4  20
TORSDOF 7
ENDMDL
MODEL 9
REMARK VINA RESULT:      -5.9      4.030      6.221
REMARK  Name = 
REMARK  7 active torsions:
REMARK  status: ('A' for Active; 'I' for Inactive)
REMARK    1  A    between atoms: C_2  and  C_5
REMARK    2  A    between atoms: N_3  and  O_4
REMARK    3  A    between atoms: N_8  and  C1*_9
REMARK    4  A    between atoms: C4*_11  and  C5*_12
REMARK    5  A    between atoms: C5*_12  and  O5*_13
REMARK    6  A    between atoms: C3*_14  and  O3*_15
REMARK    7  A    between atoms: C2*_16  and  O2*_17
REMARK                            x       y       z     vdW  Elec       q    Type
REMARK                         _______ _______ _______ _____ _____    ______ ____
ROOT
ATOM      1  C   UNL     1       4.284   6.575  17.898  0.00  0.00    +0.000 A 
ATOM      2  C   UNL     1       3.394   7.604  18.116  0.00  0.00    +0.000 A 
ATOM      3 CL   UNL     1       3.338   9.126  17.335  0.00  0.00    +0.000 Cl
ATOM      4  N   UNL     1       2.458   7.250  19.052  0.00  0.00    +0.000 N 
ATOM      5  C   UNL     1       2.713   5.938  19.449  0.00  0.00    +0.000 A 
ATOM      6  C   UNL     1       2.055   5.092  20.366  0.00  0.00    +0.000 A 
ATOM      7  C   UNL     1       2.551   3.796  20.568  0.00  0.00    +0.000 A 
ATOM      8 CL   UNL     1       1.698   2.788  21.687  0.00  0.00    +0.000 Cl
ATOM      9  C   UNL     1       3.683   3.351  19.889  0.00  0.00    +0.000 A 
ATOM     10 CL   UNL     1       4.334   1.763  20.101  0.00  0.00    +0.000 Cl
ATOM     11  C   UNL     1       4.339   4.199  18.989  0.00  0.00    +0.000 A 
ATOM     12  C   UNL     1       3.850   5.506  18.748  0.00  0.00    +0.000 A 
ENDROOT
BRANCH   1  14
ATOM     13  N   UNL     1       5.053   6.660  15.650  0.00  0.00    +0.000 N 
ATOM     14  C   UNL     1       5.404   6.619  16.969  0.00  0.00    +0.000 C 
ATOM     15  N   UNL     1       6.613   6.649  17.430  0.00  0.00    +0.000 NA
ATOM     16  H   UNL     1       5.862   6.927  15.095  0.00  0.00    +0.000 HD
ATOM     17  H   UNL     1       4.239   7.227  15.443  0.00  0.00    +0.000 HD
BRANCH  15  18
ATOM     18  O   UNL     1       7.549   6.765  16.391  0.00  0.00    +0.000 OA
ATOM     19  H   UNL     1       8.221   7.345  16.796  0.00  0.00    +0.000 HD
ENDBRANCH  15  18
ENDBRANCH   1  14
BRANCH   4  20
ATOM     20  C1* UNL     1       1.371   8.075  19.581  0.00  0.00    +0.000 C 
ATOM     21  O4* UNL     1       0.928   9.014  18.577  0.00  0.00    +0.000 OA
ATOM     22  C4* UNL     1       0.511  10.236  19.239  0.00  0.00    +0.000 C 
ATOM     23  C3* UNL     1       0.725  10.040  20.740  0.00  0.00    +0.000 C 
ATOM     24  C2* UNL     1       1.709   8.880  20.838  0.00  0.00    +0.000 C 
BRANCH  23  25
ATOM     25  O3* UNL     1      -0.488   9.647  21.410  0.00  0.00    +0.000 OA
ATOM     26  H3* UNL     1      -1.178   9.461  20.748  0.00  0.00    +0.000 HD
ENDBRANCH  23  25
BRANCH  24  27
ATOM     27  O2* UNL     1       1.515   8.135  22.041  0.00  0.00    +0.000 OA
ATOM     28  H2* UNL     1       0.638   7.702  21.958  0.00  0.00    +0.000 HD
ENDBRANCH  24  27
BRANCH  22  29
ATOM     29  C5* UNL     1       1.289  11.425  18.672  0.00  0.00    +0.000 C 
BRANCH  29  30
ATOM     30  O5* UNL     1       0.386  12.436  18.235  0.00  0.00    +0.000 OA
ATOM     31  H5* UNL     1       0.499  13.189  18.846  0.00  0.00    +0.000 HD
ENDBRANCH  29  30
ENDBRANCH  22  29
ENDBRANCH   4  20
TORSDOF 7
ENDMDL
