MODEL 1
REMARK VINA RESULT:      -8.1      0.000      0.000
REMARK  Name = 
REMARK  7 active torsions:
REMARK  status: ('A' for Active; 'I' for Inactive)
REMARK    1  A    between atoms: C_1  and  N_2
REMARK    2  A    between atoms: N_2  and  C_20
REMARK    3  A    between atoms: C_3  and  C_5
REMARK    4  A    between atoms: C_20  and  C_21
REMARK    5  A    between atoms: C_20  and  C_28
REMARK    6  A    between atoms: C_21  and  N_22
REMARK    7  A    between atoms: C_25  and  O_26
REMARK                            x       y       z     vdW  Elec       q    Type
REMARK                         _______ _______ _______ _____ _____    ______ ____
ROOT
ATOM      1  C   UNL     1       2.879   8.280  17.531  0.00  0.00    +0.000 C 
ATOM      2  N   UNL     1       3.150   7.028  18.218  0.00  0.00    +0.000 N 
ATOM      3  C   UNL     1       4.465   6.536  18.363  0.00  0.00    +0.000 C 
ATOM      4  O   UNL     1       4.750   5.762  19.282  0.00  0.00    +0.000 OA
ENDROOT
BRANCH   3   5
ATOM      5  C   UNL     1       5.524   6.892  17.240  0.00  0.00    +0.000 C 
ATOM      6  C   UNL     1       5.816   5.715  16.294  0.00  0.00    +0.000 A 
ATOM      7  C   UNL     1       5.047   5.662  15.101  0.00  0.00    +0.000 A 
ATOM      8  C   UNL     1       5.164   4.616  14.184  0.00  0.00    +0.000 A 
ATOM      9  C   UNL     1       6.044   3.582  14.440  0.00  0.00    +0.000 A 
ATOM     10  C   UNL     1       6.833   3.622  15.588  0.00  0.00    +0.000 A 
ATOM     11  C   UNL     1       6.752   4.687  16.524  0.00  0.00    +0.000 A 
ATOM     12  C   UNL     1       7.757   4.618  17.656  0.00  0.00    +0.000 C 
ATOM     13  C   UNL     1       7.668   5.557  18.857  0.00  0.00    +0.000 C 
ATOM     14  C   UNL     1       7.745   7.026  18.529  0.00  0.00    +0.000 A 
ATOM     15  C   UNL     1       8.806   7.798  19.043  0.00  0.00    +0.000 A 
ATOM     16  C   UNL     1       8.915   9.157  18.739  0.00  0.00    +0.000 A 
ATOM     17  C   UNL     1       8.009   9.746  17.879  0.00  0.00    +0.000 A 
ATOM     18  C   UNL     1       6.956   8.989  17.361  0.00  0.00    +0.000 A 
ATOM     19  C   UNL     1       6.770   7.634  17.725  0.00  0.00    +0.000 A 
ENDBRANCH   3   5
BRANCH   2  20
ATOM     20  C   UNL     1       1.994   6.490  19.012  0.00  0.00    +0.000 C 
BRANCH  20  21
ATOM     21  C   UNL     1       1.806   4.963  18.929  0.00  0.00    +0.000 A 
ATOM     22  C   UNL     1       2.128   4.215  17.780  0.00  0.00    +0.000 A 
ATOM     23  C   UNL     1       2.056   2.814  17.779  0.00  0.00    +0.000 A 
ATOM     24  C   UNL     1       1.652   2.137  18.926  0.00  0.00    +0.000 A 
ATOM     25  C   UNL     1       1.298   2.857  20.063  0.00  0.00    +0.000 A 
ATOM     26  C   UNL     1       1.369   4.255  20.068  0.00  0.00    +0.000 A 
ENDBRANCH  20  21
BRANCH  20  27
ATOM     27  C   UNL     1       1.760   7.095  20.459  0.00  0.00    +0.000 C 
BRANCH  27  28
ATOM     28  N   UNL     1       1.706   8.570  20.673  0.00  0.00    +0.000 NA
ATOM     29  C   UNL     1       0.529   9.225  20.071  0.00  0.00    +0.000 C 
ATOM     30  C   UNL     1      -0.300   9.856  21.183  0.00  0.00    +0.000 C 
ATOM     31  C   UNL     1       0.179   9.164  22.439  0.00  0.00    +0.000 C 
ATOM     32  C   UNL     1       1.649   8.891  22.118  0.00  0.00    +0.000 C 
BRANCH  31  33
ATOM     33  O   UNL     1      -0.008   9.978  23.585  0.00  0.00    +0.000 OA
ATOM     34  H   UNL     1       0.416  10.840  23.426  0.00  0.00    +0.000 HD
ENDBRANCH  31  33
ENDBRANCH  27  28
ENDBRANCH  20  27
ENDBRANCH   2  20
TORSDOF 6
ENDMDL
MODEL 2
REMARK VINA RESULT:      -7.8      5.740      8.822
REMARK  Name = 
REMARK  7 active torsions:
REMARK  status: ('A' for Active; 'I' for Inactive)
REMARK    1  A    between atoms: C_1  and  N_2
REMARK    2  A    between atoms: N_2  and  C_20
REMARK    3  A    between atoms: C_3  and  C_5
REMARK    4  A    between atoms: C_20  and  C_21
REMARK    5  A    between atoms: C_20  and  C_28
REMARK    6  A    between atoms: C_21  and  N_22
REMARK    7  A    between atoms: C_25  and  O_26
REMARK                            x       y       z     vdW  Elec       q    Type
REMARK                         _______ _______ _______ _____ _____    ______ ____
ROOT
ATOM      1  C   UNL     1       0.598  12.195  20.995  0.00  0.00    +0.000 C 
ATOM      2  N   UNL     1       0.743  12.310  19.553  0.00  0.00    +0.000 N 
ATOM      3  C   UNL     1       1.556  13.307  18.971  0.00  0.00    +0.000 C 
ATOM      4  O   UNL     1       2.033  13.151  17.843  0.00  0.00    +0.000 OA
ENDROOT
BRANCH   3   5
ATOM      5  C   UNL     1       1.723  14.680  19.743  0.00  0.00    +0.000 C 
ATOM      6  C   UNL     1       1.266  15.895  18.915  0.00  0.00    +0.000 A 
ATOM      7  C   UNL     1      -0.075  16.318  19.108  0.00  0.00    +0.000 A 
ATOM      8  C   UNL     1      -0.639  17.365  18.378  0.00  0.00    +0.000 A 
ATOM      9  C   UNL     1       0.119  18.013  17.421  0.00  0.00    +0.000 A 
ATOM     10  C   UNL     1       1.448  17.638  17.232  0.00  0.00    +0.000 A 
ATOM     11  C   UNL     1       2.053  16.594  17.979  0.00  0.00    +0.000 A 
ATOM     12  C   UNL     1       3.532  16.395  17.714  0.00  0.00    +0.000 C 
ATOM     13  C   UNL     1       4.283  15.185  18.266  0.00  0.00    +0.000 C 
ATOM     14  C   UNL     1       4.267  15.052  19.767  0.00  0.00    +0.000 A 
ATOM     15  C   UNL     1       5.480  15.101  20.482  0.00  0.00    +0.000 A 
ATOM     16  C   UNL     1       5.494  15.001  21.876  0.00  0.00    +0.000 A 
ATOM     17  C   UNL     1       4.305  14.910  22.573  0.00  0.00    +0.000 A 
ATOM     18  C   UNL     1       3.097  14.865  21.874  0.00  0.00    +0.000 A 
ATOM     19  C   UNL     1       3.060  14.872  20.459  0.00  0.00    +0.000 A 
ENDBRANCH   3   5
BRANCH   2  20
ATOM     20  C   UNL     1       0.238  11.127  18.779  0.00  0.00    +0.000 C 
BRANCH  20  21
ATOM     21  C   UNL     1       1.094   9.852  18.912  0.00  0.00    +0.000 A 
ATOM     22  C   UNL     1       1.072   9.034  20.058  0.00  0.00    +0.000 A 
ATOM     23  C   UNL     1       1.772   7.819  20.099  0.00  0.00    +0.000 A 
ATOM     24  C   UNL     1       2.514   7.406  18.997  0.00  0.00    +0.000 A 
ATOM     25  C   UNL     1       2.576   8.213  17.865  0.00  0.00    +0.000 A 
ATOM     26  C   UNL     1       1.877   9.426  17.820  0.00  0.00    +0.000 A 
ENDBRANCH  20  21
BRANCH  20  27
ATOM     27  C   UNL     1      -1.326  10.862  18.790  0.00  0.00    +0.000 C 
BRANCH  27  28
ATOM     28  N   UNL     1      -2.248  11.685  17.956  0.00  0.00    +0.000 NA
ATOM     29  C   UNL     1      -2.464  11.158  16.594  0.00  0.00    +0.000 C 
ATOM     30  C   UNL     1      -3.940  10.814  16.434  0.00  0.00    +0.000 C 
ATOM     31  C   UNL     1      -4.457  10.729  17.852  0.00  0.00    +0.000 C 
ATOM     32  C   UNL     1      -3.592  11.761  18.575  0.00  0.00    +0.000 C 
BRANCH  31  33
ATOM     33  O   UNL     1      -5.845  11.007  17.917  0.00  0.00    +0.000 OA
ATOM     34  H   UNL     1      -6.333  10.237  17.576  0.00  0.00    +0.000 HD
ENDBRANCH  31  33
ENDBRANCH  27  28
ENDBRANCH  20  27
ENDBRANCH   2  20
TORSDOF 6
ENDMDL
MODEL 3
REMARK VINA RESULT:      -7.4      6.160      9.340
REMARK  Name = 
REMARK  7 active torsions:
REMARK  status: ('A' for Active; 'I' for Inactive)
REMARK    1  A    between atoms: C_1  and  N_2
REMARK    2  A    between atoms: N_2  and  C_20
REMARK    3  A    between atoms: C_3  and  C_5
REMARK    4  A    between atoms: C_20  and  C_21
REMARK    5  A    between atoms: C_20  and  C_28
REMARK    6  A    between atoms: C_21  and  N_22
REMARK    7  A    between atoms: C_25  and  O_26
REMARK                            x       y       z     vdW  Elec       q    Type
REMARK                         _______ _______ _______ _____ _____    ______ ____
ROOT
ATOM      1  C   UNL     1      -0.306  13.313  21.136  0.00  0.00    +0.000 C 
ATOM      2  N   UNL     1       0.054  13.139  19.738  0.00  0.00    +0.000 N 
ATOM      3  C   UNL     1       1.084  13.899  19.142  0.00  0.00    +0.000 C 
ATOM      4  O   UNL     1       1.684  13.477  18.148  0.00  0.00    +0.000 OA
ENDROOT
BRANCH   3   5
ATOM      5  C   UNL     1       1.352  15.359  19.696  0.00  0.00    +0.000 C 
ATOM      6  C   UNL     1       1.059  16.458  18.659  0.00  0.00    +0.000 A 
ATOM      7  C   UNL     1      -0.240  17.028  18.698  0.00  0.00    +0.000 A 
ATOM      8  C   UNL     1      -0.661  17.989  17.778  0.00  0.00    +0.000 A 
ATOM      9  C   UNL     1       0.202  18.399  16.779  0.00  0.00    +0.000 A 
ATOM     10  C   UNL     1       1.494  17.878  16.735  0.00  0.00    +0.000 A 
ATOM     11  C   UNL     1       1.955  16.919  17.674  0.00  0.00    +0.000 A 
ATOM     12  C   UNL     1       3.417  16.544  17.537  0.00  0.00    +0.000 C 
ATOM     13  C   UNL     1       4.016  15.377  18.320  0.00  0.00    +0.000 C 
ATOM     14  C   UNL     1       3.916  15.495  19.819  0.00  0.00    +0.000 A 
ATOM     15  C   UNL     1       5.093  15.548  20.592  0.00  0.00    +0.000 A 
ATOM     16  C   UNL     1       5.033  15.677  21.982  0.00  0.00    +0.000 A 
ATOM     17  C   UNL     1       3.809  15.811  22.609  0.00  0.00    +0.000 A 
ATOM     18  C   UNL     1       2.637  15.763  21.852  0.00  0.00    +0.000 A 
ATOM     19  C   UNL     1       2.667  15.542  20.454  0.00  0.00    +0.000 A 
ENDBRANCH   3   5
BRANCH   2  20
ATOM     20  C   UNL     1      -0.515  11.907  19.096  0.00  0.00    +0.000 C 
BRANCH  20  21
ATOM     21  C   UNL     1       0.056  10.577  19.626  0.00  0.00    +0.000 A 
ATOM     22  C   UNL     1       1.079   9.869  18.967  0.00  0.00    +0.000 A 
ATOM     23  C   UNL     1       1.658   8.725  19.537  0.00  0.00    +0.000 A 
ATOM     24  C   UNL     1       1.216   8.265  20.773  0.00  0.00    +0.000 A 
ATOM     25  C   UNL     1       0.184   8.929  21.429  0.00  0.00    +0.000 A 
ATOM     26  C   UNL     1      -0.395  10.072  20.863  0.00  0.00    +0.000 A 
ENDBRANCH  20  21
BRANCH  20  27
ATOM     27  C   UNL     1      -2.079  11.880  18.829  0.00  0.00    +0.000 C 
BRANCH  27  28
ATOM     28  N   UNL     1      -2.722  10.709  18.167  0.00  0.00    +0.000 NA
ATOM     29  C   UNL     1      -4.134  10.926  17.796  0.00  0.00    +0.000 C 
ATOM     30  C   UNL     1      -4.262  10.816  16.281  0.00  0.00    +0.000 C 
ATOM     31  C   UNL     1      -2.846  10.985  15.778  0.00  0.00    +0.000 C 
ATOM     32  C   UNL     1      -2.023  10.366  16.907  0.00  0.00    +0.000 C 
BRANCH  31  33
ATOM     33  O   UNL     1      -2.659  10.348  14.526  0.00  0.00    +0.000 OA
ATOM     34  H   UNL     1      -3.465  10.468  13.993  0.00  0.00    +0.000 HD
ENDBRANCH  31  33
ENDBRANCH  27  28
ENDBRANCH  20  27
ENDBRANCH   2  20
TORSDOF 6
ENDMDL
MODEL 4
REMARK VINA RESULT:      -7.4      6.672     10.570
REMARK  Name = 
REMARK  7 active torsions:
REMARK  status: ('A' for Active; 'I' for Inactive)
REMARK    1  A    between atoms: C_1  and  N_2
REMARK    2  A    between atoms: N_2  and  C_20
REMARK    3  A    between atoms: C_3  and  C_5
REMARK    4  A    between atoms: C_20  and  C_21
REMARK    5  A    between atoms: C_20  and  C_28
REMARK    6  A    between atoms: C_21  and  N_22
REMARK    7  A    between atoms: C_25  and  O_26
REMARK                            x       y       z     vdW  Elec       q    Type
REMARK                         _______ _______ _______ _____ _____    ______ ____
ROOT
ATOM      1  C   UNL     1      -1.555  14.801  21.038  0.00  0.00    +0.000 C 
ATOM      2  N   UNL     1      -0.373  14.324  20.338  0.00  0.00    +0.000 N 
ATOM      3  C   UNL     1      -0.418  13.182  19.510  0.00  0.00    +0.000 C 
ATOM      4  O   UNL     1       0.403  13.032  18.599  0.00  0.00    +0.000 OA
ENDROOT
BRANCH   3   5
ATOM      5  C   UNL     1      -1.456  12.039  19.868  0.00  0.00    +0.000 C 
ATOM      6  C   UNL     1      -0.923  11.052  20.921  0.00  0.00    +0.000 A 
ATOM      7  C   UNL     1      -1.256  11.334  22.272  0.00  0.00    +0.000 A 
ATOM      8  C   UNL     1      -0.789  10.559  23.334  0.00  0.00    +0.000 A 
ATOM      9  C   UNL     1       0.040   9.483  23.076  0.00  0.00    +0.000 A 
ATOM     10  C   UNL     1       0.360   9.165  21.758  0.00  0.00    +0.000 A 
ATOM     11  C   UNL     1      -0.124   9.922  20.659  0.00  0.00    +0.000 A 
ATOM     12  C   UNL     1       0.238   9.368  19.296  0.00  0.00    +0.000 C 
ATOM     13  C   UNL     1      -0.014  10.169  18.019  0.00  0.00    +0.000 C 
ATOM     14  C   UNL     1      -1.452  10.546  17.774  0.00  0.00    +0.000 A 
ATOM     15  C   UNL     1      -2.110  10.066  16.625  0.00  0.00    +0.000 A 
ATOM     16  C   UNL     1      -3.449  10.382  16.381  0.00  0.00    +0.000 A 
ATOM     17  C   UNL     1      -4.160  11.127  17.302  0.00  0.00    +0.000 A 
ATOM     18  C   UNL     1      -3.518  11.605  18.446  0.00  0.00    +0.000 A 
ATOM     19  C   UNL     1      -2.139  11.377  18.671  0.00  0.00    +0.000 A 
ENDBRANCH   3   5
BRANCH   2  20
ATOM     20  C   UNL     1       0.771  15.296  20.312  0.00  0.00    +0.000 C 
BRANCH  20  21
ATOM     21  C   UNL     1       0.709  16.340  19.180  0.00  0.00    +0.000 A 
ATOM     22  C   UNL     1       1.854  16.798  18.501  0.00  0.00    +0.000 A 
ATOM     23  C   UNL     1       1.752  17.659  17.398  0.00  0.00    +0.000 A 
ATOM     24  C   UNL     1       0.501  18.082  16.961  0.00  0.00    +0.000 A 
ATOM     25  C   UNL     1      -0.643  17.668  17.635  0.00  0.00    +0.000 A 
ATOM     26  C   UNL     1      -0.545  16.808  18.736  0.00  0.00    +0.000 A 
ENDBRANCH  20  21
BRANCH  20  27
ATOM     27  C   UNL     1       1.266  15.876  21.703  0.00  0.00    +0.000 C 
BRANCH  27  28
ATOM     28  N   UNL     1       2.559  15.435  22.300  0.00  0.00    +0.000 NA
ATOM     29  C   UNL     1       3.292  14.443  21.489  0.00  0.00    +0.000 C 
ATOM     30  C   UNL     1       4.628  15.047  21.072  0.00  0.00    +0.000 C 
ATOM     31  C   UNL     1       4.442  16.533  21.276  0.00  0.00    +0.000 C 
ATOM     32  C   UNL     1       3.482  16.581  22.464  0.00  0.00    +0.000 C 
BRANCH  31  33
ATOM     33  O   UNL     1       5.677  17.184  21.518  0.00  0.00    +0.000 OA
ATOM     34  H   UNL     1       6.400  16.587  21.256  0.00  0.00    +0.000 HD
ENDBRANCH  31  33
ENDBRANCH  27  28
ENDBRANCH  20  27
ENDBRANCH   2  20
TORSDOF 6
ENDMDL
MODEL 5
REMARK VINA RESULT:      -7.4      3.087      6.282
REMARK  Name = 
REMARK  7 active torsions:
REMARK  status: ('A' for Active; 'I' for Inactive)
REMARK    1  A    between atoms: C_1  and  N_2
REMARK    2  A    between atoms: N_2  and  C_20
REMARK    3  A    between atoms: C_3  and  C_5
REMARK    4  A    between atoms: C_20  and  C_21
REMARK    5  A    between atoms: C_20  and  C_28
REMARK    6  A    between atoms: C_21  and  N_22
REMARK    7  A    between atoms: C_25  and  O_26
REMARK                            x       y       z     vdW  Elec       q    Type
REMARK                         _______ _______ _______ _____ _____    ______ ____
ROOT
ATOM      1  C   UNL     1       1.406   8.141  20.936  0.00  0.00    +0.000 C 
ATOM      2  N   UNL     1       1.469   8.404  19.507  0.00  0.00    +0.000 N 
ATOM      3  C   UNL     1       1.941   7.433  18.599  0.00  0.00    +0.000 C 
ATOM      4  O   UNL     1       1.596   7.458  17.413  0.00  0.00    +0.000 OA
ENDROOT
BRANCH   3   5
ATOM      5  C   UNL     1       3.030   6.400  19.108  0.00  0.00    +0.000 C 
ATOM      6  C   UNL     1       4.146   6.147  18.079  0.00  0.00    +0.000 A 
ATOM      7  C   UNL     1       5.311   6.948  18.206  0.00  0.00    +0.000 A 
ATOM      8  C   UNL     1       6.374   6.867  17.305  0.00  0.00    +0.000 A 
ATOM      9  C   UNL     1       6.296   5.991  16.239  0.00  0.00    +0.000 A 
ATOM     10  C   UNL     1       5.177   5.172  16.105  0.00  0.00    +0.000 A 
ATOM     11  C   UNL     1       4.095   5.216  17.023  0.00  0.00    +0.000 A 
ATOM     12  C   UNL     1       3.013   4.182  16.782  0.00  0.00    +0.000 C 
ATOM     13  C   UNL     1       1.685   4.228  17.536  0.00  0.00    +0.000 C 
ATOM     14  C   UNL     1       1.798   4.144  19.036  0.00  0.00    +0.000 A 
ATOM     15  C   UNL     1       1.207   3.062  19.718  0.00  0.00    +0.000 A 
ATOM     16  C   UNL     1       1.312   2.945  21.106  0.00  0.00    +0.000 A 
ATOM     17  C   UNL     1       2.051   3.868  21.821  0.00  0.00    +0.000 A 
ATOM     18  C   UNL     1       2.644   4.942  21.155  0.00  0.00    +0.000 A 
ATOM     19  C   UNL     1       2.476   5.134  19.762  0.00  0.00    +0.000 A 
ENDBRANCH   3   5
BRANCH   2  20
ATOM     20  C   UNL     1       0.714   9.624  19.064  0.00  0.00    +0.000 C 
BRANCH  20  21
ATOM     21  C   UNL     1       1.502  10.946  19.163  0.00  0.00    +0.000 A 
ATOM     22  C   UNL     1       2.276  11.453  18.102  0.00  0.00    +0.000 A 
ATOM     23  C   UNL     1       2.884  12.715  18.183  0.00  0.00    +0.000 A 
ATOM     24  C   UNL     1       2.734  13.487  19.330  0.00  0.00    +0.000 A 
ATOM     25  C   UNL     1       2.000  12.993  20.404  0.00  0.00    +0.000 A 
ATOM     26  C   UNL     1       1.391  11.734  20.327  0.00  0.00    +0.000 A 
ENDBRANCH  20  21
BRANCH  20  27
ATOM     27  C   UNL     1      -0.177   9.497  17.758  0.00  0.00    +0.000 C 
BRANCH  27  28
ATOM     28  N   UNL     1      -1.662   9.614  17.830  0.00  0.00    +0.000 NA
ATOM     29  C   UNL     1      -2.139  10.772  18.611  0.00  0.00    +0.000 C 
ATOM     30  C   UNL     1      -2.927  11.692  17.686  0.00  0.00    +0.000 C 
ATOM     31  C   UNL     1      -2.505  11.270  16.297  0.00  0.00    +0.000 C 
ATOM     32  C   UNL     1      -2.243   9.775  16.477  0.00  0.00    +0.000 C 
BRANCH  31  33
ATOM     33  O   UNL     1      -3.508  11.558  15.338  0.00  0.00    +0.000 OA
ATOM     34  H   UNL     1      -4.134  10.813  15.310  0.00  0.00    +0.000 HD
ENDBRANCH  31  33
ENDBRANCH  27  28
ENDBRANCH  20  27
ENDBRANCH   2  20
TORSDOF 6
ENDMDL
MODEL 6
REMARK VINA RESULT:      -7.2      6.894     10.789
REMARK  Name = 
REMARK  7 active torsions:
REMARK  status: ('A' for Active; 'I' for Inactive)
REMARK    1  A    between atoms: C_1  and  N_2
REMARK    2  A    between atoms: N_2  and  C_20
REMARK    3  A    between atoms: C_3  and  C_5
REMARK    4  A    between atoms: C_20  and  C_21
REMARK    5  A    between atoms: C_20  and  C_28
REMARK    6  A    between atoms: C_21  and  N_22
REMARK    7  A    between atoms: C_25  and  O_26
REMARK                            x       y       z     vdW  Elec       q    Type
REMARK                         _______ _______ _______ _____ _____    ______ ____
ROOT
ATOM      1  C   UNL     1      -2.343  15.008  20.701  0.00  0.00    +0.000 C 
ATOM      2  N   UNL     1      -0.978  14.628  20.375  0.00  0.00    +0.000 N 
ATOM      3  C   UNL     1      -0.685  13.399  19.746  0.00  0.00    +0.000 C 
ATOM      4  O   UNL     1       0.348  13.261  19.083  0.00  0.00    +0.000 OA
ENDROOT
BRANCH   3   5
ATOM      5  C   UNL     1      -1.642  12.168  20.027  0.00  0.00    +0.000 C 
ATOM      6  C   UNL     1      -1.028  11.137  20.991  0.00  0.00    +0.000 A 
ATOM      7  C   UNL     1      -1.351  11.291  22.365  0.00  0.00    +0.000 A 
ATOM      8  C   UNL     1      -0.815  10.465  23.354  0.00  0.00    +0.000 A 
ATOM      9  C   UNL     1       0.074   9.468  22.999  0.00  0.00    +0.000 A 
ATOM     10  C   UNL     1       0.386   9.275  21.655  0.00  0.00    +0.000 A 
ATOM     11  C   UNL     1      -0.166  10.084  20.627  0.00  0.00    +0.000 A 
ATOM     12  C   UNL     1       0.202   9.663  19.219  0.00  0.00    +0.000 C 
ATOM     13  C   UNL     1      -0.125  10.544  18.014  0.00  0.00    +0.000 C 
ATOM     14  C   UNL     1      -1.588  10.847  17.822  0.00  0.00    +0.000 A 
ATOM     15  C   UNL     1      -2.239  10.418  16.648  0.00  0.00    +0.000 A 
ATOM     16  C   UNL     1      -3.599  10.666  16.451  0.00  0.00    +0.000 A 
ATOM     17  C   UNL     1      -4.336  11.290  17.439  0.00  0.00    +0.000 A 
ATOM     18  C   UNL     1      -3.702  11.717  18.607  0.00  0.00    +0.000 A 
ATOM     19  C   UNL     1      -2.307  11.559  18.793  0.00  0.00    +0.000 A 
ENDBRANCH   3   5
BRANCH   2  20
ATOM     20  C   UNL     1       0.019  15.747  20.464  0.00  0.00    +0.000 C 
BRANCH  20  21
ATOM     21  C   UNL     1       0.205  16.554  19.163  0.00  0.00    +0.000 A 
ATOM     22  C   UNL     1      -0.852  17.234  18.529  0.00  0.00    +0.000 A 
ATOM     23  C   UNL     1      -0.626  18.055  17.414  0.00  0.00    +0.000 A 
ATOM     24  C   UNL     1       0.662  18.202  16.909  0.00  0.00    +0.000 A 
ATOM     25  C   UNL     1       1.718  17.515  17.500  0.00  0.00    +0.000 A 
ATOM     26  C   UNL     1       1.496  16.696  18.614  0.00  0.00    +0.000 A 
ENDBRANCH  20  21
BRANCH  20  27
ATOM     27  C   UNL     1       0.006  16.633  21.779  0.00  0.00    +0.000 C 
BRANCH  27  28
ATOM     28  N   UNL     1       0.488  16.082  23.078  0.00  0.00    +0.000 NA
ATOM     29  C   UNL     1       1.275  17.036  23.884  0.00  0.00    +0.000 C 
ATOM     30  C   UNL     1       0.542  17.287  25.196  0.00  0.00    +0.000 C 
ATOM     31  C   UNL     1      -0.871  16.821  24.925  0.00  0.00    +0.000 C 
ATOM     32  C   UNL     1      -0.652  15.678  23.935  0.00  0.00    +0.000 C 
BRANCH  31  33
ATOM     33  O   UNL     1      -1.524  16.420  26.117  0.00  0.00    +0.000 OA
ATOM     34  H   UNL     1      -1.288  15.494  26.305  0.00  0.00    +0.000 HD
ENDBRANCH  31  33
ENDBRANCH  27  28
ENDBRANCH  20  27
ENDBRANCH   2  20
TORSDOF 6
ENDMDL
MODEL 7
REMARK VINA RESULT:      -7.2      3.016      5.877
REMARK  Name = 
REMARK  7 active torsions:
REMARK  status: ('A' for Active; 'I' for Inactive)
REMARK    1  A    between atoms: C_1  and  N_2
REMARK    2  A    between atoms: N_2  and  C_20
REMARK    3  A    between atoms: C_3  and  C_5
REMARK    4  A    between atoms: C_20  and  C_21
REMARK    5  A    between atoms: C_20  and  C_28
REMARK    6  A    between atoms: C_21  and  N_22
REMARK    7  A    between atoms: C_25  and  O_26
REMARK                            x       y       z     vdW  Elec       q    Type
REMARK                         _______ _______ _______ _____ _____    ______ ____
ROOT
ATOM      1  C   UNL     1       1.618   8.106  20.460  0.00  0.00    +0.000 C 
ATOM      2  N   UNL     1       2.024   8.386  19.093  0.00  0.00    +0.000 N 
ATOM      3  C   UNL     1       2.564   7.380  18.264  0.00  0.00    +0.000 C 
ATOM      4  O   UNL     1       2.493   7.472  17.034  0.00  0.00    +0.000 OA
ENDROOT
BRANCH   3   5
ATOM      5  C   UNL     1       3.381   6.207  18.946  0.00  0.00    +0.000 C 
ATOM      6  C   UNL     1       4.601   5.763  18.120  0.00  0.00    +0.000 A 
ATOM      7  C   UNL     1       5.837   6.382  18.443  0.00  0.00    +0.000 A 
ATOM      8  C   UNL     1       7.011   6.120  17.734  0.00  0.00    +0.000 A 
ATOM      9  C   UNL     1       6.979   5.241  16.668  0.00  0.00    +0.000 A 
ATOM     10  C   UNL     1       5.786   4.597  16.346  0.00  0.00    +0.000 A 
ATOM     11  C   UNL     1       4.585   4.826  17.068  0.00  0.00    +0.000 A 
ATOM     12  C   UNL     1       3.414   3.962  16.647  0.00  0.00    +0.000 C 
ATOM     13  C   UNL     1       2.002   4.227  17.166  0.00  0.00    +0.000 C 
ATOM     14  C   UNL     1       1.849   4.162  18.663  0.00  0.00    +0.000 A 
ATOM     15  C   UNL     1       0.993   3.198  19.233  0.00  0.00    +0.000 A 
ATOM     16  C   UNL     1       0.846   3.100  20.619  0.00  0.00    +0.000 A 
ATOM     17  C   UNL     1       1.588   3.917  21.450  0.00  0.00    +0.000 A 
ATOM     18  C   UNL     1       2.441   4.873  20.896  0.00  0.00    +0.000 A 
ATOM     19  C   UNL     1       2.539   5.055  19.496  0.00  0.00    +0.000 A 
ENDBRANCH   3   5
BRANCH   2  20
ATOM     20  C   UNL     1       1.538   9.701  18.555  0.00  0.00    +0.000 C 
BRANCH  20  21
ATOM     21  C   UNL     1       0.009   9.807  18.387  0.00  0.00    +0.000 A 
ATOM     22  C   UNL     1      -0.832  10.347  19.378  0.00  0.00    +0.000 A 
ATOM     23  C   UNL     1      -2.203  10.538  19.145  0.00  0.00    +0.000 A 
ATOM     24  C   UNL     1      -2.756  10.183  17.919  0.00  0.00    +0.000 A 
ATOM     25  C   UNL     1      -1.950   9.617  16.936  0.00  0.00    +0.000 A 
ATOM     26  C   UNL     1      -0.581   9.427  17.164  0.00  0.00    +0.000 A 
ENDBRANCH  20  21
BRANCH  20  27
ATOM     27  C   UNL     1       2.221  11.017  19.120  0.00  0.00    +0.000 C 
BRANCH  27  28
ATOM     28  N   UNL     1       1.614  12.358  18.880  0.00  0.00    +0.000 NA
ATOM     29  C   UNL     1       1.539  13.211  20.083  0.00  0.00    +0.000 C 
ATOM     30  C   UNL     1       2.386  14.456  19.849  0.00  0.00    +0.000 C 
ATOM     31  C   UNL     1       3.288  14.080  18.695  0.00  0.00    +0.000 C 
ATOM     32  C   UNL     1       2.406  13.125  17.891  0.00  0.00    +0.000 C 
BRANCH  31  33
ATOM     33  O   UNL     1       3.701  15.221  17.964  0.00  0.00    +0.000 OA
ATOM     34  H   UNL     1       4.674  15.259  17.971  0.00  0.00    +0.000 HD
ENDBRANCH  31  33
ENDBRANCH  27  28
ENDBRANCH  20  27
ENDBRANCH   2  20
TORSDOF 6
ENDMDL
MODEL 8
REMARK VINA RESULT:      -7.1      5.274      8.385
REMARK  Name = 
REMARK  7 active torsions:
REMARK  status: ('A' for Active; 'I' for Inactive)
REMARK    1  A    between atoms: C_1  and  N_2
REMARK    2  A    between atoms: N_2  and  C_20
REMARK    3  A    between atoms: C_3  and  C_5
REMARK    4  A    between atoms: C_20  and  C_21
REMARK    5  A    between atoms: C_20  and  C_28
REMARK    6  A    between atoms: C_21  and  N_22
REMARK    7  A    between atoms: C_25  and  O_26
REMARK                            x       y       z     vdW  Elec       q    Type
REMARK                         _______ _______ _______ _____ _____    ______ ____
ROOT
ATOM      1  C   UNL     1       0.774  11.515  20.839  0.00  0.00    +0.000 C 
ATOM      2  N   UNL     1       1.067  11.731  19.431  0.00  0.00    +0.000 N 
ATOM      3  C   UNL     1       1.975  12.726  19.012  0.00  0.00    +0.000 C 
ATOM      4  O   UNL     1       2.555  12.631  17.925  0.00  0.00    +0.000 OA
ENDROOT
BRANCH   3   5
ATOM      5  C   UNL     1       2.123  14.027  19.903  0.00  0.00    +0.000 C 
ATOM      6  C   UNL     1       1.233  15.188  19.424  0.00  0.00    +0.000 A 
ATOM      7  C   UNL     1      -0.041  15.298  20.041  0.00  0.00    +0.000 A 
ATOM      8  C   UNL     1      -0.973  16.265  19.661  0.00  0.00    +0.000 A 
ATOM      9  C   UNL     1      -0.664  17.142  18.639  0.00  0.00    +0.000 A 
ATOM     10  C   UNL     1       0.590  17.076  18.035  0.00  0.00    +0.000 A 
ATOM     11  C   UNL     1       1.565  16.120  18.421  0.00  0.00    +0.000 A 
ATOM     12  C   UNL     1       2.906  16.263  17.731  0.00  0.00    +0.000 C 
ATOM     13  C   UNL     1       3.990  15.194  17.866  0.00  0.00    +0.000 C 
ATOM     14  C   UNL     1       4.449  14.925  19.276  0.00  0.00    +0.000 A 
ATOM     15  C   UNL     1       5.793  15.163  19.626  0.00  0.00    +0.000 A 
ATOM     16  C   UNL     1       6.244  14.942  20.930  0.00  0.00    +0.000 A 
ATOM     17  C   UNL     1       5.355  14.539  21.907  0.00  0.00    +0.000 A 
ATOM     18  C   UNL     1       4.021  14.303  21.572  0.00  0.00    +0.000 A 
ATOM     19  C   UNL     1       3.558  14.431  20.240  0.00  0.00    +0.000 A 
ENDBRANCH   3   5
BRANCH   2  20
ATOM     20  C   UNL     1       0.591  10.635  18.521  0.00  0.00    +0.000 C 
BRANCH  20  21
ATOM     21  C   UNL     1       1.347   9.300  18.663  0.00  0.00    +0.000 A 
ATOM     22  C   UNL     1       2.221   8.808  17.674  0.00  0.00    +0.000 A 
ATOM     23  C   UNL     1       2.983   7.650  17.886  0.00  0.00    +0.000 A 
ATOM     24  C   UNL     1       2.878   6.958  19.088  0.00  0.00    +0.000 A 
ATOM     25  C   UNL     1       1.997   7.407  20.068  0.00  0.00    +0.000 A 
ATOM     26  C   UNL     1       1.236   8.564  19.861  0.00  0.00    +0.000 A 
ENDBRANCH  20  21
BRANCH  20  27
ATOM     27  C   UNL     1      -0.976  10.476  18.329  0.00  0.00    +0.000 C 
BRANCH  27  28
ATOM     28  N   UNL     1      -1.788  11.569  17.722  0.00  0.00    +0.000 NA
ATOM     29  C   UNL     1      -2.880  11.096  16.848  0.00  0.00    +0.000 C 
ATOM     30  C   UNL     1      -4.209  11.548  17.441  0.00  0.00    +0.000 C 
ATOM     31  C   UNL     1      -3.878  11.882  18.878  0.00  0.00    +0.000 C 
ATOM     32  C   UNL     1      -2.439  12.387  18.771  0.00  0.00    +0.000 C 
BRANCH  31  33
ATOM     33  O   UNL     1      -4.776  12.840  19.410  0.00  0.00    +0.000 OA
ATOM     34  H   UNL     1      -4.261  13.531  19.863  0.00  0.00    +0.000 HD
ENDBRANCH  31  33
ENDBRANCH  27  28
ENDBRANCH  20  27
ENDBRANCH   2  20
TORSDOF 6
ENDMDL
MODEL 9
REMARK VINA RESULT:      -7.1      2.721      7.776
REMARK  Name = 
REMARK  7 active torsions:
REMARK  status: ('A' for Active; 'I' for Inactive)
REMARK    1  A    between atoms: C_1  and  N_2
REMARK    2  A    between atoms: N_2  and  C_20
REMARK    3  A    between atoms: C_3  and  C_5
REMARK    4  A    between atoms: C_20  and  C_21
REMARK    5  A    between atoms: C_20  and  C_28
REMARK    6  A    between atoms: C_21  and  N_22
REMARK    7  A    between atoms: C_25  and  O_26
REMARK                            x       y       z     vdW  Elec       q    Type
REMARK                         _______ _______ _______ _____ _____    ______ ____
ROOT
ATOM      1  C   UNL     1       1.715   7.511  17.122  0.00  0.00    +0.000 C 
ATOM      2  N   UNL     1       2.090   7.854  18.485  0.00  0.00    +0.000 N 
ATOM      3  C   UNL     1       1.451   8.900  19.184  0.00  0.00    +0.000 C 
ATOM      4  O   UNL     1       1.430   8.912  20.419  0.00  0.00    +0.000 OA
ENDROOT
BRANCH   3   5
ATOM      5  C   UNL     1       0.887  10.123  18.348  0.00  0.00    +0.000 C 
ATOM      6  C   UNL     1       1.495  11.472  18.772  0.00  0.00    +0.000 A 
ATOM      7  C   UNL     1       2.630  11.907  18.038  0.00  0.00    +0.000 A 
ATOM      8  C   UNL     1       3.318  13.079  18.354  0.00  0.00    +0.000 A 
ATOM      9  C   UNL     1       2.899  13.846  19.426  0.00  0.00    +0.000 A 
ATOM     10  C   UNL     1       1.771  13.458  20.146  0.00  0.00    +0.000 A 
ATOM     11  C   UNL     1       1.038  12.284  19.828  0.00  0.00    +0.000 A 
ATOM     12  C   UNL     1      -0.219  12.076  20.649  0.00  0.00    +0.000 C 
ATOM     13  C   UNL     1      -1.002  10.766  20.588  0.00  0.00    +0.000 C 
ATOM     14  C   UNL     1      -1.516  10.392  19.222  0.00  0.00    +0.000 A 
ATOM     15  C   UNL     1      -2.905  10.278  19.009  0.00  0.00    +0.000 A 
ATOM     16  C   UNL     1      -3.413   9.952  17.750  0.00  0.00    +0.000 A 
ATOM     17  C   UNL     1      -2.553   9.794  16.680  0.00  0.00    +0.000 A 
ATOM     18  C   UNL     1      -1.176   9.907  16.878  0.00  0.00    +0.000 A 
ATOM     19  C   UNL     1      -0.630  10.146  18.163  0.00  0.00    +0.000 A 
ENDBRANCH   3   5
BRANCH   2  20
ATOM     20  C   UNL     1       2.950   6.832  19.170  0.00  0.00    +0.000 C 
BRANCH  20  21
ATOM     21  C   UNL     1       2.240   5.504  19.501  0.00  0.00    +0.000 A 
ATOM     22  C   UNL     1       1.787   4.613  18.509  0.00  0.00    +0.000 A 
ATOM     23  C   UNL     1       1.253   3.360  18.844  0.00  0.00    +0.000 A 
ATOM     24  C   UNL     1       1.154   2.981  20.178  0.00  0.00    +0.000 A 
ATOM     25  C   UNL     1       1.566   3.857  21.178  0.00  0.00    +0.000 A 
ATOM     26  C   UNL     1       2.101   5.108  20.847  0.00  0.00    +0.000 A 
ENDBRANCH  20  21
BRANCH  20  27
ATOM     27  C   UNL     1       4.436   6.659  18.645  0.00  0.00    +0.000 C 
BRANCH  27  28
ATOM     28  N   UNL     1       4.786   5.578  17.679  0.00  0.00    +0.000 NA
ATOM     29  C   UNL     1       5.347   6.066  16.403  0.00  0.00    +0.000 C 
ATOM     30  C   UNL     1       6.767   5.533  16.260  0.00  0.00    +0.000 C 
ATOM     31  C   UNL     1       7.151   5.121  17.663  0.00  0.00    +0.000 C 
ATOM     32  C   UNL     1       5.812   4.674  18.249  0.00  0.00    +0.000 C 
BRANCH  31  33
ATOM     33  O   UNL     1       8.134   4.100  17.656  0.00  0.00    +0.000 OA
ATOM     34  H   UNL     1       8.774   4.291  16.947  0.00  0.00    +0.000 HD
ENDBRANCH  31  33
ENDBRANCH  27  28
ENDBRANCH  20  27
ENDBRANCH   2  20
TORSDOF 6
ENDMDL
