MODEL 1
REMARK VINA RESULT:      -7.5      0.000      0.000
REMARK  Name = 
REMARK  7 active torsions:
REMARK  status: ('A' for Active; 'I' for Inactive)
REMARK    1  A    between atoms: C_1  and  C_2
REMARK    2  A    between atoms: C_2  and  C_3
REMARK    3  A    between atoms: C_2  and  C_4
REMARK    4  A    between atoms: N_6  and  C_7
REMARK    5  A    between atoms: C_7  and  C_8
REMARK    6  A    between atoms: C_8  and  C_9
REMARK    7  A    between atoms: C_11  and  C_12
REMARK                            x       y       z     vdW  Elec       q    Type
REMARK                         _______ _______ _______ _____ _____    ______ ____
ROOT
ATOM      1  C   UNL     1       6.463   4.308  16.866  0.00  0.00    +0.000 A 
ATOM      2  N   UNL     1       5.209   3.933  16.737  0.00  0.00    +0.000 NA
ATOM      3  C   UNL     1       4.774   3.781  18.037  0.00  0.00    +0.000 A 
ATOM      4  N   UNL     1       5.721   4.030  18.956  0.00  0.00    +0.000 NA
ATOM      5  N   UNL     1       6.771   4.361  18.194  0.00  0.00    +0.000 N 
ATOM      6  H   UNL     1       7.649   4.613  18.636  0.00  0.00    +0.000 HD
ENDROOT
BRANCH   3   7
ATOM      7  C   UNL     1       3.408   3.394  18.362  0.00  0.00    +0.000 A 
ATOM      8  C   UNL     1       3.157   2.223  19.080  0.00  0.00    +0.000 A 
ATOM      9  C   UNL     1       1.843   1.892  19.364  0.00  0.00    +0.000 A 
ATOM     10  N   UNL     1       0.783   2.637  18.986  0.00  0.00    +0.000 NA
ATOM     11  C   UNL     1       1.048   3.763  18.290  0.00  0.00    +0.000 A 
ATOM     12  C   UNL     1       2.325   4.179  17.957  0.00  0.00    +0.000 A 
ENDBRANCH   3   7
BRANCH   1  13
ATOM     13  C   UNL     1       7.447   4.638  15.808  0.00  0.00    +0.000 C 
BRANCH  13  14
ATOM     14  C   UNL     1       6.765   5.052  14.502  0.00  0.00    +0.000 C 
BRANCH  14  17
ATOM     15  C   UNL     1       6.337   3.613  12.544  0.00  0.00    +0.000 C 
ATOM     16  O   UNL     1       7.195   4.186  11.880  0.00  0.00    +0.000 OA
ATOM     17  N   UNL     1       6.072   3.948  13.853  0.00  0.00    +0.000 N 
ATOM     18  H   UNL     1       5.226   3.601  14.286  0.00  0.00    +0.000 HD
BRANCH  15  20
ATOM     19  C   UNL     1       4.291   3.090  11.199  0.00  0.00    +0.000 C 
ATOM     20  C   UNL     1       5.463   2.493  11.981  0.00  0.00    +0.000 C 
ATOM     21  C   UNL     1       6.258   1.548  11.082  0.00  0.00    +0.000 C 
ENDBRANCH  15  20
ENDBRANCH  14  17
ENDBRANCH  13  14
ENDBRANCH   1  13
TORSDOF 5
ENDMDL
MODEL 2
REMARK VINA RESULT:      -7.1      0.912      1.021
REMARK  Name = 
REMARK  7 active torsions:
REMARK  status: ('A' for Active; 'I' for Inactive)
REMARK    1  A    between atoms: C_1  and  C_2
REMARK    2  A    between atoms: C_2  and  C_3
REMARK    3  A    between atoms: C_2  and  C_4
REMARK    4  A    between atoms: N_6  and  C_7
REMARK    5  A    between atoms: C_7  and  C_8
REMARK    6  A    between atoms: C_8  and  C_9
REMARK    7  A    between atoms: C_11  and  C_12
REMARK                            x       y       z     vdW  Elec       q    Type
REMARK                         _______ _______ _______ _____ _____    ______ ____
ROOT
ATOM      1  C   UNL     1       6.115   4.526  17.097  0.00  0.00    +0.000 A 
ATOM      2  N   UNL     1       4.898   4.030  17.120  0.00  0.00    +0.000 NA
ATOM      3  C   UNL     1       4.489   4.217  18.424  0.00  0.00    +0.000 A 
ATOM      4  N   UNL     1       5.420   4.791  19.204  0.00  0.00    +0.000 NA
ATOM      5  N   UNL     1       6.430   4.977  18.345  0.00  0.00    +0.000 N 
ATOM      6  H   UNL     1       7.286   5.414  18.670  0.00  0.00    +0.000 HD
ENDROOT
BRANCH   3   7
ATOM      7  C   UNL     1       3.165   3.828  18.890  0.00  0.00    +0.000 A 
ATOM      8  C   UNL     1       2.607   4.431  20.020  0.00  0.00    +0.000 A 
ATOM      9  C   UNL     1       1.348   4.029  20.428  0.00  0.00    +0.000 A 
ATOM     10  N   UNL     1       0.621   3.082  19.798  0.00  0.00    +0.000 NA
ATOM     11  C   UNL     1       1.180   2.510  18.710  0.00  0.00    +0.000 A 
ATOM     12  C   UNL     1       2.432   2.843  18.224  0.00  0.00    +0.000 A 
ENDBRANCH   3   7
BRANCH   1  13
ATOM     13  C   UNL     1       7.057   4.623  15.956  0.00  0.00    +0.000 C 
BRANCH  13  14
ATOM     14  C   UNL     1       6.357   5.079  14.673  0.00  0.00    +0.000 C 
BRANCH  14  17
ATOM     15  C   UNL     1       6.216   3.639  12.675  0.00  0.00    +0.000 C 
ATOM     16  O   UNL     1       7.163   4.209  12.143  0.00  0.00    +0.000 OA
ATOM     17  N   UNL     1       5.764   3.976  13.932  0.00  0.00    +0.000 N 
ATOM     18  H   UNL     1       4.863   3.631  14.238  0.00  0.00    +0.000 HD
BRANCH  15  20
ATOM     19  C   UNL     1       4.255   3.109  11.212  0.00  0.00    +0.000 C 
ATOM     20  C   UNL     1       5.431   2.519  11.993  0.00  0.00    +0.000 C 
ATOM     21  C   UNL     1       6.313   1.695  11.056  0.00  0.00    +0.000 C 
ENDBRANCH  15  20
ENDBRANCH  14  17
ENDBRANCH  13  14
ENDBRANCH   1  13
TORSDOF 5
ENDMDL
MODEL 3
REMARK VINA RESULT:      -6.8      4.915      6.947
REMARK  Name = 
REMARK  7 active torsions:
REMARK  status: ('A' for Active; 'I' for Inactive)
REMARK    1  A    between atoms: C_1  and  C_2
REMARK    2  A    between atoms: C_2  and  C_3
REMARK    3  A    between atoms: C_2  and  C_4
REMARK    4  A    between atoms: N_6  and  C_7
REMARK    5  A    between atoms: C_7  and  C_8
REMARK    6  A    between atoms: C_8  and  C_9
REMARK    7  A    between atoms: C_11  and  C_12
REMARK                            x       y       z     vdW  Elec       q    Type
REMARK                         _______ _______ _______ _____ _____    ______ ____
ROOT
ATOM      1  C   UNL     1       6.643   6.504  17.725  0.00  0.00    +0.000 A 
ATOM      2  N   UNL     1       5.862   5.594  18.265  0.00  0.00    +0.000 NA
ATOM      3  C   UNL     1       4.809   5.494  17.379  0.00  0.00    +0.000 A 
ATOM      4  N   UNL     1       4.908   6.325  16.329  0.00  0.00    +0.000 NA
ATOM      5  N   UNL     1       6.070   6.945  16.568  0.00  0.00    +0.000 N 
ATOM      6  H   UNL     1       6.409   7.641  15.913  0.00  0.00    +0.000 HD
ENDROOT
BRANCH   3   7
ATOM      7  C   UNL     1       3.707   4.564  17.580  0.00  0.00    +0.000 A 
ATOM      8  C   UNL     1       2.422   5.038  17.853  0.00  0.00    +0.000 A 
ATOM      9  C   UNL     1       1.405   4.118  18.039  0.00  0.00    +0.000 A 
ATOM     10  N   UNL     1       1.581   2.782  17.974  0.00  0.00    +0.000 NA
ATOM     11  C   UNL     1       2.832   2.344  17.712  0.00  0.00    +0.000 A 
ATOM     12  C   UNL     1       3.913   3.184  17.511  0.00  0.00    +0.000 A 
ENDBRANCH   3   7
BRANCH   1  13
ATOM     13  C   UNL     1       7.942   7.023  18.217  0.00  0.00    +0.000 C 
BRANCH  13  14
ATOM     14  C   UNL     1       8.090   8.525  17.963  0.00  0.00    +0.000 C 
BRANCH  14  17
ATOM     15  C   UNL     1       9.210  10.528  18.871  0.00  0.00    +0.000 C 
ATOM     16  O   UNL     1       8.789  11.231  17.958  0.00  0.00    +0.000 OA
ATOM     17  N   UNL     1       8.897   9.190  18.976  0.00  0.00    +0.000 N 
ATOM     18  H   UNL     1       9.430   8.611  19.612  0.00  0.00    +0.000 HD
BRANCH  15  20
ATOM     19  C   UNL     1      11.409  11.631  19.335  0.00  0.00    +0.000 C 
ATOM     20  C   UNL     1      10.139  11.055  19.964  0.00  0.00    +0.000 C 
ATOM     21  C   UNL     1       9.459  12.117  20.825  0.00  0.00    +0.000 C 
ENDBRANCH  15  20
ENDBRANCH  14  17
ENDBRANCH  13  14
ENDBRANCH   1  13
TORSDOF 5
ENDMDL
MODEL 4
REMARK VINA RESULT:      -6.8      1.818      2.187
REMARK  Name = 
REMARK  7 active torsions:
REMARK  status: ('A' for Active; 'I' for Inactive)
REMARK    1  A    between atoms: C_1  and  C_2
REMARK    2  A    between atoms: C_2  and  C_3
REMARK    3  A    between atoms: C_2  and  C_4
REMARK    4  A    between atoms: N_6  and  C_7
REMARK    5  A    between atoms: C_7  and  C_8
REMARK    6  A    between atoms: C_8  and  C_9
REMARK    7  A    between atoms: C_11  and  C_12
REMARK                            x       y       z     vdW  Elec       q    Type
REMARK                         _______ _______ _______ _____ _____    ______ ____
ROOT
ATOM      1  C   UNL     1       6.307   4.655  17.083  0.00  0.00    +0.000 A 
ATOM      2  N   UNL     1       5.172   5.272  17.324  0.00  0.00    +0.000 NA
ATOM      3  C   UNL     1       4.882   4.934  18.629  0.00  0.00    +0.000 A 
ATOM      4  N   UNL     1       5.788   4.115  19.188  0.00  0.00    +0.000 NA
ATOM      5  N   UNL     1       6.674   3.958  18.196  0.00  0.00    +0.000 N 
ATOM      6  H   UNL     1       7.493   3.378  18.346  0.00  0.00    +0.000 HD
ENDROOT
BRANCH   3   7
ATOM      7  C   UNL     1       3.702   5.433  19.321  0.00  0.00    +0.000 A 
ATOM      8  C   UNL     1       3.247   6.734  19.095  0.00  0.00    +0.000 A 
ATOM      9  C   UNL     1       2.123   7.168  19.776  0.00  0.00    +0.000 A 
ATOM     10  N   UNL     1       1.435   6.405  20.652  0.00  0.00    +0.000 NA
ATOM     11  C   UNL     1       1.894   5.152  20.858  0.00  0.00    +0.000 A 
ATOM     12  C   UNL     1       3.007   4.627  20.226  0.00  0.00    +0.000 A 
ENDBRANCH   3   7
BRANCH   1  13
ATOM     13  C   UNL     1       7.121   4.659  15.843  0.00  0.00    +0.000 C 
BRANCH  13  14
ATOM     14  C   UNL     1       6.311   5.120  14.629  0.00  0.00    +0.000 C 
BRANCH  14  17
ATOM     15  C   UNL     1       6.182   3.633  12.664  0.00  0.00    +0.000 C 
ATOM     16  O   UNL     1       7.155   4.165  12.142  0.00  0.00    +0.000 OA
ATOM     17  N   UNL     1       5.708   4.014  13.901  0.00  0.00    +0.000 N 
ATOM     18  H   UNL     1       4.791   3.700  14.192  0.00  0.00    +0.000 HD
BRANCH  15  20
ATOM     19  C   UNL     1       4.252   3.117  11.155  0.00  0.00    +0.000 C 
ATOM     20  C   UNL     1       5.384   2.517  11.990  0.00  0.00    +0.000 C 
ATOM     21  C   UNL     1       6.270   1.638  11.108  0.00  0.00    +0.000 C 
ENDBRANCH  15  20
ENDBRANCH  14  17
ENDBRANCH  13  14
ENDBRANCH   1  13
TORSDOF 5
ENDMDL
MODEL 5
REMARK VINA RESULT:      -6.8      2.338      2.935
REMARK  Name = 
REMARK  7 active torsions:
REMARK  status: ('A' for Active; 'I' for Inactive)
REMARK    1  A    between atoms: C_1  and  C_2
REMARK    2  A    between atoms: C_2  and  C_3
REMARK    3  A    between atoms: C_2  and  C_4
REMARK    4  A    between atoms: N_6  and  C_7
REMARK    5  A    between atoms: C_7  and  C_8
REMARK    6  A    between atoms: C_8  and  C_9
REMARK    7  A    between atoms: C_11  and  C_12
REMARK                            x       y       z     vdW  Elec       q    Type
REMARK                         _______ _______ _______ _____ _____    ______ ____
ROOT
ATOM      1  C   UNL     1       6.443   5.526  18.801  0.00  0.00    +0.000 A 
ATOM      2  N   UNL     1       5.152   5.691  18.986  0.00  0.00    +0.000 NA
ATOM      3  C   UNL     1       4.679   4.410  19.181  0.00  0.00    +0.000 A 
ATOM      4  N   UNL     1       5.631   3.466  19.101  0.00  0.00    +0.000 NA
ATOM      5  N   UNL     1       6.729   4.194  18.865  0.00  0.00    +0.000 N 
ATOM      6  H   UNL     1       7.625   3.727  18.765  0.00  0.00    +0.000 HD
ENDROOT
BRANCH   3   7
ATOM      7  C   UNL     1       3.276   4.130  19.453  0.00  0.00    +0.000 A 
ATOM      8  C   UNL     1       2.559   4.920  20.355  0.00  0.00    +0.000 A 
ATOM      9  C   UNL     1       1.229   4.615  20.585  0.00  0.00    +0.000 A 
ATOM     10  N   UNL     1       0.578   3.594  19.989  0.00  0.00    +0.000 NA
ATOM     11  C   UNL     1       1.291   2.841  19.124  0.00  0.00    +0.000 A 
ATOM     12  C   UNL     1       2.624   3.065  18.827  0.00  0.00    +0.000 A 
ENDBRANCH   3   7
BRANCH   1  13
ATOM     13  C   UNL     1       7.485   6.552  18.559  0.00  0.00    +0.000 C 
BRANCH  13  14
ATOM     14  C   UNL     1       7.490   7.031  17.104  0.00  0.00    +0.000 C 
BRANCH  14  17
ATOM     15  C   UNL     1       5.974   5.949  15.486  0.00  0.00    +0.000 C 
ATOM     16  O   UNL     1       5.140   6.840  15.604  0.00  0.00    +0.000 OA
ATOM     17  N   UNL     1       7.175   5.968  16.161  0.00  0.00    +0.000 N 
ATOM     18  H   UNL     1       7.730   5.123  16.199  0.00  0.00    +0.000 HD
BRANCH  15  20
ATOM     19  C   UNL     1       6.886   4.613  13.575  0.00  0.00    +0.000 C 
ATOM     20  C   UNL     1       5.758   4.720  14.602  0.00  0.00    +0.000 C 
ATOM     21  C   UNL     1       5.681   3.435  15.424  0.00  0.00    +0.000 C 
ENDBRANCH  15  20
ENDBRANCH  14  17
ENDBRANCH  13  14
ENDBRANCH   1  13
TORSDOF 5
ENDMDL
MODEL 6
REMARK VINA RESULT:      -6.8      1.150      1.703
REMARK  Name = 
REMARK  7 active torsions:
REMARK  status: ('A' for Active; 'I' for Inactive)
REMARK    1  A    between atoms: C_1  and  C_2
REMARK    2  A    between atoms: C_2  and  C_3
REMARK    3  A    between atoms: C_2  and  C_4
REMARK    4  A    between atoms: N_6  and  C_7
REMARK    5  A    between atoms: C_7  and  C_8
REMARK    6  A    between atoms: C_8  and  C_9
REMARK    7  A    between atoms: C_11  and  C_12
REMARK                            x       y       z     vdW  Elec       q    Type
REMARK                         _______ _______ _______ _____ _____    ______ ____
ROOT
ATOM      1  C   UNL     1       6.077   4.134  17.005  0.00  0.00    +0.000 A 
ATOM      2  N   UNL     1       4.803   3.973  17.290  0.00  0.00    +0.000 NA
ATOM      3  C   UNL     1       4.760   4.044  18.667  0.00  0.00    +0.000 A 
ATOM      4  N   UNL     1       5.964   4.223  19.235  0.00  0.00    +0.000 NA
ATOM      5  N   UNL     1       6.773   4.279  18.169  0.00  0.00    +0.000 N 
ATOM      6  H   UNL     1       7.768   4.420  18.305  0.00  0.00    +0.000 HD
ENDROOT
BRANCH   3   7
ATOM      7  C   UNL     1       3.516   3.940  19.415  0.00  0.00    +0.000 A 
ATOM      8  C   UNL     1       2.862   5.090  19.863  0.00  0.00    +0.000 A 
ATOM      9  C   UNL     1       1.683   4.944  20.573  0.00  0.00    +0.000 A 
ATOM     10  N   UNL     1       1.122   3.750  20.860  0.00  0.00    +0.000 NA
ATOM     11  C   UNL     1       1.772   2.651  20.420  0.00  0.00    +0.000 A 
ATOM     12  C   UNL     1       2.955   2.694  19.704  0.00  0.00    +0.000 A 
ENDBRANCH   3   7
BRANCH   1  13
ATOM     13  C   UNL     1       6.734   4.168  15.677  0.00  0.00    +0.000 C 
BRANCH  13  14
ATOM     14  C   UNL     1       5.882   4.899  14.635  0.00  0.00    +0.000 C 
BRANCH  14  17
ATOM     15  C   UNL     1       6.222   3.854  12.426  0.00  0.00    +0.000 C 
ATOM     16  O   UNL     1       7.326   4.375  12.301  0.00  0.00    +0.000 OA
ATOM     17  N   UNL     1       5.448   4.028  13.552  0.00  0.00    +0.000 N 
ATOM     18  H   UNL     1       4.473   3.760  13.523  0.00  0.00    +0.000 HD
BRANCH  15  20
ATOM     19  C   UNL     1       5.977   1.519  11.556  0.00  0.00    +0.000 C 
ATOM     20  C   UNL     1       5.587   2.983  11.342  0.00  0.00    +0.000 C 
ATOM     21  C   UNL     1       4.066   3.117  11.325  0.00  0.00    +0.000 C 
ENDBRANCH  15  20
ENDBRANCH  14  17
ENDBRANCH  13  14
ENDBRANCH   1  13
TORSDOF 5
ENDMDL
MODEL 7
REMARK VINA RESULT:      -6.8      3.515      7.095
REMARK  Name = 
REMARK  7 active torsions:
REMARK  status: ('A' for Active; 'I' for Inactive)
REMARK    1  A    between atoms: C_1  and  C_2
REMARK    2  A    between atoms: C_2  and  C_3
REMARK    3  A    between atoms: C_2  and  C_4
REMARK    4  A    between atoms: N_6  and  C_7
REMARK    5  A    between atoms: C_7  and  C_8
REMARK    6  A    between atoms: C_8  and  C_9
REMARK    7  A    between atoms: C_11  and  C_12
REMARK                            x       y       z     vdW  Elec       q    Type
REMARK                         _______ _______ _______ _____ _____    ______ ____
ROOT
ATOM      1  C   UNL     1       3.102   2.721  18.858  0.00  0.00    +0.000 A 
ATOM      2  N   UNL     1       3.555   3.464  17.872  0.00  0.00    +0.000 NA
ATOM      3  C   UNL     1       4.873   3.692  18.208  0.00  0.00    +0.000 A 
ATOM      4  N   UNL     1       5.237   3.134  19.374  0.00  0.00    +0.000 NA
ATOM      5  N   UNL     1       4.107   2.527  19.760  0.00  0.00    +0.000 N 
ATOM      6  H   UNL     1       4.093   2.005  20.629  0.00  0.00    +0.000 HD
ENDROOT
BRANCH   3   7
ATOM      7  C   UNL     1       5.772   4.463  17.361  0.00  0.00    +0.000 A 
ATOM      8  C   UNL     1       6.339   5.651  17.828  0.00  0.00    +0.000 A 
ATOM      9  C   UNL     1       7.186   6.353  16.988  0.00  0.00    +0.000 A 
ATOM     10  N   UNL     1       7.497   5.958  15.736  0.00  0.00    +0.000 NA
ATOM     11  C   UNL     1       6.936   4.809  15.302  0.00  0.00    +0.000 A 
ATOM     12  C   UNL     1       6.078   4.037  16.066  0.00  0.00    +0.000 A 
ENDBRANCH   3   7
BRANCH   1  13
ATOM     13  C   UNL     1       1.748   2.147  19.042  0.00  0.00    +0.000 C 
BRANCH  13  14
ATOM     14  C   UNL     1       0.802   3.126  19.742  0.00  0.00    +0.000 C 
BRANCH  14  17
ATOM     15  C   UNL     1       1.978   5.130  20.572  0.00  0.00    +0.000 C 
ATOM     16  O   UNL     1       2.376   4.538  21.570  0.00  0.00    +0.000 OA
ATOM     17  N   UNL     1       1.221   4.513  19.600  0.00  0.00    +0.000 N 
ATOM     18  H   UNL     1       0.743   5.084  18.915  0.00  0.00    +0.000 HD
BRANCH  15  20
ATOM     19  C   UNL     1       2.406   6.864  18.817  0.00  0.00    +0.000 C 
ATOM     20  C   UNL     1       2.258   6.611  20.319  0.00  0.00    +0.000 C 
ATOM     21  C   UNL     1       1.157   7.504  20.888  0.00  0.00    +0.000 C 
ENDBRANCH  15  20
ENDBRANCH  14  17
ENDBRANCH  13  14
ENDBRANCH   1  13
TORSDOF 5
ENDMDL
MODEL 8
REMARK VINA RESULT:      -6.8      3.492      7.051
REMARK  Name = 
REMARK  7 active torsions:
REMARK  status: ('A' for Active; 'I' for Inactive)
REMARK    1  A    between atoms: C_1  and  C_2
REMARK    2  A    between atoms: C_2  and  C_3
REMARK    3  A    between atoms: C_2  and  C_4
REMARK    4  A    between atoms: N_6  and  C_7
REMARK    5  A    between atoms: C_7  and  C_8
REMARK    6  A    between atoms: C_8  and  C_9
REMARK    7  A    between atoms: C_11  and  C_12
REMARK                            x       y       z     vdW  Elec       q    Type
REMARK                         _______ _______ _______ _____ _____    ______ ____
ROOT
ATOM      1  C   UNL     1       3.135   2.698  18.929  0.00  0.00    +0.000 A 
ATOM      2  N   UNL     1       3.571   3.412  17.914  0.00  0.00    +0.000 NA
ATOM      3  C   UNL     1       4.887   3.673  18.234  0.00  0.00    +0.000 A 
ATOM      4  N   UNL     1       5.266   3.163  19.418  0.00  0.00    +0.000 NA
ATOM      5  N   UNL     1       4.148   2.553  19.832  0.00  0.00    +0.000 N 
ATOM      6  H   UNL     1       4.147   2.062  20.719  0.00  0.00    +0.000 HD
ENDROOT
BRANCH   3   7
ATOM      7  C   UNL     1       5.768   4.428  17.355  0.00  0.00    +0.000 A 
ATOM      8  C   UNL     1       6.027   3.979  16.057  0.00  0.00    +0.000 A 
ATOM      9  C   UNL     1       6.872   4.727  15.257  0.00  0.00    +0.000 A 
ATOM     10  N   UNL     1       7.468   5.871  15.656  0.00  0.00    +0.000 NA
ATOM     11  C   UNL     1       7.207   6.285  16.915  0.00  0.00    +0.000 A 
ATOM     12  C   UNL     1       6.376   5.608  17.790  0.00  0.00    +0.000 A 
ENDBRANCH   3   7
BRANCH   1  13
ATOM     13  C   UNL     1       1.791   2.109  19.141  0.00  0.00    +0.000 C 
BRANCH  13  14
ATOM     14  C   UNL     1       0.795   3.139  19.681  0.00  0.00    +0.000 C 
BRANCH  14  17
ATOM     15  C   UNL     1       1.954   5.152  20.511  0.00  0.00    +0.000 C 
ATOM     16  O   UNL     1       2.266   4.596  21.559  0.00  0.00    +0.000 OA
ATOM     17  N   UNL     1       1.255   4.509  19.513  0.00  0.00    +0.000 N 
ATOM     18  H   UNL     1       0.841   5.060  18.772  0.00  0.00    +0.000 HD
BRANCH  15  20
ATOM     19  C   UNL     1       2.398   6.831  18.708  0.00  0.00    +0.000 C 
ATOM     20  C   UNL     1       2.286   6.616  20.218  0.00  0.00    +0.000 C 
ATOM     21  C   UNL     1       1.239   7.563  20.801  0.00  0.00    +0.000 C 
ENDBRANCH  15  20
ENDBRANCH  14  17
ENDBRANCH  13  14
ENDBRANCH   1  13
TORSDOF 5
ENDMDL
MODEL 9
REMARK VINA RESULT:      -6.8      3.598      6.545
REMARK  Name = 
REMARK  7 active torsions:
REMARK  status: ('A' for Active; 'I' for Inactive)
REMARK    1  A    between atoms: C_1  and  C_2
REMARK    2  A    between atoms: C_2  and  C_3
REMARK    3  A    between atoms: C_2  and  C_4
REMARK    4  A    between atoms: N_6  and  C_7
REMARK    5  A    between atoms: C_7  and  C_8
REMARK    6  A    between atoms: C_8  and  C_9
REMARK    7  A    between atoms: C_11  and  C_12
REMARK                            x       y       z     vdW  Elec       q    Type
REMARK                         _______ _______ _______ _____ _____    ______ ____
ROOT
ATOM      1  C   UNL     1       2.776   6.513  19.390  0.00  0.00    +0.000 A 
ATOM      2  N   UNL     1       3.788   5.718  19.118  0.00  0.00    +0.000 NA
ATOM      3  C   UNL     1       4.323   6.248  17.962  0.00  0.00    +0.000 A 
ATOM      4  N   UNL     1       3.663   7.325  17.506  0.00  0.00    +0.000 NA
ATOM      5  N   UNL     1       2.698   7.472  18.423  0.00  0.00    +0.000 N 
ATOM      6  H   UNL     1       2.036   8.236  18.333  0.00  0.00    +0.000 HD
ENDROOT
BRANCH   3   7
ATOM      7  C   UNL     1       5.498   5.681  17.316  0.00  0.00    +0.000 A 
ATOM      8  C   UNL     1       5.611   5.686  15.924  0.00  0.00    +0.000 A 
ATOM      9  C   UNL     1       6.744   5.134  15.352  0.00  0.00    +0.000 A 
ATOM     10  N   UNL     1       7.753   4.587  16.062  0.00  0.00    +0.000 NA
ATOM     11  C   UNL     1       7.622   4.589  17.406  0.00  0.00    +0.000 A 
ATOM     12  C   UNL     1       6.529   5.116  18.071  0.00  0.00    +0.000 A 
ENDBRANCH   3   7
BRANCH   1  13
ATOM     13  C   UNL     1       1.830   6.454  20.530  0.00  0.00    +0.000 C 
BRANCH  13  14
ATOM     14  C   UNL     1       1.242   5.053  20.714  0.00  0.00    +0.000 C 
BRANCH  14  17
ATOM     15  C   UNL     1       1.961   2.909  19.727  0.00  0.00    +0.000 C 
ATOM     16  O   UNL     1       2.167   2.419  20.833  0.00  0.00    +0.000 OA
ATOM     17  N   UNL     1       1.478   4.189  19.566  0.00  0.00    +0.000 N 
ATOM     18  H   UNL     1       1.525   4.619  18.652  0.00  0.00    +0.000 HD
BRANCH  15  20
ATOM     19  C   UNL     1       2.290   3.153  17.257  0.00  0.00    +0.000 C 
ATOM     20  C   UNL     1       2.241   2.163  18.423  0.00  0.00    +0.000 C 
ATOM     21  C   UNL     1       3.547   1.374  18.489  0.00  0.00    +0.000 C 
ENDBRANCH  15  20
ENDBRANCH  14  17
ENDBRANCH  13  14
ENDBRANCH   1  13
TORSDOF 5
ENDMDL
