MODEL 1
REMARK VINA RESULT:      -8.4      0.000      0.000
REMARK  Name = 
REMARK  1 active torsions:
REMARK  status: ('A' for Active; 'I' for Inactive)
REMARK    1  A    between atoms: C_1  and  N_2
REMARK                            x       y       z     vdW  Elec       q    Type
REMARK                         _______ _______ _______ _____ _____    ______ ____
ROOT
ATOM      1  C   UNL     1       1.891   5.456  20.999  0.00  0.00    +0.000 C 
ATOM      2  N   UNL     1       2.736   6.194  20.016  0.00  0.00    +0.000 N 
ATOM      3  C   UNL     1       3.810   5.526  19.529  0.00  0.00    +0.000 A 
ATOM      4  C   UNL     1       4.496   5.970  18.397  0.00  0.00    +0.000 A 
ATOM      5  C   UNL     1       5.659   5.362  17.902  0.00  0.00    +0.000 A 
ATOM      6  C   UNL     1       6.343   5.864  16.816  0.00  0.00    +0.000 A 
ATOM      7  C   UNL     1       5.893   6.947  16.115  0.00  0.00    +0.000 A 
ATOM      8  C   UNL     1       4.694   7.520  16.535  0.00  0.00    +0.000 A 
ATOM      9  C   UNL     1       3.981   7.072  17.690  0.00  0.00    +0.000 A 
ATOM     10  C   UNL     1       2.818   7.720  18.193  0.00  0.00    +0.000 A 
ATOM     11  C   UNL     1       2.158   8.721  17.459  0.00  0.00    +0.000 A 
ATOM     12  C   UNL     1       1.117   9.463  17.995  0.00  0.00    +0.000 A 
ATOM     13  C   UNL     1       0.768   9.313  19.327  0.00  0.00    +0.000 A 
ATOM     14  C   UNL     1      -0.156  10.228  19.853  0.00  0.00    +0.000 A 
ATOM     15  C   UNL     1      -0.407  10.202  21.200  0.00  0.00    +0.000 A 
ATOM     16  C   UNL     1       0.221   9.307  22.016  0.00  0.00    +0.000 A 
ATOM     17  C   UNL     1       1.097   8.355  21.521  0.00  0.00    +0.000 A 
ATOM     18  C   UNL     1       1.384   8.294  20.125  0.00  0.00    +0.000 A 
ATOM     19  C   UNL     1       2.305   7.380  19.477  0.00  0.00    +0.000 A 
ATOM     20  O   UNL     1      -0.084   9.505  23.326  0.00  0.00    +0.000 OA
ATOM     21  C   UNL     1      -1.043  10.579  23.227  0.00  0.00    +0.000 C 
ATOM     22  O   UNL     1      -1.214  11.060  21.875  0.00  0.00    +0.000 OA
ATOM     23  O   UNL     1       7.477   5.172  16.528  0.00  0.00    +0.000 OA
ATOM     24  C   UNL     1       7.290   4.026  17.373  0.00  0.00    +0.000 C 
ATOM     25  O   UNL     1       6.278   4.247  18.392  0.00  0.00    +0.000 OA
ENDROOT
TORSDOF 0
ENDMDL
MODEL 2
REMARK VINA RESULT:      -7.9      2.135      3.818
REMARK  Name = 
REMARK  1 active torsions:
REMARK  status: ('A' for Active; 'I' for Inactive)
REMARK    1  A    between atoms: C_1  and  N_2
REMARK                            x       y       z     vdW  Elec       q    Type
REMARK                         _______ _______ _______ _____ _____    ______ ____
ROOT
ATOM      1  C   UNL     1       2.041  10.532  17.875  0.00  0.00    +0.000 C 
ATOM      2  N   UNL     1       1.790   9.234  18.565  0.00  0.00    +0.000 N 
ATOM      3  C   UNL     1       2.421   8.150  18.051  0.00  0.00    +0.000 A 
ATOM      4  C   UNL     1       2.520   6.955  18.766  0.00  0.00    +0.000 A 
ATOM      5  C   UNL     1       3.090   5.782  18.248  0.00  0.00    +0.000 A 
ATOM      6  C   UNL     1       3.118   4.603  18.961  0.00  0.00    +0.000 A 
ATOM      7  C   UNL     1       2.650   4.522  20.243  0.00  0.00    +0.000 A 
ATOM      8  C   UNL     1       2.155   5.694  20.812  0.00  0.00    +0.000 A 
ATOM      9  C   UNL     1       2.051   6.924  20.091  0.00  0.00    +0.000 A 
ATOM     10  C   UNL     1       1.444   8.096  20.625  0.00  0.00    +0.000 A 
ATOM     11  C   UNL     1       1.097   8.191  21.984  0.00  0.00    +0.000 A 
ATOM     12  C   UNL     1       0.374   9.260  22.487  0.00  0.00    +0.000 A 
ATOM     13  C   UNL     1      -0.133  10.223  21.631  0.00  0.00    +0.000 A 
ATOM     14  C   UNL     1      -1.017  11.166  22.178  0.00  0.00    +0.000 A 
ATOM     15  C   UNL     1      -1.651  12.035  21.331  0.00  0.00    +0.000 A 
ATOM     16  C   UNL     1      -1.431  11.995  19.985  0.00  0.00    +0.000 A 
ATOM     17  C   UNL     1      -0.524  11.114  19.419  0.00  0.00    +0.000 A 
ATOM     18  C   UNL     1       0.202  10.200  20.238  0.00  0.00    +0.000 A 
ATOM     19  C   UNL     1       1.148   9.202  19.778  0.00  0.00    +0.000 A 
ATOM     20  O   UNL     1      -2.226  12.866  19.308  0.00  0.00    +0.000 OA
ATOM     21  C   UNL     1      -2.912  13.517  20.398  0.00  0.00    +0.000 C 
ATOM     22  O   UNL     1      -2.585  12.955  21.688  0.00  0.00    +0.000 OA
ATOM     23  O   UNL     1       3.655   3.567  18.266  0.00  0.00    +0.000 OA
ATOM     24  C   UNL     1       4.209   4.277  17.148  0.00  0.00    +0.000 C 
ATOM     25  O   UNL     1       3.666   5.619  17.019  0.00  0.00    +0.000 OA
ENDROOT
TORSDOF 0
ENDMDL
MODEL 3
REMARK VINA RESULT:      -7.9      3.350      5.789
REMARK  Name = 
REMARK  1 active torsions:
REMARK  status: ('A' for Active; 'I' for Inactive)
REMARK    1  A    between atoms: C_1  and  N_2
REMARK                            x       y       z     vdW  Elec       q    Type
REMARK                         _______ _______ _______ _____ _____    ______ ____
ROOT
ATOM      1  C   UNL     1      -0.279  13.080  18.678  0.00  0.00    +0.000 C 
ATOM      2  N   UNL     1      -0.190  11.717  19.275  0.00  0.00    +0.000 N 
ATOM      3  C   UNL     1       0.659  10.852  18.669  0.00  0.00    +0.000 A 
ATOM      4  C   UNL     1       1.065   9.669  19.290  0.00  0.00    +0.000 A 
ATOM      5  C   UNL     1       1.876   8.704  18.674  0.00  0.00    +0.000 A 
ATOM      6  C   UNL     1       2.209   7.520  19.297  0.00  0.00    +0.000 A 
ATOM      7  C   UNL     1       1.823   7.244  20.578  0.00  0.00    +0.000 A 
ATOM      8  C   UNL     1       1.087   8.222  21.244  0.00  0.00    +0.000 A 
ATOM      9  C   UNL     1       0.668   9.439  20.619  0.00  0.00    +0.000 A 
ATOM     10  C   UNL     1      -0.178  10.393  21.252  0.00  0.00    +0.000 A 
ATOM     11  C   UNL     1      -0.485  10.310  22.621  0.00  0.00    +0.000 A 
ATOM     12  C   UNL     1      -1.421  11.140  23.218  0.00  0.00    +0.000 A 
ATOM     13  C   UNL     1      -2.174  12.010  22.447  0.00  0.00    +0.000 A 
ATOM     14  C   UNL     1      -3.234  12.675  23.081  0.00  0.00    +0.000 A 
ATOM     15  C   UNL     1      -4.088  13.424  22.315  0.00  0.00    +0.000 A 
ATOM     16  C   UNL     1      -3.916  13.528  20.965  0.00  0.00    +0.000 A 
ATOM     17  C   UNL     1      -2.849  12.929  20.316  0.00  0.00    +0.000 A 
ATOM     18  C   UNL     1      -1.896  12.161  21.049  0.00  0.00    +0.000 A 
ATOM     19  C   UNL     1      -0.759  11.451  20.496  0.00  0.00    +0.000 A 
ATOM     20  O   UNL     1      -4.920  14.228  20.372  0.00  0.00    +0.000 OA
ATOM     21  C   UNL     1      -5.698  14.621  21.522  0.00  0.00    +0.000 C 
ATOM     22  O   UNL     1      -5.198  14.067  22.759  0.00  0.00    +0.000 OA
ATOM     23  O   UNL     1       2.949   6.691  18.516  0.00  0.00    +0.000 OA
ATOM     24  C   UNL     1       3.276   7.587  17.442  0.00  0.00    +0.000 C 
ATOM     25  O   UNL     1       2.426   8.766  17.425  0.00  0.00    +0.000 OA
ENDROOT
TORSDOF 0
ENDMDL
MODEL 4
REMARK VINA RESULT:      -7.9      2.426      3.515
REMARK  Name = 
REMARK  1 active torsions:
REMARK  status: ('A' for Active; 'I' for Inactive)
REMARK    1  A    between atoms: C_1  and  N_2
REMARK                            x       y       z     vdW  Elec       q    Type
REMARK                         _______ _______ _______ _____ _____    ______ ____
ROOT
ATOM      1  C   UNL     1      -0.453   8.493  21.826  0.00  0.00    +0.000 C 
ATOM      2  N   UNL     1       0.741   8.077  21.035  0.00  0.00    +0.000 N 
ATOM      3  C   UNL     1       1.141   6.791  21.185  0.00  0.00    +0.000 A 
ATOM      4  C   UNL     1       2.034   6.195  20.292  0.00  0.00    +0.000 A 
ATOM      5  C   UNL     1       2.540   4.896  20.448  0.00  0.00    +0.000 A 
ATOM      6  C   UNL     1       3.466   4.361  19.579  0.00  0.00    +0.000 A 
ATOM      7  C   UNL     1       3.898   5.040  18.474  0.00  0.00    +0.000 A 
ATOM      8  C   UNL     1       3.347   6.300  18.249  0.00  0.00    +0.000 A 
ATOM      9  C   UNL     1       2.430   6.919  19.154  0.00  0.00    +0.000 A 
ATOM     10  C   UNL     1       1.949   8.249  18.993  0.00  0.00    +0.000 A 
ATOM     11  C   UNL     1       2.173   8.975  17.810  0.00  0.00    +0.000 A 
ATOM     12  C   UNL     1       1.842  10.315  17.693  0.00  0.00    +0.000 A 
ATOM     13  C   UNL     1       1.380  11.017  18.794  0.00  0.00    +0.000 A 
ATOM     14  C   UNL     1       1.252  12.408  18.659  0.00  0.00    +0.000 A 
ATOM     15  C   UNL     1       0.944  13.147  19.770  0.00  0.00    +0.000 A 
ATOM     16  C   UNL     1       0.760  12.551  20.984  0.00  0.00    +0.000 A 
ATOM     17  C   UNL     1       0.825  11.176  21.141  0.00  0.00    +0.000 A 
ATOM     18  C   UNL     1       1.107  10.335  20.024  0.00  0.00    +0.000 A 
ATOM     19  C   UNL     1       1.243   8.891  20.050  0.00  0.00    +0.000 A 
ATOM     20  O   UNL     1       0.563  13.459  21.977  0.00  0.00    +0.000 OA
ATOM     21  C   UNL     1       0.562  14.691  21.228  0.00  0.00    +0.000 C 
ATOM     22  O   UNL     1       0.855  14.501  19.826  0.00  0.00    +0.000 OA
ATOM     23  O   UNL     1       3.879   3.116  19.933  0.00  0.00    +0.000 OA
ATOM     24  C   UNL     1       2.919   2.817  20.957  0.00  0.00    +0.000 C 
ATOM     25  O   UNL     1       2.230   4.003  21.436  0.00  0.00    +0.000 OA
ENDROOT
TORSDOF 0
ENDMDL
MODEL 5
REMARK VINA RESULT:      -7.8      2.575      4.808
REMARK  Name = 
REMARK  1 active torsions:
REMARK  status: ('A' for Active; 'I' for Inactive)
REMARK    1  A    between atoms: C_1  and  N_2
REMARK                            x       y       z     vdW  Elec       q    Type
REMARK                         _______ _______ _______ _____ _____    ______ ____
ROOT
ATOM      1  C   UNL     1       1.014  12.259  18.946  0.00  0.00    +0.000 C 
ATOM      2  N   UNL     1       0.870  10.844  19.395  0.00  0.00    +0.000 N 
ATOM      3  C   UNL     1       1.622   9.928  18.737  0.00  0.00    +0.000 A 
ATOM      4  C   UNL     1       1.816   8.641  19.244  0.00  0.00    +0.000 A 
ATOM      5  C   UNL     1       2.516   7.633  18.564  0.00  0.00    +0.000 A 
ATOM      6  C   UNL     1       2.636   6.356  19.068  0.00  0.00    +0.000 A 
ATOM      7  C   UNL     1       2.137   6.012  20.293  0.00  0.00    +0.000 A 
ATOM      8  C   UNL     1       1.510   7.017  21.027  0.00  0.00    +0.000 A 
ATOM      9  C   UNL     1       1.309   8.339  20.520  0.00  0.00    +0.000 A 
ATOM     10  C   UNL     1       0.571   9.340  21.213  0.00  0.00    +0.000 A 
ATOM     11  C   UNL     1       0.172   9.166  22.550  0.00  0.00    +0.000 A 
ATOM     12  C   UNL     1      -0.670  10.062  23.190  0.00  0.00    +0.000 A 
ATOM     13  C   UNL     1      -1.241  11.107  22.485  0.00  0.00    +0.000 A 
ATOM     14  C   UNL     1      -2.232  11.856  23.139  0.00  0.00    +0.000 A 
ATOM     15  C   UNL     1      -2.921  12.797  22.420  0.00  0.00    +0.000 A 
ATOM     16  C   UNL     1      -2.654  13.010  21.099  0.00  0.00    +0.000 A 
ATOM     17  C   UNL     1      -1.646  12.327  20.438  0.00  0.00    +0.000 A 
ATOM     18  C   UNL     1      -0.860  11.356  21.126  0.00  0.00    +0.000 A 
ATOM     19  C   UNL     1       0.195  10.544  20.552  0.00  0.00    +0.000 A 
ATOM     20  O   UNL     1      -3.509  13.908  20.541  0.00  0.00    +0.000 OA
ATOM     21  C   UNL     1      -4.291  14.295  21.690  0.00  0.00    +0.000 C 
ATOM     22  O   UNL     1      -3.953  13.550  22.881  0.00  0.00    +0.000 OA
ATOM     23  O   UNL     1       3.297   5.509  18.236  0.00  0.00    +0.000 OA
ATOM     24  C   UNL     1       3.813   6.450  17.283  0.00  0.00    +0.000 C 
ATOM     25  O   UNL     1       3.144   7.738  17.355  0.00  0.00    +0.000 OA
ENDROOT
TORSDOF 0
ENDMDL
MODEL 6
REMARK VINA RESULT:      -7.8      2.565      8.335
REMARK  Name = 
REMARK  1 active torsions:
REMARK  status: ('A' for Active; 'I' for Inactive)
REMARK    1  A    between atoms: C_1  and  N_2
REMARK                            x       y       z     vdW  Elec       q    Type
REMARK                         _______ _______ _______ _____ _____    ______ ____
ROOT
ATOM      1  C   UNL     1       1.209   9.306  23.129  0.00  0.00    +0.000 C 
ATOM      2  N   UNL     1       0.185   9.891  22.217  0.00  0.00    +0.000 N 
ATOM      3  C   UNL     1      -0.790  10.627  22.804  0.00  0.00    +0.000 A 
ATOM      4  C   UNL     1      -1.618  11.470  22.060  0.00  0.00    +0.000 A 
ATOM      5  C   UNL     1      -2.691  12.190  22.606  0.00  0.00    +0.000 A 
ATOM      6  C   UNL     1      -3.524  12.966  21.831  0.00  0.00    +0.000 A 
ATOM      7  C   UNL     1      -3.316  13.134  20.490  0.00  0.00    +0.000 A 
ATOM      8  C   UNL     1      -2.206  12.498  19.937  0.00  0.00    +0.000 A 
ATOM      9  C   UNL     1      -1.350  11.635  20.689  0.00  0.00    +0.000 A 
ATOM     10  C   UNL     1      -0.283  10.892  20.110  0.00  0.00    +0.000 A 
ATOM     11  C   UNL     1       0.143  11.122  18.790  0.00  0.00    +0.000 A 
ATOM     12  C   UNL     1       1.076  10.311  18.165  0.00  0.00    +0.000 A 
ATOM     13  C   UNL     1       1.537   9.166  18.793  0.00  0.00    +0.000 A 
ATOM     14  C   UNL     1       2.325   8.290  18.030  0.00  0.00    +0.000 A 
ATOM     15  C   UNL     1       2.668   7.080  18.573  0.00  0.00    +0.000 A 
ATOM     16  C   UNL     1       2.261   6.729  19.827  0.00  0.00    +0.000 A 
ATOM     17  C   UNL     1       1.529   7.592  20.627  0.00  0.00    +0.000 A 
ATOM     18  C   UNL     1       1.161   8.883  20.147  0.00  0.00    +0.000 A 
ATOM     19  C   UNL     1       0.368   9.868  20.857  0.00  0.00    +0.000 A 
ATOM     20  O   UNL     1       2.616   5.455  20.145  0.00  0.00    +0.000 OA
ATOM     21  C   UNL     1       3.367   5.078  18.972  0.00  0.00    +0.000 C 
ATOM     22  O   UNL     1       3.360   6.094  17.945  0.00  0.00    +0.000 OA
ATOM     23  O   UNL     1      -4.539  13.533  22.533  0.00  0.00    +0.000 OA
ATOM     24  C   UNL     1      -4.101  13.255  23.872  0.00  0.00    +0.000 C 
ATOM     25  O   UNL     1      -3.075  12.227  23.918  0.00  0.00    +0.000 OA
ENDROOT
TORSDOF 0
ENDMDL
MODEL 7
REMARK VINA RESULT:      -7.7      2.306      7.651
REMARK  Name = 
REMARK  1 active torsions:
REMARK  status: ('A' for Active; 'I' for Inactive)
REMARK    1  A    between atoms: C_1  and  N_2
REMARK                            x       y       z     vdW  Elec       q    Type
REMARK                         _______ _______ _______ _____ _____    ______ ____
ROOT
ATOM      1  C   UNL     1       1.595   8.883  22.684  0.00  0.00    +0.000 C 
ATOM      2  N   UNL     1       0.773   9.371  21.539  0.00  0.00    +0.000 N 
ATOM      3  C   UNL     1      -0.131  10.340  21.821  0.00  0.00    +0.000 A 
ATOM      4  C   UNL     1      -0.737  11.092  20.812  0.00  0.00    +0.000 A 
ATOM      5  C   UNL     1      -1.736  12.048  21.046  0.00  0.00    +0.000 A 
ATOM      6  C   UNL     1      -2.355  12.729  20.019  0.00  0.00    +0.000 A 
ATOM      7  C   UNL     1      -1.985  12.560  18.714  0.00  0.00    +0.000 A 
ATOM      8  C   UNL     1      -0.936  11.678  18.461  0.00  0.00    +0.000 A 
ATOM      9  C   UNL     1      -0.306  10.906  19.487  0.00  0.00    +0.000 A 
ATOM     10  C   UNL     1       0.687   9.920  19.226  0.00  0.00    +0.000 A 
ATOM     11  C   UNL     1       1.278   9.788  17.957  0.00  0.00    +0.000 A 
ATOM     12  C   UNL     1       2.133   8.743  17.647  0.00  0.00    +0.000 A 
ATOM     13  C   UNL     1       2.343   7.721  18.558  0.00  0.00    +0.000 A 
ATOM     14  C   UNL     1       3.060   6.601  18.110  0.00  0.00    +0.000 A 
ATOM     15  C   UNL     1       3.154   5.512  18.935  0.00  0.00    +0.000 A 
ATOM     16  C   UNL     1       2.570   5.510  20.168  0.00  0.00    +0.000 A 
ATOM     17  C   UNL     1       1.902   6.618  20.663  0.00  0.00    +0.000 A 
ATOM     18  C   UNL     1       1.790   7.804  19.878  0.00  0.00    +0.000 A 
ATOM     19  C   UNL     1       1.090   9.018  20.251  0.00  0.00    +0.000 A 
ATOM     20  O   UNL     1       2.689   4.307  20.791  0.00  0.00    +0.000 OA
ATOM     21  C   UNL     1       3.490   3.580  19.836  0.00  0.00    +0.000 C 
ATOM     22  O   UNL     1       3.746   4.329  18.627  0.00  0.00    +0.000 OA
ATOM     23  O   UNL     1      -3.336  13.566  20.444  0.00  0.00    +0.000 OA
ATOM     24  C   UNL     1      -3.088  13.545  21.858  0.00  0.00    +0.000 C 
ATOM     25  O   UNL     1      -2.243  12.431  22.256  0.00  0.00    +0.000 OA
ENDROOT
TORSDOF 0
ENDMDL
MODEL 8
REMARK VINA RESULT:      -7.7      1.357      7.791
REMARK  Name = 
REMARK  1 active torsions:
REMARK  status: ('A' for Active; 'I' for Inactive)
REMARK    1  A    between atoms: C_1  and  N_2
REMARK                            x       y       z     vdW  Elec       q    Type
REMARK                         _______ _______ _______ _____ _____    ______ ____
ROOT
ATOM      1  C   UNL     1       1.752   9.354  17.207  0.00  0.00    +0.000 C 
ATOM      2  N   UNL     1       1.634   9.181  18.684  0.00  0.00    +0.000 N 
ATOM      3  C   UNL     1       0.954  10.147  19.347  0.00  0.00    +0.000 A 
ATOM      4  C   UNL     1       0.510   9.960  20.658  0.00  0.00    +0.000 A 
ATOM      5  C   UNL     1      -0.125  10.956  21.416  0.00  0.00    +0.000 A 
ATOM      6  C   UNL     1      -0.496  10.755  22.727  0.00  0.00    +0.000 A 
ATOM      7  C   UNL     1      -0.328   9.550  23.350  0.00  0.00    +0.000 A 
ATOM      8  C   UNL     1       0.224   8.517  22.593  0.00  0.00    +0.000 A 
ATOM      9  C   UNL     1       0.679   8.696  21.249  0.00  0.00    +0.000 A 
ATOM     10  C   UNL     1       1.346   7.681  20.507  0.00  0.00    +0.000 A 
ATOM     11  C   UNL     1       1.411   6.354  20.968  0.00  0.00    +0.000 A 
ATOM     12  C   UNL     1       2.180   5.391  20.335  0.00  0.00    +0.000 A 
ATOM     13  C   UNL     1       3.007   5.741  19.282  0.00  0.00    +0.000 A 
ATOM     14  C   UNL     1       3.901   4.764  18.816  0.00  0.00    +0.000 A 
ATOM     15  C   UNL     1       4.834   5.124  17.881  0.00  0.00    +0.000 A 
ATOM     16  C   UNL     1       4.897   6.401  17.404  0.00  0.00    +0.000 A 
ATOM     17  C   UNL     1       3.996   7.376  17.801  0.00  0.00    +0.000 A 
ATOM     18  C   UNL     1       2.973   7.070  18.747  0.00  0.00    +0.000 A 
ATOM     19  C   UNL     1       1.992   7.997  19.278  0.00  0.00    +0.000 A 
ATOM     20  O   UNL     1       5.950   6.583  16.562  0.00  0.00    +0.000 OA
ATOM     21  C   UNL     1       6.490   5.247  16.503  0.00  0.00    +0.000 C 
ATOM     22  O   UNL     1       5.811   4.323  17.383  0.00  0.00    +0.000 OA
ATOM     23  O   UNL     1      -1.040  11.856  23.307  0.00  0.00    +0.000 OA
ATOM     24  C   UNL     1      -1.221  12.684  22.148  0.00  0.00    +0.000 C 
ATOM     25  O   UNL     1      -0.448  12.220  21.009  0.00  0.00    +0.000 OA
ENDROOT
TORSDOF 0
ENDMDL
MODEL 9
REMARK VINA RESULT:      -7.6      2.469      4.079
REMARK  Name = 
REMARK  1 active torsions:
REMARK  status: ('A' for Active; 'I' for Inactive)
REMARK    1  A    between atoms: C_1  and  N_2
REMARK                            x       y       z     vdW  Elec       q    Type
REMARK                         _______ _______ _______ _____ _____    ______ ____
ROOT
ATOM      1  C   UNL     1       3.285   8.643  17.446  0.00  0.00    +0.000 C 
ATOM      2  N   UNL     1       2.542   7.632  18.254  0.00  0.00    +0.000 N 
ATOM      3  C   UNL     1       2.803   6.333  17.973  0.00  0.00    +0.000 A 
ATOM      4  C   UNL     1       2.421   5.307  18.840  0.00  0.00    +0.000 A 
ATOM      5  C   UNL     1       2.595   3.943  18.559  0.00  0.00    +0.000 A 
ATOM      6  C   UNL     1       2.152   2.956  19.412  0.00  0.00    +0.000 A 
ATOM      7  C   UNL     1       1.574   3.246  20.616  0.00  0.00    +0.000 A 
ATOM      8  C   UNL     1       1.465   4.593  20.959  0.00  0.00    +0.000 A 
ATOM      9  C   UNL     1       1.856   5.652  20.080  0.00  0.00    +0.000 A 
ATOM     10  C   UNL     1       1.646   7.029  20.373  0.00  0.00    +0.000 A 
ATOM     11  C   UNL     1       1.234   7.456  21.647  0.00  0.00    +0.000 A 
ATOM     12  C   UNL     1       0.883   8.772  21.906  0.00  0.00    +0.000 A 
ATOM     13  C   UNL     1       0.816   9.691  20.873  0.00  0.00    +0.000 A 
ATOM     14  C   UNL     1       0.267  10.948  21.168  0.00  0.00    +0.000 A 
ATOM     15  C   UNL     1       0.048  11.824  20.138  0.00  0.00    +0.000 A 
ATOM     16  C   UNL     1       0.358  11.491  18.852  0.00  0.00    +0.000 A 
ATOM     17  C   UNL     1       0.952  10.281  18.533  0.00  0.00    +0.000 A 
ATOM     18  C   UNL     1       1.244   9.329  19.554  0.00  0.00    +0.000 A 
ATOM     19  C   UNL     1       1.825   8.014  19.360  0.00  0.00    +0.000 A 
ATOM     20  O   UNL     1      -0.025  12.450  17.966  0.00  0.00    +0.000 OA
ATOM     21  C   UNL     1      -0.537  13.460  18.859  0.00  0.00    +0.000 C 
ATOM     22  O   UNL     1      -0.539  13.044  20.243  0.00  0.00    +0.000 OA
ATOM     23  O   UNL     1       2.358   1.701  18.936  0.00  0.00    +0.000 OA
ATOM     24  C   UNL     1       3.219   1.995  17.824  0.00  0.00    +0.000 C 
ATOM     25  O   UNL     1       3.185   3.399  17.452  0.00  0.00    +0.000 OA
ENDROOT
TORSDOF 0
ENDMDL
