MODEL 1
REMARK VINA RESULT:      -8.0      0.000      0.000
REMARK  Name = 
REMARK  6 active torsions:
REMARK  status: ('A' for Active; 'I' for Inactive)
REMARK    1  A    between atoms: C_1  and  N_2
REMARK    2  A    between atoms: N_2  and  C_3
REMARK    3  A    between atoms: C_3  and  C_4
REMARK    4  A    between atoms: N_13  and  C_14
REMARK    5  A    between atoms: C_15  and  C_17
REMARK    6  A    between atoms: C_20  and  C_21
REMARK                            x       y       z     vdW  Elec       q    Type
REMARK                         _______ _______ _______ _____ _____    ______ ____
ROOT
ATOM      1  C   UNL     1       3.715   2.037  19.160  0.00  0.00    +0.000 C 
ATOM      2  N   UNL     1       3.706   3.490  19.046  0.00  0.00    +0.000 N 
ATOM      3  C   UNL     1       2.439   4.075  19.257  0.00  0.00    +0.000 C 
ATOM      4  O   UNL     1       1.448   3.405  19.524  0.00  0.00    +0.000 OA
ENDROOT
BRANCH   3   5
ATOM      5  C   UNL     1       2.253   5.559  19.199  0.00  0.00    +0.000 A 
ATOM      6  C   UNL     1       2.013   6.337  20.332  0.00  0.00    +0.000 A 
ATOM      7  C   UNL     1       1.767   7.702  20.224  0.00  0.00    +0.000 A 
ATOM      8  C   UNL     1       1.887   8.353  18.995  0.00  0.00    +0.000 A 
ATOM      9  C   UNL     1       2.237   7.595  17.870  0.00  0.00    +0.000 A 
ATOM     10  C   UNL     1       2.400   6.205  17.966  0.00  0.00    +0.000 A 
BRANCH   8  11
ATOM     11  C   UNL     1       1.686   9.795  18.934  0.00  0.00    +0.000 A 
ATOM     12  C   UNL     1       0.928  10.643  19.723  0.00  0.00    +0.000 A 
ATOM     13  C   UNL     1       1.099  11.921  19.166  0.00  0.00    +0.000 A 
ATOM     14  N   UNL     1       1.896  11.903  18.098  0.00  0.00    +0.000 NA
ATOM     15  N   UNL     1       2.235  10.610  17.977  0.00  0.00    +0.000 N 
ATOM     16  H   UNL     1       2.831  10.341  17.203  0.00  0.00    +0.000 HD
ENDBRANCH   8  11
ENDBRANCH   3   5
BRANCH   2  17
ATOM     17  C   UNL     1       4.967   4.256  18.992  0.00  0.00    +0.000 C 
BRANCH  17  18
ATOM     18  C   UNL     1       5.809   4.387  17.699  0.00  0.00    +0.000 C 
ATOM     19  C   UNL     1       4.937   4.023  16.484  0.00  0.00    +0.000 C 
ATOM     20  C   UNL     1       5.686   4.159  15.190  0.00  0.00    +0.000 A 
ATOM     21  C   UNL     1       5.183   3.547  14.038  0.00  0.00    +0.000 A 
ATOM     22  C   UNL     1       5.849   3.688  12.823  0.00  0.00    +0.000 A 
ATOM     23  C   UNL     1       7.012   4.449  12.756  0.00  0.00    +0.000 A 
ATOM     24  C   UNL     1       7.513   5.073  13.900  0.00  0.00    +0.000 A 
ATOM     25  C   UNL     1       6.848   4.945  15.126  0.00  0.00    +0.000 A 
ATOM     26  C   UNL     1       7.443   5.580  16.360  0.00  0.00    +0.000 C 
ATOM     27  N   UNL     1       6.518   5.678  17.506  0.00  0.00    +0.000 NA
ATOM     28  C   UNL     1       7.263   6.132  18.684  0.00  0.00    +0.000 C 
ENDBRANCH  17  18
ENDBRANCH   2  17
TORSDOF 4
ENDMDL
MODEL 2
REMARK VINA RESULT:      -8.0      1.693      7.343
REMARK  Name = 
REMARK  6 active torsions:
REMARK  status: ('A' for Active; 'I' for Inactive)
REMARK    1  A    between atoms: C_1  and  N_2
REMARK    2  A    between atoms: N_2  and  C_3
REMARK    3  A    between atoms: C_3  and  C_4
REMARK    4  A    between atoms: N_13  and  C_14
REMARK    5  A    between atoms: C_15  and  C_17
REMARK    6  A    between atoms: C_20  and  C_21
REMARK                            x       y       z     vdW  Elec       q    Type
REMARK                         _______ _______ _______ _____ _____    ______ ____
ROOT
ATOM      1  C   UNL     1       1.989   4.076  21.191  0.00  0.00    +0.000 C 
ATOM      2  N   UNL     1       2.924   4.521  20.165  0.00  0.00    +0.000 N 
ATOM      3  C   UNL     1       3.184   3.556  19.167  0.00  0.00    +0.000 C 
ATOM      4  O   UNL     1       2.651   2.452  19.174  0.00  0.00    +0.000 OA
ENDROOT
BRANCH   3   5
ATOM      5  C   UNL     1       4.103   3.852  18.025  0.00  0.00    +0.000 A 
ATOM      6  C   UNL     1       5.457   4.140  18.195  0.00  0.00    +0.000 A 
ATOM      7  C   UNL     1       6.258   4.488  17.112  0.00  0.00    +0.000 A 
ATOM      8  C   UNL     1       5.761   4.426  15.809  0.00  0.00    +0.000 A 
ATOM      9  C   UNL     1       4.429   4.029  15.622  0.00  0.00    +0.000 A 
ATOM     10  C   UNL     1       3.600   3.763  16.721  0.00  0.00    +0.000 A 
BRANCH   8  11
ATOM     11  C   UNL     1       6.649   4.734  14.696  0.00  0.00    +0.000 A 
ATOM     12  C   UNL     1       6.664   4.276  13.390  0.00  0.00    +0.000 A 
ATOM     13  C   UNL     1       7.770   4.900  12.790  0.00  0.00    +0.000 A 
ATOM     14  N   UNL     1       8.425   5.691  13.639  0.00  0.00    +0.000 NA
ATOM     15  N   UNL     1       7.732   5.572  14.782  0.00  0.00    +0.000 N 
ATOM     16  H   UNL     1       8.061   6.075  15.597  0.00  0.00    +0.000 HD
ENDBRANCH   8  11
ENDBRANCH   3   5
BRANCH   2  17
ATOM     17  C   UNL     1       3.320   5.939  20.058  0.00  0.00    +0.000 C 
BRANCH  17  18
ATOM     18  C   UNL     1       2.367   7.034  19.520  0.00  0.00    +0.000 C 
ATOM     19  C   UNL     1       1.772   7.818  20.703  0.00  0.00    +0.000 C 
ATOM     20  C   UNL     1       0.858   8.919  20.248  0.00  0.00    +0.000 A 
ATOM     21  C   UNL     1      -0.029   9.497  21.161  0.00  0.00    +0.000 A 
ATOM     22  C   UNL     1      -0.863  10.539  20.764  0.00  0.00    +0.000 A 
ATOM     23  C   UNL     1      -0.802  11.014  19.457  0.00  0.00    +0.000 A 
ATOM     24  C   UNL     1       0.092  10.451  18.544  0.00  0.00    +0.000 A 
ATOM     25  C   UNL     1       0.939   9.407  18.933  0.00  0.00    +0.000 A 
ATOM     26  C   UNL     1       1.853   8.775  17.911  0.00  0.00    +0.000 C 
ATOM     27  N   UNL     1       2.925   7.936  18.481  0.00  0.00    +0.000 NA
ATOM     28  C   UNL     1       3.616   7.239  17.393  0.00  0.00    +0.000 C 
ENDBRANCH  17  18
ENDBRANCH   2  17
TORSDOF 4
ENDMDL
MODEL 3
REMARK VINA RESULT:      -8.0      1.910      7.892
REMARK  Name = 
REMARK  6 active torsions:
REMARK  status: ('A' for Active; 'I' for Inactive)
REMARK    1  A    between atoms: C_1  and  N_2
REMARK    2  A    between atoms: N_2  and  C_3
REMARK    3  A    between atoms: C_3  and  C_4
REMARK    4  A    between atoms: N_13  and  C_14
REMARK    5  A    between atoms: C_15  and  C_17
REMARK    6  A    between atoms: C_20  and  C_21
REMARK                            x       y       z     vdW  Elec       q    Type
REMARK                         _______ _______ _______ _____ _____    ______ ____
ROOT
ATOM      1  C   UNL     1       2.046   4.503  21.190  0.00  0.00    +0.000 C 
ATOM      2  N   UNL     1       2.929   4.900  20.101  0.00  0.00    +0.000 N 
ATOM      3  C   UNL     1       3.320   3.835  19.261  0.00  0.00    +0.000 C 
ATOM      4  O   UNL     1       2.929   2.687  19.440  0.00  0.00    +0.000 OA
ENDROOT
BRANCH   3   5
ATOM      5  C   UNL     1       4.208   4.066  18.079  0.00  0.00    +0.000 A 
ATOM      6  C   UNL     1       5.582   4.278  18.194  0.00  0.00    +0.000 A 
ATOM      7  C   UNL     1       6.358   4.569  17.076  0.00  0.00    +0.000 A 
ATOM      8  C   UNL     1       5.807   4.521  15.794  0.00  0.00    +0.000 A 
ATOM      9  C   UNL     1       4.449   4.198  15.663  0.00  0.00    +0.000 A 
ATOM     10  C   UNL     1       3.650   3.992  16.798  0.00  0.00    +0.000 A 
BRANCH   8  11
ATOM     11  C   UNL     1       6.666   4.766  14.643  0.00  0.00    +0.000 A 
ATOM     12  C   UNL     1       6.622   4.271  13.352  0.00  0.00    +0.000 A 
ATOM     13  C   UNL     1       7.727   4.839  12.697  0.00  0.00    +0.000 A 
ATOM     14  N   UNL     1       8.436   5.632  13.500  0.00  0.00    +0.000 NA
ATOM     15  N   UNL     1       7.778   5.570  14.668  0.00  0.00    +0.000 N 
ATOM     16  H   UNL     1       8.151   6.085  15.456  0.00  0.00    +0.000 HD
ENDBRANCH   8  11
ENDBRANCH   3   5
BRANCH   2  17
ATOM     17  C   UNL     1       3.147   6.324  19.777  0.00  0.00    +0.000 C 
BRANCH  17  18
ATOM     18  C   UNL     1       2.024   7.385  19.884  0.00  0.00    +0.000 C 
ATOM     19  C   UNL     1       1.921   7.872  21.340  0.00  0.00    +0.000 C 
ATOM     20  C   UNL     1       0.868   8.929  21.509  0.00  0.00    +0.000 A 
ATOM     21  C   UNL     1       0.396   9.229  22.790  0.00  0.00    +0.000 A 
ATOM     22  C   UNL     1      -0.559  10.228  22.969  0.00  0.00    +0.000 A 
ATOM     23  C   UNL     1      -1.034  10.934  21.867  0.00  0.00    +0.000 A 
ATOM     24  C   UNL     1      -0.558  10.647  20.587  0.00  0.00    +0.000 A 
ATOM     25  C   UNL     1       0.407   9.651  20.396  0.00  0.00    +0.000 A 
ATOM     26  C   UNL     1       0.862   9.319  18.995  0.00  0.00    +0.000 C 
ATOM     27  N   UNL     1       2.098   8.516  18.924  0.00  0.00    +0.000 NA
ATOM     28  C   UNL     1       2.323   8.108  17.535  0.00  0.00    +0.000 C 
ENDBRANCH  17  18
ENDBRANCH   2  17
TORSDOF 4
ENDMDL
MODEL 4
REMARK VINA RESULT:      -8.0      0.831      1.247
REMARK  Name = 
REMARK  6 active torsions:
REMARK  status: ('A' for Active; 'I' for Inactive)
REMARK    1  A    between atoms: C_1  and  N_2
REMARK    2  A    between atoms: N_2  and  C_3
REMARK    3  A    between atoms: C_3  and  C_4
REMARK    4  A    between atoms: N_13  and  C_14
REMARK    5  A    between atoms: C_15  and  C_17
REMARK    6  A    between atoms: C_20  and  C_21
REMARK                            x       y       z     vdW  Elec       q    Type
REMARK                         _______ _______ _______ _____ _____    ______ ____
ROOT
ATOM      1  C   UNL     1       4.076   1.890  18.998  0.00  0.00    +0.000 C 
ATOM      2  N   UNL     1       3.939   3.340  18.942  0.00  0.00    +0.000 N 
ATOM      3  C   UNL     1       2.645   3.807  19.257  0.00  0.00    +0.000 C 
ATOM      4  O   UNL     1       1.734   3.046  19.561  0.00  0.00    +0.000 OA
ENDROOT
BRANCH   3   5
ATOM      5  C   UNL     1       2.332   5.270  19.271  0.00  0.00    +0.000 A 
ATOM      6  C   UNL     1       2.438   6.079  18.139  0.00  0.00    +0.000 A 
ATOM      7  C   UNL     1       2.214   7.450  18.215  0.00  0.00    +0.000 A 
ATOM      8  C   UNL     1       1.745   8.032  19.395  0.00  0.00    +0.000 A 
ATOM      9  C   UNL     1       1.530   7.205  20.506  0.00  0.00    +0.000 A 
ATOM     10  C   UNL     1       1.839   5.838  20.452  0.00  0.00    +0.000 A 
BRANCH   8  11
ATOM     11  C   UNL     1       1.459   9.460  19.416  0.00  0.00    +0.000 A 
ATOM     12  C   UNL     1       1.532  10.418  18.420  0.00  0.00    +0.000 A 
ATOM     13  C   UNL     1       1.167  11.626  19.037  0.00  0.00    +0.000 A 
ATOM     14  N   UNL     1       0.888  11.467  20.331  0.00  0.00    +0.000 NA
ATOM     15  N   UNL     1       1.075  10.153  20.536  0.00  0.00    +0.000 N 
ATOM     16  H   UNL     1       0.942   9.791  21.473  0.00  0.00    +0.000 HD
ENDBRANCH   8  11
ENDBRANCH   3   5
BRANCH   2  17
ATOM     17  C   UNL     1       5.125   4.214  18.837  0.00  0.00    +0.000 C 
BRANCH  17  18
ATOM     18  C   UNL     1       5.934   4.367  17.526  0.00  0.00    +0.000 C 
ATOM     19  C   UNL     1       5.052   3.962  16.332  0.00  0.00    +0.000 C 
ATOM     20  C   UNL     1       5.768   4.117  15.022  0.00  0.00    +0.000 A 
ATOM     21  C   UNL     1       5.265   3.479  13.884  0.00  0.00    +0.000 A 
ATOM     22  C   UNL     1       5.899   3.637  12.654  0.00  0.00    +0.000 A 
ATOM     23  C   UNL     1       7.031   4.441  12.559  0.00  0.00    +0.000 A 
ATOM     24  C   UNL     1       7.531   5.092  13.688  0.00  0.00    +0.000 A 
ATOM     25  C   UNL     1       6.898   4.947  14.928  0.00  0.00    +0.000 A 
ATOM     26  C   UNL     1       7.493   5.612  16.146  0.00  0.00    +0.000 C 
ATOM     27  N   UNL     1       6.590   5.683  17.311  0.00  0.00    +0.000 NA
ATOM     28  C   UNL     1       7.341   6.173  18.469  0.00  0.00    +0.000 C 
ENDBRANCH  17  18
ENDBRANCH   2  17
TORSDOF 4
ENDMDL
MODEL 5
REMARK VINA RESULT:      -7.8      1.157      1.216
REMARK  Name = 
REMARK  6 active torsions:
REMARK  status: ('A' for Active; 'I' for Inactive)
REMARK    1  A    between atoms: C_1  and  N_2
REMARK    2  A    between atoms: N_2  and  C_3
REMARK    3  A    between atoms: C_3  and  C_4
REMARK    4  A    between atoms: N_13  and  C_14
REMARK    5  A    between atoms: C_15  and  C_17
REMARK    6  A    between atoms: C_20  and  C_21
REMARK                            x       y       z     vdW  Elec       q    Type
REMARK                         _______ _______ _______ _____ _____    ______ ____
ROOT
ATOM      1  C   UNL     1       3.678   1.447  18.374  0.00  0.00    +0.000 C 
ATOM      2  N   UNL     1       3.616   2.883  18.612  0.00  0.00    +0.000 N 
ATOM      3  C   UNL     1       2.331   3.352  18.964  0.00  0.00    +0.000 C 
ATOM      4  O   UNL     1       1.369   2.600  19.067  0.00  0.00    +0.000 OA
ENDROOT
BRANCH   3   5
ATOM      5  C   UNL     1       2.090   4.797  19.265  0.00  0.00    +0.000 A 
ATOM      6  C   UNL     1       1.775   5.263  20.542  0.00  0.00    +0.000 A 
ATOM      7  C   UNL     1       1.481   6.605  20.762  0.00  0.00    +0.000 A 
ATOM      8  C   UNL     1       1.626   7.544  19.740  0.00  0.00    +0.000 A 
ATOM      9  C   UNL     1       2.050   7.098  18.480  0.00  0.00    +0.000 A 
ATOM     10  C   UNL     1       2.262   5.733  18.238  0.00  0.00    +0.000 A 
BRANCH   8  11
ATOM     11  C   UNL     1       1.372   8.950  20.027  0.00  0.00    +0.000 A 
ATOM     12  C   UNL     1       1.213  10.037  19.185  0.00  0.00    +0.000 A 
ATOM     13  C   UNL     1       1.025  11.140  20.033  0.00  0.00    +0.000 A 
ATOM     14  N   UNL     1       1.068  10.799  21.321  0.00  0.00    +0.000 NA
ATOM     15  N   UNL     1       1.281   9.474  21.291  0.00  0.00    +0.000 N 
ATOM     16  H   UNL     1       1.375   8.984  22.173  0.00  0.00    +0.000 HD
ENDBRANCH   8  11
ENDBRANCH   3   5
BRANCH   2  17
ATOM     17  C   UNL     1       4.847   3.688  18.738  0.00  0.00    +0.000 C 
BRANCH  17  18
ATOM     18  C   UNL     1       5.746   4.031  17.525  0.00  0.00    +0.000 C 
ATOM     19  C   UNL     1       4.988   3.716  16.223  0.00  0.00    +0.000 C 
ATOM     20  C   UNL     1       5.796   4.055  15.004  0.00  0.00    +0.000 A 
ATOM     21  C   UNL     1       5.425   3.523  13.765  0.00  0.00    +0.000 A 
ATOM     22  C   UNL     1       6.144   3.851  12.618  0.00  0.00    +0.000 A 
ATOM     23  C   UNL     1       7.227   4.721  12.707  0.00  0.00    +0.000 A 
ATOM     24  C   UNL     1       7.594   5.266  13.939  0.00  0.00    +0.000 A 
ATOM     25  C   UNL     1       6.875   4.949  15.097  0.00  0.00    +0.000 A 
ATOM     26  C   UNL     1       7.329   5.505  16.426  0.00  0.00    +0.000 C 
ATOM     27  N   UNL     1       6.333   5.396  17.509  0.00  0.00    +0.000 NA
ATOM     28  C   UNL     1       6.957   5.792  18.774  0.00  0.00    +0.000 C 
ENDBRANCH  17  18
ENDBRANCH   2  17
TORSDOF 4
ENDMDL
MODEL 6
REMARK VINA RESULT:      -7.4      1.918      7.548
REMARK  Name = 
REMARK  6 active torsions:
REMARK  status: ('A' for Active; 'I' for Inactive)
REMARK    1  A    between atoms: C_1  and  N_2
REMARK    2  A    between atoms: N_2  and  C_3
REMARK    3  A    between atoms: C_3  and  C_4
REMARK    4  A    between atoms: N_13  and  C_14
REMARK    5  A    between atoms: C_15  and  C_17
REMARK    6  A    between atoms: C_20  and  C_21
REMARK                            x       y       z     vdW  Elec       q    Type
REMARK                         _______ _______ _______ _____ _____    ______ ____
ROOT
ATOM      1  C   UNL     1       2.531   3.800  21.362  0.00  0.00    +0.000 C 
ATOM      2  N   UNL     1       3.012   4.191  20.043  0.00  0.00    +0.000 N 
ATOM      3  C   UNL     1       4.256   3.621  19.693  0.00  0.00    +0.000 C 
ATOM      4  O   UNL     1       4.855   2.857  20.441  0.00  0.00    +0.000 OA
ENDROOT
BRANCH   3   5
ATOM      5  C   UNL     1       4.888   3.896  18.366  0.00  0.00    +0.000 A 
ATOM      6  C   UNL     1       4.290   3.549  17.155  0.00  0.00    +0.000 A 
ATOM      7  C   UNL     1       4.948   3.751  15.946  0.00  0.00    +0.000 A 
ATOM      8  C   UNL     1       6.167   4.431  15.903  0.00  0.00    +0.000 A 
ATOM      9  C   UNL     1       6.721   4.883  17.109  0.00  0.00    +0.000 A 
ATOM     10  C   UNL     1       6.097   4.600  18.334  0.00  0.00    +0.000 A 
BRANCH   8  11
ATOM     11  C   UNL     1       6.794   4.683  14.612  0.00  0.00    +0.000 A 
ATOM     12  C   UNL     1       6.540   4.156  13.358  0.00  0.00    +0.000 A 
ATOM     13  C   UNL     1       7.483   4.752  12.506  0.00  0.00    +0.000 A 
ATOM     14  N   UNL     1       8.291   5.590  13.155  0.00  0.00    +0.000 NA
ATOM     15  N   UNL     1       7.858   5.529  14.424  0.00  0.00    +0.000 N 
ATOM     16  H   UNL     1       8.344   6.077  15.123  0.00  0.00    +0.000 HD
ENDBRANCH   8  11
ENDBRANCH   3   5
BRANCH   2  17
ATOM     17  C   UNL     1       2.131   4.889  19.086  0.00  0.00    +0.000 C 
BRANCH  17  18
ATOM     18  C   UNL     1       1.715   6.369  19.263  0.00  0.00    +0.000 C 
ATOM     19  C   UNL     1       1.224   6.592  20.705  0.00  0.00    +0.000 C 
ATOM     20  C   UNL     1       0.832   8.019  20.954  0.00  0.00    +0.000 A 
ATOM     21  C   UNL     1       0.047   8.332  22.068  0.00  0.00    +0.000 A 
ATOM     22  C   UNL     1      -0.301   9.655  22.331  0.00  0.00    +0.000 A 
ATOM     23  C   UNL     1       0.145  10.667  21.487  0.00  0.00    +0.000 A 
ATOM     24  C   UNL     1       0.940  10.364  20.380  0.00  0.00    +0.000 A 
ATOM     25  C   UNL     1       1.302   9.039  20.109  0.00  0.00    +0.000 A 
ATOM     26  C   UNL     1       2.112   8.731  18.873  0.00  0.00    +0.000 C 
ATOM     27  N   UNL     1       2.719   7.386  18.856  0.00  0.00    +0.000 NA
ATOM     28  C   UNL     1       3.312   7.145  17.538  0.00  0.00    +0.000 C 
ENDBRANCH  17  18
ENDBRANCH   2  17
TORSDOF 4
ENDMDL
MODEL 7
REMARK VINA RESULT:      -7.4      4.632     10.414
REMARK  Name = 
REMARK  6 active torsions:
REMARK  status: ('A' for Active; 'I' for Inactive)
REMARK    1  A    between atoms: C_1  and  N_2
REMARK    2  A    between atoms: N_2  and  C_3
REMARK    3  A    between atoms: C_3  and  C_4
REMARK    4  A    between atoms: N_13  and  C_14
REMARK    5  A    between atoms: C_15  and  C_17
REMARK    6  A    between atoms: C_20  and  C_21
REMARK                            x       y       z     vdW  Elec       q    Type
REMARK                         _______ _______ _______ _____ _____    ______ ____
ROOT
ATOM      1  C   UNL     1      -0.723  12.889  18.232  0.00  0.00    +0.000 C 
ATOM      2  N   UNL     1      -0.401  11.470  18.315  0.00  0.00    +0.000 N 
ATOM      3  C   UNL     1       0.831  11.197  18.949  0.00  0.00    +0.000 C 
ATOM      4  O   UNL     1       1.544  12.087  19.396  0.00  0.00    +0.000 OA
ENDROOT
BRANCH   3   5
ATOM      5  C   UNL     1       1.308   9.792  19.140  0.00  0.00    +0.000 A 
ATOM      6  C   UNL     1       1.987   9.081  18.150  0.00  0.00    +0.000 A 
ATOM      7  C   UNL     1       2.342   7.750  18.340  0.00  0.00    +0.000 A 
ATOM      8  C   UNL     1       2.152   7.131  19.578  0.00  0.00    +0.000 A 
ATOM      9  C   UNL     1       1.572   7.876  20.613  0.00  0.00    +0.000 A 
ATOM     10  C   UNL     1       1.135   9.190  20.392  0.00  0.00    +0.000 A 
BRANCH   8  11
ATOM     11  C   UNL     1       2.598   5.756  19.759  0.00  0.00    +0.000 A 
ATOM     12  C   UNL     1       2.009   4.685  20.407  0.00  0.00    +0.000 A 
ATOM     13  C   UNL     1       2.919   3.624  20.279  0.00  0.00    +0.000 A 
ATOM     14  N   UNL     1       4.016   3.979  19.609  0.00  0.00    +0.000 NA
ATOM     15  N   UNL     1       3.800   5.269  19.309  0.00  0.00    +0.000 N 
ATOM     16  H   UNL     1       4.524   5.773  18.810  0.00  0.00    +0.000 HD
ENDBRANCH   8  11
ENDBRANCH   3   5
BRANCH   2  17
ATOM     17  C   UNL     1      -1.412  10.440  18.006  0.00  0.00    +0.000 C 
BRANCH  17  18
ATOM     18  C   UNL     1      -2.918  10.766  17.864  0.00  0.00    +0.000 C 
ATOM     19  C   UNL     1      -3.363  11.643  19.048  0.00  0.00    +0.000 C 
ATOM     20  C   UNL     1      -4.813  12.023  18.956  0.00  0.00    +0.000 A 
ATOM     21  C   UNL     1      -5.470  12.507  20.092  0.00  0.00    +0.000 A 
ATOM     22  C   UNL     1      -6.806  12.892  20.017  0.00  0.00    +0.000 A 
ATOM     23  C   UNL     1      -7.484  12.805  18.805  0.00  0.00    +0.000 A 
ATOM     24  C   UNL     1      -6.831  12.335  17.664  0.00  0.00    +0.000 A 
ATOM     25  C   UNL     1      -5.486  11.951  17.725  0.00  0.00    +0.000 A 
ATOM     26  C   UNL     1      -4.819  11.390  16.491  0.00  0.00    +0.000 C 
ATOM     27  N   UNL     1      -3.346  11.335  16.560  0.00  0.00    +0.000 NA
ATOM     28  C   UNL     1      -2.840  10.606  15.395  0.00  0.00    +0.000 C 
ENDBRANCH  17  18
ENDBRANCH   2  17
TORSDOF 4
ENDMDL
MODEL 8
REMARK VINA RESULT:      -7.4      2.073      8.174
REMARK  Name = 
REMARK  6 active torsions:
REMARK  status: ('A' for Active; 'I' for Inactive)
REMARK    1  A    between atoms: C_1  and  N_2
REMARK    2  A    between atoms: N_2  and  C_3
REMARK    3  A    between atoms: C_3  and  C_4
REMARK    4  A    between atoms: N_13  and  C_14
REMARK    5  A    between atoms: C_15  and  C_17
REMARK    6  A    between atoms: C_20  and  C_21
REMARK                            x       y       z     vdW  Elec       q    Type
REMARK                         _______ _______ _______ _____ _____    ______ ____
ROOT
ATOM      1  C   UNL     1       1.948   5.415  21.108  0.00  0.00    +0.000 C 
ATOM      2  N   UNL     1       2.714   5.674  19.895  0.00  0.00    +0.000 N 
ATOM      3  C   UNL     1       3.406   4.546  19.401  0.00  0.00    +0.000 C 
ATOM      4  O   UNL     1       3.343   3.452  19.949  0.00  0.00    +0.000 OA
ENDROOT
BRANCH   3   5
ATOM      5  C   UNL     1       4.225   4.627  18.151  0.00  0.00    +0.000 A 
ATOM      6  C   UNL     1       3.908   3.922  16.990  0.00  0.00    +0.000 A 
ATOM      7  C   UNL     1       4.741   3.964  15.877  0.00  0.00    +0.000 A 
ATOM      8  C   UNL     1       5.844   4.820  15.843  0.00  0.00    +0.000 A 
ATOM      9  C   UNL     1       6.104   5.616  16.967  0.00  0.00    +0.000 A 
ATOM     10  C   UNL     1       5.313   5.507  18.120  0.00  0.00    +0.000 A 
BRANCH   8  11
ATOM     11  C   UNL     1       6.655   4.885  14.634  0.00  0.00    +0.000 A 
ATOM     12  C   UNL     1       6.495   4.285  13.398  0.00  0.00    +0.000 A 
ATOM     13  C   UNL     1       7.606   4.692  12.641  0.00  0.00    +0.000 A 
ATOM     14  N   UNL     1       8.425   5.485  13.332  0.00  0.00    +0.000 NA
ATOM     15  N   UNL     1       7.831   5.584  14.532  0.00  0.00    +0.000 N 
ATOM     16  H   UNL     1       8.291   6.130  15.250  0.00  0.00    +0.000 HD
ENDBRANCH   8  11
ENDBRANCH   3   5
BRANCH   2  17
ATOM     17  C   UNL     1       2.537   6.927  19.136  0.00  0.00    +0.000 C 
BRANCH  17  18
ATOM     18  C   UNL     1       1.526   8.021  19.556  0.00  0.00    +0.000 C 
ATOM     19  C   UNL     1       1.488   8.118  21.091  0.00  0.00    +0.000 C 
ATOM     20  C   UNL     1       0.546   9.186  21.567  0.00  0.00    +0.000 A 
ATOM     21  C   UNL     1       0.121   9.183  22.899  0.00  0.00    +0.000 A 
ATOM     22  C   UNL     1      -0.729  10.183  23.365  0.00  0.00    +0.000 A 
ATOM     23  C   UNL     1      -1.146  11.193  22.503  0.00  0.00    +0.000 A 
ATOM     24  C   UNL     1      -0.715  11.209  21.175  0.00  0.00    +0.000 A 
ATOM     25  C   UNL     1       0.145  10.213  20.697  0.00  0.00    +0.000 A 
ATOM     26  C   UNL     1       0.548  10.219  19.242  0.00  0.00    +0.000 C 
ATOM     27  N   UNL     1       1.698   9.353  18.920  0.00  0.00    +0.000 NA
ATOM     28  C   UNL     1       1.867   9.303  17.465  0.00  0.00    +0.000 C 
ENDBRANCH  17  18
ENDBRANCH   2  17
TORSDOF 4
ENDMDL
MODEL 9
REMARK VINA RESULT:      -7.2      2.869      6.198
REMARK  Name = 
REMARK  6 active torsions:
REMARK  status: ('A' for Active; 'I' for Inactive)
REMARK    1  A    between atoms: C_1  and  N_2
REMARK    2  A    between atoms: N_2  and  C_3
REMARK    3  A    between atoms: C_3  and  C_4
REMARK    4  A    between atoms: N_13  and  C_14
REMARK    5  A    between atoms: C_15  and  C_17
REMARK    6  A    between atoms: C_20  and  C_21
REMARK                            x       y       z     vdW  Elec       q    Type
REMARK                         _______ _______ _______ _____ _____    ______ ____
ROOT
ATOM      1  C   UNL     1       3.784   2.369  17.567  0.00  0.00    +0.000 C 
ATOM      2  N   UNL     1       4.550   3.508  18.057  0.00  0.00    +0.000 N 
ATOM      3  C   UNL     1       5.256   4.202  17.050  0.00  0.00    +0.000 C 
ATOM      4  O   UNL     1       5.205   3.868  15.871  0.00  0.00    +0.000 OA
ENDROOT
BRANCH   3   5
ATOM      5  C   UNL     1       6.077   5.410  17.372  0.00  0.00    +0.000 A 
ATOM      6  C   UNL     1       7.138   5.386  18.277  0.00  0.00    +0.000 A 
ATOM      7  C   UNL     1       7.824   6.551  18.607  0.00  0.00    +0.000 A 
ATOM      8  C   UNL     1       7.558   7.749  17.941  0.00  0.00    +0.000 A 
ATOM      9  C   UNL     1       6.567   7.754  16.950  0.00  0.00    +0.000 A 
ATOM     10  C   UNL     1       5.818   6.599  16.680  0.00  0.00    +0.000 A 
BRANCH   8  11
ATOM     11  C   UNL     1       8.343   8.932  18.268  0.00  0.00    +0.000 A 
ATOM     12  C   UNL     1       8.571  10.098  17.559  0.00  0.00    +0.000 A 
ATOM     13  C   UNL     1       9.431  10.861  18.364  0.00  0.00    +0.000 A 
ATOM     14  N   UNL     1       9.744  10.238  19.501  0.00  0.00    +0.000 NA
ATOM     15  N   UNL     1       9.078   9.076  19.418  0.00  0.00    +0.000 N 
ATOM     16  H   UNL     1       9.182   8.409  20.174  0.00  0.00    +0.000 HD
ENDBRANCH   8  11
ENDBRANCH   3   5
BRANCH   2  17
ATOM     17  C   UNL     1       4.360   4.020  19.428  0.00  0.00    +0.000 C 
BRANCH  17  18
ATOM     18  C   UNL     1       3.552   5.304  19.734  0.00  0.00    +0.000 C 
ATOM     19  C   UNL     1       3.367   6.112  18.437  0.00  0.00    +0.000 C 
ATOM     20  C   UNL     1       2.562   7.359  18.658  0.00  0.00    +0.000 A 
ATOM     21  C   UNL     1       2.590   8.374  17.696  0.00  0.00    +0.000 A 
ATOM     22  C   UNL     1       1.826   9.526  17.870  0.00  0.00    +0.000 A 
ATOM     23  C   UNL     1       1.024   9.658  19.000  0.00  0.00    +0.000 A 
ATOM     24  C   UNL     1       0.981   8.643  19.957  0.00  0.00    +0.000 A 
ATOM     25  C   UNL     1       1.739   7.478  19.790  0.00  0.00    +0.000 A 
ATOM     26  C   UNL     1       1.721   6.422  20.869  0.00  0.00    +0.000 C 
ATOM     27  N   UNL     1       2.268   5.114  20.457  0.00  0.00    +0.000 NA
ATOM     28  C   UNL     1       2.366   4.246  21.632  0.00  0.00    +0.000 C 
ENDBRANCH  17  18
ENDBRANCH   2  17
TORSDOF 4
ENDMDL
