MODEL 1
REMARK VINA RESULT:      -9.1      0.000      0.000
REMARK  Name = 
REMARK  6 active torsions:
REMARK  status: ('A' for Active; 'I' for Inactive)
REMARK    1  A    between atoms: C_1  and  O_2
REMARK    2  A    between atoms: O_2  and  C_3
REMARK    3  A    between atoms: C_6  and  C_7
REMARK    4  A    between atoms: N_19  and  C_20
REMARK    5  A    between atoms: C_20  and  C_21
REMARK    6  A    between atoms: C_21  and  C_23
REMARK                            x       y       z     vdW  Elec       q    Type
REMARK                         _______ _______ _______ _____ _____    ______ ____
ROOT
ATOM      1  C   UNL     1      -0.509  11.942  19.491  0.00  0.00    +0.000 A 
ATOM      2  C   UNL     1      -0.140  13.291  19.280  0.00  0.00    +0.000 A 
ATOM      3  N   UNL     1      -0.741  14.288  18.543  0.00  0.00    +0.000 N 
ATOM      4  C   UNL     1      -0.130  15.490  18.718  0.00  0.00    +0.000 A 
ATOM      5  C   UNL     1      -0.561  16.769  18.340  0.00  0.00    +0.000 A 
ATOM      6  C   UNL     1       0.384  17.789  18.371  0.00  0.00    +0.000 A 
ATOM      7  C   UNL     1       1.695  17.519  18.759  0.00  0.00    +0.000 A 
ATOM      8  C   UNL     1       2.065  16.252  19.252  0.00  0.00    +0.000 A 
ATOM      9  C   UNL     1       1.109  15.214  19.279  0.00  0.00    +0.000 A 
ATOM     10  C   UNL     1       1.015  13.870  19.804  0.00  0.00    +0.000 A 
ATOM     11  C   UNL     1       1.798  13.065  20.642  0.00  0.00    +0.000 A 
ATOM     12  C   UNL     1       1.329  11.790  20.977  0.00  0.00    +0.000 A 
ATOM     13  N   UNL     1       0.186  11.260  20.440  0.00  0.00    +0.000 N 
ATOM     14  H   UNL     1      -1.565  14.195  17.969  0.00  0.00    +0.000 HD
ENDROOT
BRANCH   1  18
ATOM     15  C   UNL     1      -3.335  10.463  16.592  0.00  0.00    +0.000 A 
ATOM     16  C   UNL     1      -2.062   9.915  16.661  0.00  0.00    +0.000 A 
ATOM     17  C   UNL     1      -1.146  10.368  17.619  0.00  0.00    +0.000 A 
ATOM     18  C   UNL     1      -1.509  11.283  18.619  0.00  0.00    +0.000 A 
ATOM     19  C   UNL     1      -2.841  11.739  18.581  0.00  0.00    +0.000 A 
ATOM     20  C   UNL     1      -3.715  11.401  17.540  0.00  0.00    +0.000 A 
BRANCH  15  22
ATOM     21  C   UNL     1      -3.489  10.110  14.261  0.00  0.00    +0.000 C 
ATOM     22  O   UNL     1      -4.097  10.036  15.545  0.00  0.00    +0.000 OA
ENDBRANCH  15  22
ENDBRANCH   1  18
BRANCH  13  23
ATOM     23  C   UNL     1      -0.262   9.908  20.981  0.00  0.00    +0.000 C 
BRANCH  23  24
ATOM     24  C   UNL     1       0.929   9.012  21.235  0.00  0.00    +0.000 C 
ATOM     25  O   UNL     1       1.424   8.976  22.368  0.00  0.00    +0.000 OA
BRANCH  24  26
ATOM     26  C   UNL     1       1.532   8.135  20.169  0.00  0.00    +0.000 A 
ATOM     27  C   UNL     1       1.752   8.758  18.932  0.00  0.00    +0.000 A 
ATOM     28  C   UNL     1       2.536   8.154  17.953  0.00  0.00    +0.000 A 
ATOM     29  C   UNL     1       3.119   6.913  18.183  0.00  0.00    +0.000 A 
ATOM     30  C   UNL     1       4.053   6.395  17.269  0.00  0.00    +0.000 A 
ATOM     31  C   UNL     1       4.663   5.166  17.495  0.00  0.00    +0.000 A 
ATOM     32  C   UNL     1       4.289   4.411  18.599  0.00  0.00    +0.000 A 
ATOM     33  C   UNL     1       3.351   4.913  19.516  0.00  0.00    +0.000 A 
ATOM     34  C   UNL     1       2.793   6.198  19.362  0.00  0.00    +0.000 A 
ATOM     35  C   UNL     1       1.976   6.818  20.353  0.00  0.00    +0.000 A 
ENDBRANCH  24  26
ENDBRANCH  23  24
ENDBRANCH  13  23
TORSDOF 5
ENDMDL
MODEL 2
REMARK VINA RESULT:      -9.0      3.496      6.291
REMARK  Name = 
REMARK  6 active torsions:
REMARK  status: ('A' for Active; 'I' for Inactive)
REMARK    1  A    between atoms: C_1  and  O_2
REMARK    2  A    between atoms: O_2  and  C_3
REMARK    3  A    between atoms: C_6  and  C_7
REMARK    4  A    between atoms: N_19  and  C_20
REMARK    5  A    between atoms: C_20  and  C_21
REMARK    6  A    between atoms: C_21  and  C_23
REMARK                            x       y       z     vdW  Elec       q    Type
REMARK                         _______ _______ _______ _____ _____    ______ ____
ROOT
ATOM      1  C   UNL     1      -0.783  12.500  19.754  0.00  0.00    +0.000 A 
ATOM      2  C   UNL     1      -0.238  13.723  19.298  0.00  0.00    +0.000 A 
ATOM      3  N   UNL     1      -0.832  14.808  18.693  0.00  0.00    +0.000 N 
ATOM      4  C   UNL     1       0.034  15.845  18.539  0.00  0.00    +0.000 A 
ATOM      5  C   UNL     1      -0.227  17.177  18.188  0.00  0.00    +0.000 A 
ATOM      6  C   UNL     1       0.861  17.955  17.812  0.00  0.00    +0.000 A 
ATOM      7  C   UNL     1       2.142  17.406  17.786  0.00  0.00    +0.000 A 
ATOM      8  C   UNL     1       2.388  16.103  18.263  0.00  0.00    +0.000 A 
ATOM      9  C   UNL     1       1.305  15.311  18.701  0.00  0.00    +0.000 A 
ATOM     10  C   UNL     1       1.119  14.040  19.364  0.00  0.00    +0.000 A 
ATOM     11  C   UNL     1       1.954  13.103  19.987  0.00  0.00    +0.000 A 
ATOM     12  C   UNL     1       1.373  11.978  20.583  0.00  0.00    +0.000 A 
ATOM     13  N   UNL     1       0.034  11.706  20.497  0.00  0.00    +0.000 N 
ATOM     14  H   UNL     1      -1.801  14.888  18.425  0.00  0.00    +0.000 HD
ENDROOT
BRANCH   1  18
ATOM     15  C   UNL     1      -4.737  11.727  18.223  0.00  0.00    +0.000 A 
ATOM     16  C   UNL     1      -3.630  11.168  17.599  0.00  0.00    +0.000 A 
ATOM     17  C   UNL     1      -2.343  11.389  18.106  0.00  0.00    +0.000 A 
ATOM     18  C   UNL     1      -2.129  12.060  19.319  0.00  0.00    +0.000 A 
ATOM     19  C   UNL     1      -3.284  12.522  19.979  0.00  0.00    +0.000 A 
ATOM     20  C   UNL     1      -4.558  12.433  19.403  0.00  0.00    +0.000 A 
BRANCH  15  22
ATOM     21  C   UNL     1      -7.033  11.193  18.390  0.00  0.00    +0.000 C 
ATOM     22  O   UNL     1      -5.923  11.551  17.574  0.00  0.00    +0.000 OA
ENDBRANCH  15  22
ENDBRANCH   1  18
BRANCH  13  23
ATOM     23  C   UNL     1      -0.474  10.509  21.288  0.00  0.00    +0.000 C 
BRANCH  23  24
ATOM     24  C   UNL     1      -0.688  10.877  22.739  0.00  0.00    +0.000 C 
ATOM     25  O   UNL     1      -0.084  10.247  23.615  0.00  0.00    +0.000 OA
BRANCH  24  26
ATOM     26  C   UNL     1      -1.593  12.001  23.169  0.00  0.00    +0.000 A 
ATOM     27  C   UNL     1      -1.019  13.280  23.138  0.00  0.00    +0.000 A 
ATOM     28  C   UNL     1      -1.805  14.424  23.251  0.00  0.00    +0.000 A 
ATOM     29  C   UNL     1      -3.183  14.321  23.400  0.00  0.00    +0.000 A 
ATOM     30  C   UNL     1      -3.985  15.472  23.330  0.00  0.00    +0.000 A 
ATOM     31  C   UNL     1      -5.368  15.384  23.453  0.00  0.00    +0.000 A 
ATOM     32  C   UNL     1      -5.952  14.153  23.722  0.00  0.00    +0.000 A 
ATOM     33  C   UNL     1      -5.162  12.996  23.803  0.00  0.00    +0.000 A 
ATOM     34  C   UNL     1      -3.770  13.044  23.582  0.00  0.00    +0.000 A 
ATOM     35  C   UNL     1      -2.955  11.878  23.480  0.00  0.00    +0.000 A 
ENDBRANCH  24  26
ENDBRANCH  23  24
ENDBRANCH  13  23
TORSDOF 5
ENDMDL
MODEL 3
REMARK VINA RESULT:      -8.9      4.735     10.214
REMARK  Name = 
REMARK  6 active torsions:
REMARK  status: ('A' for Active; 'I' for Inactive)
REMARK    1  A    between atoms: C_1  and  O_2
REMARK    2  A    between atoms: O_2  and  C_3
REMARK    3  A    between atoms: C_6  and  C_7
REMARK    4  A    between atoms: N_19  and  C_20
REMARK    5  A    between atoms: C_20  and  C_21
REMARK    6  A    between atoms: C_21  and  C_23
REMARK                            x       y       z     vdW  Elec       q    Type
REMARK                         _______ _______ _______ _____ _____    ______ ____
ROOT
ATOM      1  C   UNL     1       6.033   5.362  17.171  0.00  0.00    +0.000 A 
ATOM      2  C   UNL     1       6.190   4.968  15.822  0.00  0.00    +0.000 A 
ATOM      3  N   UNL     1       7.076   5.387  14.855  0.00  0.00    +0.000 N 
ATOM      4  C   UNL     1       6.978   4.648  13.717  0.00  0.00    +0.000 A 
ATOM      5  C   UNL     1       7.836   4.602  12.610  0.00  0.00    +0.000 A 
ATOM      6  C   UNL     1       7.351   3.989  11.460  0.00  0.00    +0.000 A 
ATOM      7  C   UNL     1       6.062   3.459  11.437  0.00  0.00    +0.000 A 
ATOM      8  C   UNL     1       5.271   3.411  12.603  0.00  0.00    +0.000 A 
ATOM      9  C   UNL     1       5.763   3.980  13.797  0.00  0.00    +0.000 A 
ATOM     10  C   UNL     1       5.374   4.030  15.188  0.00  0.00    +0.000 A 
ATOM     11  C   UNL     1       4.398   3.408  15.979  0.00  0.00    +0.000 A 
ATOM     12  C   UNL     1       4.370   3.685  17.350  0.00  0.00    +0.000 A 
ATOM     13  N   UNL     1       5.192   4.612  17.933  0.00  0.00    +0.000 N 
ATOM     14  H   UNL     1       7.766   6.116  14.950  0.00  0.00    +0.000 HD
ENDROOT
BRANCH   1  18
ATOM     15  C   UNL     1       8.235   8.913  18.229  0.00  0.00    +0.000 A 
ATOM     16  C   UNL     1       7.080   9.015  17.467  0.00  0.00    +0.000 A 
ATOM     17  C   UNL     1       6.340   7.870  17.142  0.00  0.00    +0.000 A 
ATOM     18  C   UNL     1       6.653   6.609  17.674  0.00  0.00    +0.000 A 
ATOM     19  C   UNL     1       7.771   6.562  18.529  0.00  0.00    +0.000 A 
ATOM     20  C   UNL     1       8.597   7.674  18.737  0.00  0.00    +0.000 A 
BRANCH  15  22
ATOM     21  C   UNL     1       9.403  10.354  19.693  0.00  0.00    +0.000 C 
ATOM     22  O   UNL     1       8.939  10.070  18.377  0.00  0.00    +0.000 OA
ENDBRANCH  15  22
ENDBRANCH   1  18
BRANCH  13  23
ATOM     23  C   UNL     1       5.127   4.727  19.450  0.00  0.00    +0.000 C 
BRANCH  23  24
ATOM     24  C   UNL     1       3.692   4.755  19.924  0.00  0.00    +0.000 C 
ATOM     25  O   UNL     1       3.231   3.764  20.503  0.00  0.00    +0.000 OA
BRANCH  24  26
ATOM     26  C   UNL     1       2.797   5.952  19.745  0.00  0.00    +0.000 A 
ATOM     27  C   UNL     1       1.923   6.214  20.810  0.00  0.00    +0.000 A 
ATOM     28  C   UNL     1       1.238   7.423  20.898  0.00  0.00    +0.000 A 
ATOM     29  C   UNL     1       1.406   8.400  19.924  0.00  0.00    +0.000 A 
ATOM     30  C   UNL     1       0.857   9.681  20.112  0.00  0.00    +0.000 A 
ATOM     31  C   UNL     1       1.036  10.678  19.158  0.00  0.00    +0.000 A 
ATOM     32  C   UNL     1       1.700  10.380  17.975  0.00  0.00    +0.000 A 
ATOM     33  C   UNL     1       2.246   9.102  17.771  0.00  0.00    +0.000 A 
ATOM     34  C   UNL     1       2.165   8.105  18.765  0.00  0.00    +0.000 A 
ATOM     35  C   UNL     1       2.851   6.858  18.676  0.00  0.00    +0.000 A 
ENDBRANCH  24  26
ENDBRANCH  23  24
ENDBRANCH  13  23
TORSDOF 5
ENDMDL
MODEL 4
REMARK VINA RESULT:      -8.8      4.453     10.166
REMARK  Name = 
REMARK  6 active torsions:
REMARK  status: ('A' for Active; 'I' for Inactive)
REMARK    1  A    between atoms: C_1  and  O_2
REMARK    2  A    between atoms: O_2  and  C_3
REMARK    3  A    between atoms: C_6  and  C_7
REMARK    4  A    between atoms: N_19  and  C_20
REMARK    5  A    between atoms: C_20  and  C_21
REMARK    6  A    between atoms: C_21  and  C_23
REMARK                            x       y       z     vdW  Elec       q    Type
REMARK                         _______ _______ _______ _____ _____    ______ ____
ROOT
ATOM      1  C   UNL     1       5.865   5.501  17.220  0.00  0.00    +0.000 A 
ATOM      2  C   UNL     1       6.052   5.038  15.896  0.00  0.00    +0.000 A 
ATOM      3  N   UNL     1       7.019   5.335  14.963  0.00  0.00    +0.000 N 
ATOM      4  C   UNL     1       6.911   4.561  13.850  0.00  0.00    +0.000 A 
ATOM      5  C   UNL     1       7.815   4.392  12.793  0.00  0.00    +0.000 A 
ATOM      6  C   UNL     1       7.334   3.777  11.643  0.00  0.00    +0.000 A 
ATOM      7  C   UNL     1       6.005   3.363  11.571  0.00  0.00    +0.000 A 
ATOM      8  C   UNL     1       5.156   3.435  12.694  0.00  0.00    +0.000 A 
ATOM      9  C   UNL     1       5.638   4.007  13.890  0.00  0.00    +0.000 A 
ATOM     10  C   UNL     1       5.187   4.150  15.256  0.00  0.00    +0.000 A 
ATOM     11  C   UNL     1       4.120   3.652  16.016  0.00  0.00    +0.000 A 
ATOM     12  C   UNL     1       4.049   3.988  17.373  0.00  0.00    +0.000 A 
ATOM     13  N   UNL     1       4.922   4.862  17.963  0.00  0.00    +0.000 N 
ATOM     14  H   UNL     1       7.767   6.004  15.067  0.00  0.00    +0.000 HD
ENDROOT
BRANCH   1  18
ATOM     15  C   UNL     1       8.309   8.902  18.237  0.00  0.00    +0.000 A 
ATOM     16  C   UNL     1       7.165   9.075  17.470  0.00  0.00    +0.000 A 
ATOM     17  C   UNL     1       6.348   7.981  17.159  0.00  0.00    +0.000 A 
ATOM     18  C   UNL     1       6.570   6.708  17.708  0.00  0.00    +0.000 A 
ATOM     19  C   UNL     1       7.681   6.594  18.566  0.00  0.00    +0.000 A 
ATOM     20  C   UNL     1       8.583   7.648  18.762  0.00  0.00    +0.000 A 
BRANCH  15  22
ATOM     21  C   UNL     1       9.394  10.401  19.706  0.00  0.00    +0.000 C 
ATOM     22  O   UNL     1       9.093  10.009  18.372  0.00  0.00    +0.000 OA
ENDBRANCH  15  22
ENDBRANCH   1  18
BRANCH  13  23
ATOM     23  C   UNL     1       4.793   5.046  19.469  0.00  0.00    +0.000 C 
BRANCH  23  24
ATOM     24  C   UNL     1       3.370   5.390  19.847  0.00  0.00    +0.000 C 
ATOM     25  O   UNL     1       2.668   4.531  20.393  0.00  0.00    +0.000 OA
BRANCH  24  26
ATOM     26  C   UNL     1       2.770   6.750  19.608  0.00  0.00    +0.000 A 
ATOM     27  C   UNL     1       2.918   7.253  18.308  0.00  0.00    +0.000 A 
ATOM     28  C   UNL     1       2.194   8.362  17.879  0.00  0.00    +0.000 A 
ATOM     29  C   UNL     1       1.304   8.997  18.736  0.00  0.00    +0.000 A 
ATOM     30  C   UNL     1       0.446   9.996  18.245  0.00  0.00    +0.000 A 
ATOM     31  C   UNL     1      -0.467  10.626  19.084  0.00  0.00    +0.000 A 
ATOM     32  C   UNL     1      -0.477  10.316  20.438  0.00  0.00    +0.000 A 
ATOM     33  C   UNL     1       0.381   9.326  20.944  0.00  0.00    +0.000 A 
ATOM     34  C   UNL     1       1.245   8.603  20.096  0.00  0.00    +0.000 A 
ATOM     35  C   UNL     1       2.003   7.476  20.531  0.00  0.00    +0.000 A 
ENDBRANCH  24  26
ENDBRANCH  23  24
ENDBRANCH  13  23
TORSDOF 5
ENDMDL
MODEL 5
REMARK VINA RESULT:      -8.8      1.098      1.399
REMARK  Name = 
REMARK  6 active torsions:
REMARK  status: ('A' for Active; 'I' for Inactive)
REMARK    1  A    between atoms: C_1  and  O_2
REMARK    2  A    between atoms: O_2  and  C_3
REMARK    3  A    between atoms: C_6  and  C_7
REMARK    4  A    between atoms: N_19  and  C_20
REMARK    5  A    between atoms: C_20  and  C_21
REMARK    6  A    between atoms: C_21  and  C_23
REMARK                            x       y       z     vdW  Elec       q    Type
REMARK                         _______ _______ _______ _____ _____    ______ ____
ROOT
ATOM      1  C   UNL     1      -0.686  12.536  19.814  0.00  0.00    +0.000 A 
ATOM      2  C   UNL     1      -0.223  13.787  19.343  0.00  0.00    +0.000 A 
ATOM      3  N   UNL     1      -0.880  14.808  18.695  0.00  0.00    +0.000 N 
ATOM      4  C   UNL     1      -0.092  15.905  18.538  0.00  0.00    +0.000 A 
ATOM      5  C   UNL     1      -0.443  17.204  18.147  0.00  0.00    +0.000 A 
ATOM      6  C   UNL     1       0.594  18.055  17.781  0.00  0.00    +0.000 A 
ATOM      7  C   UNL     1       1.913  17.606  17.805  0.00  0.00    +0.000 A 
ATOM      8  C   UNL     1       2.243  16.337  18.321  0.00  0.00    +0.000 A 
ATOM      9  C   UNL     1       1.212  15.474  18.749  0.00  0.00    +0.000 A 
ATOM     10  C   UNL     1       1.103  14.208  19.438  0.00  0.00    +0.000 A 
ATOM     11  C   UNL     1       1.989  13.352  20.107  0.00  0.00    +0.000 A 
ATOM     12  C   UNL     1       1.478  12.201  20.715  0.00  0.00    +0.000 A 
ATOM     13  N   UNL     1       0.167  11.824  20.599  0.00  0.00    +0.000 N 
ATOM     14  H   UNL     1      -1.844  14.807  18.398  0.00  0.00    +0.000 HD
ENDROOT
BRANCH   1  18
ATOM     15  C   UNL     1      -4.513  11.417  18.177  0.00  0.00    +0.000 A 
ATOM     16  C   UNL     1      -3.347  10.896  17.632  0.00  0.00    +0.000 A 
ATOM     17  C   UNL     1      -2.100  11.230  18.176  0.00  0.00    +0.000 A 
ATOM     18  C   UNL     1      -1.981  11.984  19.354  0.00  0.00    +0.000 A 
ATOM     19  C   UNL     1      -3.191  12.407  19.938  0.00  0.00    +0.000 A 
ATOM     20  C   UNL     1      -4.430  12.201  19.317  0.00  0.00    +0.000 A 
BRANCH  15  22
ATOM     21  C   UNL     1      -6.829  11.810  17.919  0.00  0.00    +0.000 C 
ATOM     22  O   UNL     1      -5.656  11.126  17.493  0.00  0.00    +0.000 OA
ENDBRANCH  15  22
ENDBRANCH   1  18
BRANCH  13  23
ATOM     23  C   UNL     1      -0.271  10.610  21.406  0.00  0.00    +0.000 C 
BRANCH  23  24
ATOM     24  C   UNL     1       0.883   9.653  21.602  0.00  0.00    +0.000 C 
ATOM     25  O   UNL     1       1.518   9.687  22.663  0.00  0.00    +0.000 OA
BRANCH  24  26
ATOM     26  C   UNL     1       1.283   8.635  20.568  0.00  0.00    +0.000 A 
ATOM     27  C   UNL     1       1.435   9.130  19.265  0.00  0.00    +0.000 A 
ATOM     28  C   UNL     1       2.051   8.369  18.274  0.00  0.00    +0.000 A 
ATOM     29  C   UNL     1       2.530   7.096  18.559  0.00  0.00    +0.000 A 
ATOM     30  C   UNL     1       3.308   6.410  17.611  0.00  0.00    +0.000 A 
ATOM     31  C   UNL     1       3.815   5.145  17.888  0.00  0.00    +0.000 A 
ATOM     32  C   UNL     1       3.484   4.524  19.085  0.00  0.00    +0.000 A 
ATOM     33  C   UNL     1       2.699   5.194  20.038  0.00  0.00    +0.000 A 
ATOM     34  C   UNL     1       2.258   6.516  19.823  0.00  0.00    +0.000 A 
ATOM     35  C   UNL     1       1.612   7.296  20.827  0.00  0.00    +0.000 A 
ENDBRANCH  24  26
ENDBRANCH  23  24
ENDBRANCH  13  23
TORSDOF 5
ENDMDL
MODEL 6
REMARK VINA RESULT:      -8.6      2.709      3.722
REMARK  Name = 
REMARK  6 active torsions:
REMARK  status: ('A' for Active; 'I' for Inactive)
REMARK    1  A    between atoms: C_1  and  O_2
REMARK    2  A    between atoms: O_2  and  C_3
REMARK    3  A    between atoms: C_6  and  C_7
REMARK    4  A    between atoms: N_19  and  C_20
REMARK    5  A    between atoms: C_20  and  C_21
REMARK    6  A    between atoms: C_21  and  C_23
REMARK                            x       y       z     vdW  Elec       q    Type
REMARK                         _______ _______ _______ _____ _____    ______ ____
ROOT
ATOM      1  C   UNL     1       0.332  11.796  20.127  0.00  0.00    +0.000 A 
ATOM      2  C   UNL     1       1.105  12.938  19.809  0.00  0.00    +0.000 A 
ATOM      3  N   UNL     1       1.120  14.200  20.357  0.00  0.00    +0.000 N 
ATOM      4  C   UNL     1       2.119  14.968  19.844  0.00  0.00    +0.000 A 
ATOM      5  C   UNL     1       2.610  16.203  20.289  0.00  0.00    +0.000 A 
ATOM      6  C   UNL     1       3.429  16.909  19.416  0.00  0.00    +0.000 A 
ATOM      7  C   UNL     1       3.726  16.390  18.157  0.00  0.00    +0.000 A 
ATOM      8  C   UNL     1       3.320  15.091  17.788  0.00  0.00    +0.000 A 
ATOM      9  C   UNL     1       2.531  14.334  18.680  0.00  0.00    +0.000 A 
ATOM     10  C   UNL     1       2.035  12.979  18.770  0.00  0.00    +0.000 A 
ATOM     11  C   UNL     1       2.245  11.786  18.066  0.00  0.00    +0.000 A 
ATOM     12  C   UNL     1       1.599  10.625  18.505  0.00  0.00    +0.000 A 
ATOM     13  N   UNL     1       0.693  10.628  19.532  0.00  0.00    +0.000 N 
ATOM     14  H   UNL     1       0.516  14.544  21.088  0.00  0.00    +0.000 HD
ENDROOT
BRANCH   1  18
ATOM     15  C   UNL     1      -3.042  12.673  22.662  0.00  0.00    +0.000 A 
ATOM     16  C   UNL     1      -3.183  12.711  21.282  0.00  0.00    +0.000 A 
ATOM     17  C   UNL     1      -2.101  12.398  20.449  0.00  0.00    +0.000 A 
ATOM     18  C   UNL     1      -0.887  11.914  20.960  0.00  0.00    +0.000 A 
ATOM     19  C   UNL     1      -0.815  11.789  22.361  0.00  0.00    +0.000 A 
ATOM     20  C   UNL     1      -1.841  12.239  23.203  0.00  0.00    +0.000 A 
BRANCH  15  22
ATOM     21  C   UNL     1      -4.351  12.473  24.619  0.00  0.00    +0.000 C 
ATOM     22  O   UNL     1      -4.119  13.116  23.370  0.00  0.00    +0.000 OA
ENDBRANCH  15  22
ENDBRANCH   1  18
BRANCH  13  23
ATOM     23  C   UNL     1       0.154   9.274  19.974  0.00  0.00    +0.000 C 
BRANCH  23  24
ATOM     24  C   UNL     1       1.191   8.520  20.774  0.00  0.00    +0.000 C 
ATOM     25  O   UNL     1       1.487   8.923  21.906  0.00  0.00    +0.000 OA
BRANCH  24  26
ATOM     26  C   UNL     1       1.870   7.277  20.264  0.00  0.00    +0.000 A 
ATOM     27  C   UNL     1       1.467   6.079  20.873  0.00  0.00    +0.000 A 
ATOM     28  C   UNL     1       1.809   4.845  20.327  0.00  0.00    +0.000 A 
ATOM     29  C   UNL     1       2.561   4.774  19.161  0.00  0.00    +0.000 A 
ATOM     30  C   UNL     1       2.745   3.538  18.518  0.00  0.00    +0.000 A 
ATOM     31  C   UNL     1       3.476   3.452  17.337  0.00  0.00    +0.000 A 
ATOM     32  C   UNL     1       4.090   4.589  16.830  0.00  0.00    +0.000 A 
ATOM     33  C   UNL     1       3.921   5.829  17.467  0.00  0.00    +0.000 A 
ATOM     34  C   UNL     1       3.103   5.960  18.608  0.00  0.00    +0.000 A 
ATOM     35  C   UNL     1       2.762   7.220  19.183  0.00  0.00    +0.000 A 
ENDBRANCH  24  26
ENDBRANCH  23  24
ENDBRANCH  13  23
TORSDOF 5
ENDMDL
MODEL 7
REMARK VINA RESULT:      -8.6      4.132      9.755
REMARK  Name = 
REMARK  6 active torsions:
REMARK  status: ('A' for Active; 'I' for Inactive)
REMARK    1  A    between atoms: C_1  and  O_2
REMARK    2  A    between atoms: O_2  and  C_3
REMARK    3  A    between atoms: C_6  and  C_7
REMARK    4  A    between atoms: N_19  and  C_20
REMARK    5  A    between atoms: C_20  and  C_21
REMARK    6  A    between atoms: C_21  and  C_23
REMARK                            x       y       z     vdW  Elec       q    Type
REMARK                         _______ _______ _______ _____ _____    ______ ____
ROOT
ATOM      1  C   UNL     1       4.500   5.196  17.100  0.00  0.00    +0.000 A 
ATOM      2  C   UNL     1       5.097   4.866  15.861  0.00  0.00    +0.000 A 
ATOM      3  N   UNL     1       4.841   3.840  14.979  0.00  0.00    +0.000 N 
ATOM      4  C   UNL     1       5.555   3.965  13.828  0.00  0.00    +0.000 A 
ATOM      5  C   UNL     1       5.415   3.276  12.616  0.00  0.00    +0.000 A 
ATOM      6  C   UNL     1       6.458   3.386  11.703  0.00  0.00    +0.000 A 
ATOM      7  C   UNL     1       7.584   4.149  12.012  0.00  0.00    +0.000 A 
ATOM      8  C   UNL     1       7.639   4.928  13.184  0.00  0.00    +0.000 A 
ATOM      9  C   UNL     1       6.568   4.875  14.102  0.00  0.00    +0.000 A 
ATOM     10  C   UNL     1       6.159   5.574  15.299  0.00  0.00    +0.000 A 
ATOM     11  C   UNL     1       6.592   6.713  15.991  0.00  0.00    +0.000 A 
ATOM     12  C   UNL     1       5.879   7.121  17.124  0.00  0.00    +0.000 A 
ATOM     13  N   UNL     1       4.839   6.396  17.642  0.00  0.00    +0.000 N 
ATOM     14  H   UNL     1       4.178   3.091  15.107  0.00  0.00    +0.000 HD
ENDROOT
BRANCH   1  18
ATOM     15  C   UNL     1       2.069   2.704  19.642  0.00  0.00    +0.000 A 
ATOM     16  C   UNL     1       1.474   3.473  18.652  0.00  0.00    +0.000 A 
ATOM     17  C   UNL     1       2.258   4.264  17.801  0.00  0.00    +0.000 A 
ATOM     18  C   UNL     1       3.660   4.213  17.823  0.00  0.00    +0.000 A 
ATOM     19  C   UNL     1       4.229   3.340  18.771  0.00  0.00    +0.000 A 
ATOM     20  C   UNL     1       3.453   2.662  19.720  0.00  0.00    +0.000 A 
BRANCH  15  22
ATOM     21  C   UNL     1       1.310   2.430  21.863  0.00  0.00    +0.000 C 
ATOM     22  O   UNL     1       1.206   2.074  20.488  0.00  0.00    +0.000 OA
ENDBRANCH  15  22
ENDBRANCH   1  18
BRANCH  13  23
ATOM     23  C   UNL     1       4.086   7.018  18.810  0.00  0.00    +0.000 C 
BRANCH  23  24
ATOM     24  C   UNL     1       2.913   7.835  18.317  0.00  0.00    +0.000 C 
ATOM     25  O   UNL     1       2.822   8.089  17.110  0.00  0.00    +0.000 OA
BRANCH  24  26
ATOM     26  C   UNL     1       1.829   8.340  19.232  0.00  0.00    +0.000 A 
ATOM     27  C   UNL     1       1.679   7.632  20.433  0.00  0.00    +0.000 A 
ATOM     28  C   UNL     1       0.909   8.140  21.476  0.00  0.00    +0.000 A 
ATOM     29  C   UNL     1       0.269   9.367  21.347  0.00  0.00    +0.000 A 
ATOM     30  C   UNL     1      -0.352   9.957  22.461  0.00  0.00    +0.000 A 
ATOM     31  C   UNL     1      -0.977  11.195  22.355  0.00  0.00    +0.000 A 
ATOM     32  C   UNL     1      -1.051  11.818  21.116  0.00  0.00    +0.000 A 
ATOM     33  C   UNL     1      -0.442  11.236  19.992  0.00  0.00    +0.000 A 
ATOM     34  C   UNL     1       0.283  10.031  20.095  0.00  0.00    +0.000 A 
ATOM     35  C   UNL     1       1.062   9.495  19.027  0.00  0.00    +0.000 A 
ENDBRANCH  24  26
ENDBRANCH  23  24
ENDBRANCH  13  23
TORSDOF 5
ENDMDL
MODEL 8
REMARK VINA RESULT:      -8.6      2.816      3.714
REMARK  Name = 
REMARK  6 active torsions:
REMARK  status: ('A' for Active; 'I' for Inactive)
REMARK    1  A    between atoms: C_1  and  O_2
REMARK    2  A    between atoms: O_2  and  C_3
REMARK    3  A    between atoms: C_6  and  C_7
REMARK    4  A    between atoms: N_19  and  C_20
REMARK    5  A    between atoms: C_20  and  C_21
REMARK    6  A    between atoms: C_21  and  C_23
REMARK                            x       y       z     vdW  Elec       q    Type
REMARK                         _______ _______ _______ _____ _____    ______ ____
ROOT
ATOM      1  C   UNL     1       0.556  12.163  20.218  0.00  0.00    +0.000 A 
ATOM      2  C   UNL     1       1.427  13.232  19.898  0.00  0.00    +0.000 A 
ATOM      3  N   UNL     1       1.580  14.475  20.470  0.00  0.00    +0.000 N 
ATOM      4  C   UNL     1       2.634  15.154  19.942  0.00  0.00    +0.000 A 
ATOM      5  C   UNL     1       3.253  16.326  20.396  0.00  0.00    +0.000 A 
ATOM      6  C   UNL     1       4.113  16.968  19.512  0.00  0.00    +0.000 A 
ATOM      7  C   UNL     1       4.324  16.450  18.235  0.00  0.00    +0.000 A 
ATOM      8  C   UNL     1       3.784  15.205  17.854  0.00  0.00    +0.000 A 
ATOM      9  C   UNL     1       2.951  14.508  18.754  0.00  0.00    +0.000 A 
ATOM     10  C   UNL     1       2.328  13.205  18.834  0.00  0.00    +0.000 A 
ATOM     11  C   UNL     1       2.402  12.013  18.101  0.00  0.00    +0.000 A 
ATOM     12  C   UNL     1       1.659  10.911  18.538  0.00  0.00    +0.000 A 
ATOM     13  N   UNL     1       0.786  10.979  19.591  0.00  0.00    +0.000 N 
ATOM     14  H   UNL     1       1.032  14.859  21.224  0.00  0.00    +0.000 HD
ENDROOT
BRANCH   1  18
ATOM     15  C   UNL     1      -3.071  12.298  22.542  0.00  0.00    +0.000 A 
ATOM     16  C   UNL     1      -1.883  11.894  23.134  0.00  0.00    +0.000 A 
ATOM     17  C   UNL     1      -0.693  11.875  22.396  0.00  0.00    +0.000 A 
ATOM     18  C   UNL     1      -0.622  12.380  21.088  0.00  0.00    +0.000 A 
ATOM     19  C   UNL     1      -1.827  12.879  20.556  0.00  0.00    +0.000 A 
ATOM     20  C   UNL     1      -3.046  12.765  21.236  0.00  0.00    +0.000 A 
BRANCH  15  22
ATOM     21  C   UNL     1      -4.140  12.783  24.593  0.00  0.00    +0.000 C 
ATOM     22  O   UNL     1      -4.185  12.158  23.315  0.00  0.00    +0.000 OA
ENDBRANCH  15  22
ENDBRANCH   1  18
BRANCH  13  23
ATOM     23  C   UNL     1       0.131   9.674  20.022  0.00  0.00    +0.000 C 
BRANCH  23  24
ATOM     24  C   UNL     1       1.107   8.814  20.793  0.00  0.00    +0.000 C 
ATOM     25  O   UNL     1       1.539   9.221  21.878  0.00  0.00    +0.000 OA
BRANCH  24  26
ATOM     26  C   UNL     1       1.562   7.463  20.309  0.00  0.00    +0.000 A 
ATOM     27  C   UNL     1       2.346   7.475  19.146  0.00  0.00    +0.000 A 
ATOM     28  C   UNL     1       3.048   6.342  18.742  0.00  0.00    +0.000 A 
ATOM     29  C   UNL     1       2.984   5.170  19.486  0.00  0.00    +0.000 A 
ATOM     30  C   UNL     1       3.833   4.094  19.176  0.00  0.00    +0.000 A 
ATOM     31  C   UNL     1       3.799   2.922  19.925  0.00  0.00    +0.000 A 
ATOM     32  C   UNL     1       2.863   2.789  20.942  0.00  0.00    +0.000 A 
ATOM     33  C   UNL     1       2.002   3.853  21.257  0.00  0.00    +0.000 A 
ATOM     34  C   UNL     1       2.086   5.087  20.579  0.00  0.00    +0.000 A 
ATOM     35  C   UNL     1       1.358   6.247  20.977  0.00  0.00    +0.000 A 
ENDBRANCH  24  26
ENDBRANCH  23  24
ENDBRANCH  13  23
TORSDOF 5
ENDMDL
MODEL 9
REMARK VINA RESULT:      -8.6      1.424      2.135
REMARK  Name = 
REMARK  6 active torsions:
REMARK  status: ('A' for Active; 'I' for Inactive)
REMARK    1  A    between atoms: C_1  and  O_2
REMARK    2  A    between atoms: O_2  and  C_3
REMARK    3  A    between atoms: C_6  and  C_7
REMARK    4  A    between atoms: N_19  and  C_20
REMARK    5  A    between atoms: C_20  and  C_21
REMARK    6  A    between atoms: C_21  and  C_23
REMARK                            x       y       z     vdW  Elec       q    Type
REMARK                         _______ _______ _______ _____ _____    ______ ____
ROOT
ATOM      1  C   UNL     1      -0.343  11.972  18.439  0.00  0.00    +0.000 A 
ATOM      2  C   UNL     1       0.036  13.315  18.672  0.00  0.00    +0.000 A 
ATOM      3  N   UNL     1      -0.714  14.422  19.000  0.00  0.00    +0.000 N 
ATOM      4  C   UNL     1       0.064  15.505  19.271  0.00  0.00    +0.000 A 
ATOM      5  C   UNL     1      -0.289  16.729  19.854  0.00  0.00    +0.000 A 
ATOM      6  C   UNL     1       0.630  17.767  19.747  0.00  0.00    +0.000 A 
ATOM      7  C   UNL     1       1.836  17.571  19.076  0.00  0.00    +0.000 A 
ATOM      8  C   UNL     1       2.214  16.296  18.611  0.00  0.00    +0.000 A 
ATOM      9  C   UNL     1       1.320  15.213  18.756  0.00  0.00    +0.000 A 
ATOM     10  C   UNL     1       1.346  13.781  18.563  0.00  0.00    +0.000 A 
ATOM     11  C   UNL     1       2.331  12.827  18.274  0.00  0.00    +0.000 A 
ATOM     12  C   UNL     1       1.962  11.478  18.217  0.00  0.00    +0.000 A 
ATOM     13  N   UNL     1       0.662  11.063  18.332  0.00  0.00    +0.000 N 
ATOM     14  H   UNL     1      -1.718  14.462  19.088  0.00  0.00    +0.000 HD
ENDROOT
BRANCH   1  18
ATOM     15  C   UNL     1      -4.551  11.497  17.637  0.00  0.00    +0.000 A 
ATOM     16  C   UNL     1      -3.621  11.220  16.645  0.00  0.00    +0.000 A 
ATOM     17  C   UNL     1      -2.250  11.343  16.904  0.00  0.00    +0.000 A 
ATOM     18  C   UNL     1      -1.759  11.616  18.191  0.00  0.00    +0.000 A 
ATOM     19  C   UNL     1      -2.731  11.787  19.196  0.00  0.00    +0.000 A 
ATOM     20  C   UNL     1      -4.102  11.811  18.911  0.00  0.00    +0.000 A 
BRANCH  15  22
ATOM     21  C   UNL     1      -6.815  11.235  18.264  0.00  0.00    +0.000 C 
ATOM     22  O   UNL     1      -5.855  11.466  17.238  0.00  0.00    +0.000 OA
ENDBRANCH  15  22
ENDBRANCH   1  18
BRANCH  13  23
ATOM     23  C   UNL     1       0.424   9.560  18.362  0.00  0.00    +0.000 C 
BRANCH  23  24
ATOM     24  C   UNL     1       1.329   8.894  19.374  0.00  0.00    +0.000 C 
ATOM     25  O   UNL     1       1.252   9.229  20.562  0.00  0.00    +0.000 OA
BRANCH  24  26
ATOM     26  C   UNL     1       2.312   7.815  19.003  0.00  0.00    +0.000 A 
ATOM     27  C   UNL     1       2.201   6.625  19.736  0.00  0.00    +0.000 A 
ATOM     28  C   UNL     1       2.857   5.466  19.328  0.00  0.00    +0.000 A 
ATOM     29  C   UNL     1       3.639   5.467  18.179  0.00  0.00    +0.000 A 
ATOM     30  C   UNL     1       4.147   4.257  17.674  0.00  0.00    +0.000 A 
ATOM     31  C   UNL     1       4.913   4.237  16.513  0.00  0.00    +0.000 A 
ATOM     32  C   UNL     1       5.240   5.434  15.890  0.00  0.00    +0.000 A 
ATOM     33  C   UNL     1       4.747   6.650  16.389  0.00  0.00    +0.000 A 
ATOM     34  C   UNL     1       3.886   6.688  17.505  0.00  0.00    +0.000 A 
ATOM     35  C   UNL     1       3.224   7.874  17.940  0.00  0.00    +0.000 A 
ENDBRANCH  24  26
ENDBRANCH  23  24
ENDBRANCH  13  23
TORSDOF 5
ENDMDL
