MODEL 1
REMARK VINA RESULT:      -7.1      0.000      0.000
REMARK  Name = 
REMARK  3 active torsions:
REMARK  status: ('A' for Active; 'I' for Inactive)
REMARK    1  A    between atoms: C_1  and  C_2
REMARK    2  A    between atoms: C_5  and  C_6
REMARK    3  A    between atoms: C_7  and  C_8
REMARK                            x       y       z     vdW  Elec       q    Type
REMARK                         _______ _______ _______ _____ _____    ______ ____
ROOT
ATOM      1  C   UNL     1       5.397   4.413  17.961  0.00  0.00    +0.000 C 
ATOM      2  O   UNL     1       5.847   3.948  19.005  0.00  0.00    +0.000 OA
ATOM      3  N   UNL     1       4.076   4.283  17.573  0.00  0.00    +0.000 N 
ATOM      4  C   UNL     1       3.045   3.715  18.265  0.00  0.00    +0.000 C 
ATOM      5  N   UNL     1       2.004   3.324  17.615  0.00  0.00    +0.000 NA
ATOM      6  C   UNL     1       1.035   2.723  18.561  0.00  0.00    +0.000 C 
ATOM      7  C   UNL     1       1.718   2.340  19.866  0.00  0.00    +0.000 C 
ATOM      8  S   UNL     1       3.064   3.521  19.982  0.00  0.00    +0.000 S 
ATOM      9  H   UNL     1       3.844   4.428  16.605  0.00  0.00    +0.000 HD
ENDROOT
BRANCH   1  16
ATOM     10  C   UNL     1       5.733   3.648  14.876  0.00  0.00    +0.000 C 
ATOM     11  C   UNL     1       6.446   4.703  15.638  0.00  0.00    +0.000 A 
ATOM     12  N   UNL     1       7.349   5.474  15.023  0.00  0.00    +0.000 NA
ATOM     13  O   UNL     1       7.815   6.341  15.981  0.00  0.00    +0.000 OA
ATOM     14  C   UNL     1       7.194   6.106  17.170  0.00  0.00    +0.000 A 
ATOM     15  C   UNL     1       7.632   6.989  18.267  0.00  0.00    +0.000 C 
ATOM     16  C   UNL     1       6.295   5.062  17.016  0.00  0.00    +0.000 A 
ENDBRANCH   1  16
TORSDOF 1
ENDMDL
MODEL 2
REMARK VINA RESULT:      -6.9      1.416      1.454
REMARK  Name = 
REMARK  3 active torsions:
REMARK  status: ('A' for Active; 'I' for Inactive)
REMARK    1  A    between atoms: C_1  and  C_2
REMARK    2  A    between atoms: C_5  and  C_6
REMARK    3  A    between atoms: C_7  and  C_8
REMARK                            x       y       z     vdW  Elec       q    Type
REMARK                         _______ _______ _______ _____ _____    ______ ____
ROOT
ATOM      1  C   UNL     1       4.532   5.158  16.941  0.00  0.00    +0.000 C 
ATOM      2  O   UNL     1       3.806   6.097  17.252  0.00  0.00    +0.000 OA
ATOM      3  N   UNL     1       4.264   3.842  17.270  0.00  0.00    +0.000 N 
ATOM      4  C   UNL     1       3.164   3.338  17.903  0.00  0.00    +0.000 C 
ATOM      5  N   UNL     1       3.253   2.188  18.477  0.00  0.00    +0.000 NA
ATOM      6  C   UNL     1       1.955   1.858  19.113  0.00  0.00    +0.000 C 
ATOM      7  C   UNL     1       1.106   3.109  19.291  0.00  0.00    +0.000 C 
ATOM      8  S   UNL     1       1.646   4.163  17.943  0.00  0.00    +0.000 S 
ATOM      9  H   UNL     1       5.018   3.177  17.241  0.00  0.00    +0.000 HD
ENDROOT
BRANCH   1  16
ATOM     10  C   UNL     1       5.352   4.110  14.035  0.00  0.00    +0.000 C 
ATOM     11  C   UNL     1       6.159   4.934  14.969  0.00  0.00    +0.000 A 
ATOM     12  N   UNL     1       7.386   5.331  14.618  0.00  0.00    +0.000 NA
ATOM     13  O   UNL     1       7.857   6.070  15.676  0.00  0.00    +0.000 OA
ATOM     14  C   UNL     1       6.919   6.130  16.661  0.00  0.00    +0.000 A 
ATOM     15  C   UNL     1       7.335   6.903  17.847  0.00  0.00    +0.000 C 
ATOM     16  C   UNL     1       5.797   5.419  16.267  0.00  0.00    +0.000 A 
ENDBRANCH   1  16
TORSDOF 1
ENDMDL
MODEL 3
REMARK VINA RESULT:      -6.9      0.584      2.091
REMARK  Name = 
REMARK  3 active torsions:
REMARK  status: ('A' for Active; 'I' for Inactive)
REMARK    1  A    between atoms: C_1  and  C_2
REMARK    2  A    between atoms: C_5  and  C_6
REMARK    3  A    between atoms: C_7  and  C_8
REMARK                            x       y       z     vdW  Elec       q    Type
REMARK                         _______ _______ _______ _____ _____    ______ ____
ROOT
ATOM      1  C   UNL     1       5.259   4.314  17.920  0.00  0.00    +0.000 C 
ATOM      2  O   UNL     1       5.744   3.807  18.927  0.00  0.00    +0.000 OA
ATOM      3  N   UNL     1       3.921   4.221  17.584  0.00  0.00    +0.000 N 
ATOM      4  C   UNL     1       2.910   3.648  18.300  0.00  0.00    +0.000 C 
ATOM      5  N   UNL     1       1.834   3.298  17.683  0.00  0.00    +0.000 NA
ATOM      6  C   UNL     1       0.895   2.682  18.649  0.00  0.00    +0.000 C 
ATOM      7  C   UNL     1       1.625   2.243  19.911  0.00  0.00    +0.000 C 
ATOM      8  S   UNL     1       2.997   3.396  20.008  0.00  0.00    +0.000 S 
ATOM      9  H   UNL     1       3.651   4.402  16.633  0.00  0.00    +0.000 HD
ENDROOT
BRANCH   1  16
ATOM     10  C   UNL     1       7.538   6.443  18.623  0.00  0.00    +0.000 C 
ATOM     11  C   UNL     1       7.140   5.940  17.284  0.00  0.00    +0.000 A 
ATOM     12  N   UNL     1       7.772   6.381  16.192  0.00  0.00    +0.000 NA
ATOM     13  O   UNL     1       7.186   5.731  15.133  0.00  0.00    +0.000 OA
ATOM     14  C   UNL     1       6.209   4.893  15.578  0.00  0.00    +0.000 A 
ATOM     15  C   UNL     1       5.515   4.150  14.510  0.00  0.00    +0.000 C 
ATOM     16  C   UNL     1       6.129   4.979  16.959  0.00  0.00    +0.000 A 
ENDBRANCH   1  16
TORSDOF 1
ENDMDL
MODEL 4
REMARK VINA RESULT:      -6.8      1.520      1.744
REMARK  Name = 
REMARK  3 active torsions:
REMARK  status: ('A' for Active; 'I' for Inactive)
REMARK    1  A    between atoms: C_1  and  C_2
REMARK    2  A    between atoms: C_5  and  C_6
REMARK    3  A    between atoms: C_7  and  C_8
REMARK                            x       y       z     vdW  Elec       q    Type
REMARK                         _______ _______ _______ _____ _____    ______ ____
ROOT
ATOM      1  C   UNL     1       4.871   4.808  17.358  0.00  0.00    +0.000 C 
ATOM      2  O   UNL     1       3.788   5.378  17.258  0.00  0.00    +0.000 OA
ATOM      3  N   UNL     1       5.122   3.795  18.266  0.00  0.00    +0.000 N 
ATOM      4  C   UNL     1       4.248   3.203  19.132  0.00  0.00    +0.000 C 
ATOM      5  N   UNL     1       4.718   2.581  20.157  0.00  0.00    +0.000 NA
ATOM      6  C   UNL     1       3.595   2.043  20.960  0.00  0.00    +0.000 C 
ATOM      7  C   UNL     1       2.292   2.749  20.609  0.00  0.00    +0.000 C 
ATOM      8  S   UNL     1       2.536   3.226  18.897  0.00  0.00    +0.000 S 
ATOM      9  H   UNL     1       6.077   3.578  18.490  0.00  0.00    +0.000 HD
ENDROOT
BRANCH   1  16
ATOM     10  C   UNL     1       5.442   4.003  14.318  0.00  0.00    +0.000 C 
ATOM     11  C   UNL     1       6.251   4.884  15.196  0.00  0.00    +0.000 A 
ATOM     12  N   UNL     1       7.366   5.453  14.726  0.00  0.00    +0.000 NA
ATOM     13  O   UNL     1       7.871   6.200  15.762  0.00  0.00    +0.000 OA
ATOM     14  C   UNL     1       7.064   6.094  16.854  0.00  0.00    +0.000 A 
ATOM     15  C   UNL     1       7.528   6.862  18.026  0.00  0.00    +0.000 C 
ATOM     16  C   UNL     1       5.999   5.260  16.555  0.00  0.00    +0.000 A 
ENDBRANCH   1  16
TORSDOF 1
ENDMDL
MODEL 5
REMARK VINA RESULT:      -6.7      1.531      2.551
REMARK  Name = 
REMARK  3 active torsions:
REMARK  status: ('A' for Active; 'I' for Inactive)
REMARK    1  A    between atoms: C_1  and  C_2
REMARK    2  A    between atoms: C_5  and  C_6
REMARK    3  A    between atoms: C_7  and  C_8
REMARK                            x       y       z     vdW  Elec       q    Type
REMARK                         _______ _______ _______ _____ _____    ______ ____
ROOT
ATOM      1  C   UNL     1       4.481   4.996  16.834  0.00  0.00    +0.000 C 
ATOM      2  O   UNL     1       3.840   5.971  17.212  0.00  0.00    +0.000 OA
ATOM      3  N   UNL     1       4.151   3.691  17.152  0.00  0.00    +0.000 N 
ATOM      4  C   UNL     1       3.063   3.242  17.846  0.00  0.00    +0.000 C 
ATOM      5  N   UNL     1       3.113   2.075  18.389  0.00  0.00    +0.000 NA
ATOM      6  C   UNL     1       1.841   1.812  19.101  0.00  0.00    +0.000 C 
ATOM      7  C   UNL     1       1.089   3.109  19.362  0.00  0.00    +0.000 C 
ATOM      8  S   UNL     1       1.608   4.161  18.004  0.00  0.00    +0.000 S 
ATOM      9  H   UNL     1       4.856   2.981  17.059  0.00  0.00    +0.000 HD
ENDROOT
BRANCH   1  16
ATOM     10  C   UNL     1       7.045   6.615  17.845  0.00  0.00    +0.000 C 
ATOM     11  C   UNL     1       6.853   5.930  16.542  0.00  0.00    +0.000 A 
ATOM     12  N   UNL     1       7.832   5.942  15.632  0.00  0.00    +0.000 NA
ATOM     13  O   UNL     1       7.356   5.228  14.560  0.00  0.00    +0.000 OA
ATOM     14  C   UNL     1       6.097   4.775  14.819  0.00  0.00    +0.000 A 
ATOM     15  C   UNL     1       5.496   3.996  13.720  0.00  0.00    +0.000 C 
ATOM     16  C   UNL     1       5.714   5.192  16.084  0.00  0.00    +0.000 A 
ENDBRANCH   1  16
TORSDOF 1
ENDMDL
MODEL 6
REMARK VINA RESULT:      -6.7      1.657      1.766
REMARK  Name = 
REMARK  3 active torsions:
REMARK  status: ('A' for Active; 'I' for Inactive)
REMARK    1  A    between atoms: C_1  and  C_2
REMARK    2  A    between atoms: C_5  and  C_6
REMARK    3  A    between atoms: C_7  and  C_8
REMARK                            x       y       z     vdW  Elec       q    Type
REMARK                         _______ _______ _______ _____ _____    ______ ____
ROOT
ATOM      1  C   UNL     1       4.448   4.703  17.808  0.00  0.00    +0.000 C 
ATOM      2  O   UNL     1       3.564   5.457  17.413  0.00  0.00    +0.000 OA
ATOM      3  N   UNL     1       4.263   3.758  18.800  0.00  0.00    +0.000 N 
ATOM      4  C   UNL     1       3.106   3.435  19.451  0.00  0.00    +0.000 C 
ATOM      5  N   UNL     1       3.183   2.841  20.592  0.00  0.00    +0.000 NA
ATOM      6  C   UNL     1       1.816   2.613  21.116  0.00  0.00    +0.000 C 
ATOM      7  C   UNL     1       0.810   3.517  20.417  0.00  0.00    +0.000 C 
ATOM      8  S   UNL     1       1.540   3.762  18.797  0.00  0.00    +0.000 S 
ATOM      9  H   UNL     1       5.072   3.386  19.266  0.00  0.00    +0.000 HD
ENDROOT
BRANCH   1  16
ATOM     10  C   UNL     1       5.363   4.146  14.796  0.00  0.00    +0.000 C 
ATOM     11  C   UNL     1       6.203   4.584  15.939  0.00  0.00    +0.000 A 
ATOM     12  N   UNL     1       7.510   4.799  15.762  0.00  0.00    +0.000 NA
ATOM     13  O   UNL     1       7.994   5.195  16.985  0.00  0.00    +0.000 OA
ATOM     14  C   UNL     1       6.985   5.229  17.900  0.00  0.00    +0.000 A 
ATOM     15  C   UNL     1       7.408   5.640  19.252  0.00  0.00    +0.000 C 
ATOM     16  C   UNL     1       5.802   4.847  17.288  0.00  0.00    +0.000 A 
ENDBRANCH   1  16
TORSDOF 1
ENDMDL
MODEL 7
REMARK VINA RESULT:      -6.6      1.416      1.494
REMARK  Name = 
REMARK  3 active torsions:
REMARK  status: ('A' for Active; 'I' for Inactive)
REMARK    1  A    between atoms: C_1  and  C_2
REMARK    2  A    between atoms: C_5  and  C_6
REMARK    3  A    between atoms: C_7  and  C_8
REMARK                            x       y       z     vdW  Elec       q    Type
REMARK                         _______ _______ _______ _____ _____    ______ ____
ROOT
ATOM      1  C   UNL     1       4.918   4.320  17.364  0.00  0.00    +0.000 C 
ATOM      2  O   UNL     1       4.557   3.192  17.042  0.00  0.00    +0.000 OA
ATOM      3  N   UNL     1       4.312   5.063  18.360  0.00  0.00    +0.000 N 
ATOM      4  C   UNL     1       3.297   4.688  19.194  0.00  0.00    +0.000 C 
ATOM      5  N   UNL     1       2.598   5.603  19.770  0.00  0.00    +0.000 NA
ATOM      6  C   UNL     1       1.549   4.967  20.600  0.00  0.00    +0.000 C 
ATOM      7  C   UNL     1       1.325   3.522  20.176  0.00  0.00    +0.000 C 
ATOM      8  S   UNL     1       2.927   3.034  19.532  0.00  0.00    +0.000 S 
ATOM      9  H   UNL     1       4.463   6.057  18.377  0.00  0.00    +0.000 HD
ENDROOT
BRANCH   1  16
ATOM     10  C   UNL     1       5.402   4.090  14.213  0.00  0.00    +0.000 C 
ATOM     11  C   UNL     1       6.196   4.857  15.205  0.00  0.00    +0.000 A 
ATOM     12  N   UNL     1       7.254   5.569  14.804  0.00  0.00    +0.000 NA
ATOM     13  O   UNL     1       7.760   6.158  15.937  0.00  0.00    +0.000 OA
ATOM     14  C   UNL     1       7.010   5.813  17.021  0.00  0.00    +0.000 A 
ATOM     15  C   UNL     1       7.479   6.396  18.292  0.00  0.00    +0.000 C 
ATOM     16  C   UNL     1       5.982   4.976  16.616  0.00  0.00    +0.000 A 
ENDBRANCH   1  16
TORSDOF 1
ENDMDL
MODEL 8
REMARK VINA RESULT:      -6.6      1.762      2.695
REMARK  Name = 
REMARK  3 active torsions:
REMARK  status: ('A' for Active; 'I' for Inactive)
REMARK    1  A    between atoms: C_1  and  C_2
REMARK    2  A    between atoms: C_5  and  C_6
REMARK    3  A    between atoms: C_7  and  C_8
REMARK                            x       y       z     vdW  Elec       q    Type
REMARK                         _______ _______ _______ _____ _____    ______ ____
ROOT
ATOM      1  C   UNL     1       4.358   4.578  17.742  0.00  0.00    +0.000 C 
ATOM      2  O   UNL     1       3.484   5.361  17.385  0.00  0.00    +0.000 OA
ATOM      3  N   UNL     1       4.184   3.638  18.741  0.00  0.00    +0.000 N 
ATOM      4  C   UNL     1       3.046   3.352  19.440  0.00  0.00    +0.000 C 
ATOM      5  N   UNL     1       3.151   2.754  20.577  0.00  0.00    +0.000 NA
ATOM      6  C   UNL     1       1.801   2.571  21.159  0.00  0.00    +0.000 C 
ATOM      7  C   UNL     1       0.796   3.509  20.503  0.00  0.00    +0.000 C 
ATOM      8  S   UNL     1       1.465   3.732  18.853  0.00  0.00    +0.000 S 
ATOM      9  H   UNL     1       4.999   3.237  19.171  0.00  0.00    +0.000 HD
ENDROOT
BRANCH   1  16
ATOM     10  C   UNL     1       7.001   5.488  19.293  0.00  0.00    +0.000 C 
ATOM     11  C   UNL     1       6.868   5.098  17.867  0.00  0.00    +0.000 A 
ATOM     12  N   UNL     1       7.944   5.095  17.074  0.00  0.00    +0.000 NA
ATOM     13  O   UNL     1       7.499   4.687  15.840  0.00  0.00    +0.000 OA
ATOM     14  C   UNL     1       6.161   4.434  15.884  0.00  0.00    +0.000 A 
ATOM     15  C   UNL     1       5.586   3.992  14.600  0.00  0.00    +0.000 C 
ATOM     16  C   UNL     1       5.693   4.678  17.165  0.00  0.00    +0.000 A 
ENDBRANCH   1  16
TORSDOF 1
ENDMDL
MODEL 9
REMARK VINA RESULT:      -6.4      1.508      2.491
REMARK  Name = 
REMARK  3 active torsions:
REMARK  status: ('A' for Active; 'I' for Inactive)
REMARK    1  A    between atoms: C_1  and  C_2
REMARK    2  A    between atoms: C_5  and  C_6
REMARK    3  A    between atoms: C_7  and  C_8
REMARK                            x       y       z     vdW  Elec       q    Type
REMARK                         _______ _______ _______ _____ _____    ______ ____
ROOT
ATOM      1  C   UNL     1       4.796   4.093  17.503  0.00  0.00    +0.000 C 
ATOM      2  O   UNL     1       4.499   2.936  17.222  0.00  0.00    +0.000 OA
ATOM      3  N   UNL     1       4.123   4.850  18.446  0.00  0.00    +0.000 N 
ATOM      4  C   UNL     1       3.102   4.462  19.265  0.00  0.00    +0.000 C 
ATOM      5  N   UNL     1       2.342   5.367  19.778  0.00  0.00    +0.000 NA
ATOM      6  C   UNL     1       1.298   4.717  20.605  0.00  0.00    +0.000 C 
ATOM      7  C   UNL     1       1.157   3.246  20.241  0.00  0.00    +0.000 C 
ATOM      8  S   UNL     1       2.800   2.809  19.668  0.00  0.00    +0.000 S 
ATOM      9  H   UNL     1       4.226   5.849  18.421  0.00  0.00    +0.000 HD
ENDROOT
BRANCH   1  16
ATOM     10  C   UNL     1       7.122   5.888  18.763  0.00  0.00    +0.000 C 
ATOM     11  C   UNL     1       6.882   5.578  17.331  0.00  0.00    +0.000 A 
ATOM     12  N   UNL     1       7.702   6.068  16.396  0.00  0.00    +0.000 NA
ATOM     13  O   UNL     1       7.223   5.602  15.196  0.00  0.00    +0.000 OA
ATOM     14  C   UNL     1       6.123   4.825  15.400  0.00  0.00    +0.000 A 
ATOM     15  C   UNL     1       5.531   4.278  14.164  0.00  0.00    +0.000 C 
ATOM     16  C   UNL     1       5.851   4.767  16.757  0.00  0.00    +0.000 A 
ENDBRANCH   1  16
TORSDOF 1
ENDMDL
