MODEL 1
REMARK VINA RESULT:      -8.8      0.000      0.000
REMARK  Name = 
REMARK  10 active torsions:
REMARK  status: ('A' for Active; 'I' for Inactive)
REMARK    1  A    between atoms: C_1  and  C_2
REMARK    2  A    between atoms: C_2  and  C_3
REMARK    3  A    between atoms: C_5  and  N_6
REMARK    4  A    between atoms: C_7  and  C_9
REMARK    5  A    between atoms: C_12  and  O_13
REMARK    6  A    between atoms: O_13  and  C_14
REMARK    7  A    between atoms: C_18  and  C_19
REMARK    8  A    between atoms: C_25  and  C_26
REMARK    9  A    between atoms: C_32  and  C_33
REMARK   10  A    between atoms: C_32  and  C_34
REMARK                            x       y       z     vdW  Elec       q    Type
REMARK                         _______ _______ _______ _____ _____    ______ ____
ROOT
ATOM      1  C   UNL     1       1.455   8.782  19.524  0.00  0.00    +0.000 A 
ATOM      2  C   UNL     1       1.213   9.566  18.394  0.00  0.00    +0.000 A 
ATOM      3  C   UNL     1       0.416  10.704  18.514  0.00  0.00    +0.000 A 
ATOM      4  C   UNL     1      -0.165  11.035  19.748  0.00  0.00    +0.000 A 
ATOM      5  C   UNL     1       0.038  10.202  20.861  0.00  0.00    +0.000 A 
ATOM      6 CL   UNL     1      -0.790  10.382  22.369  0.00  0.00    +0.000 Cl
ATOM      7  C   UNL     1       0.904   9.120  20.761  0.00  0.00    +0.000 A 
ENDROOT
BRANCH   1   9
ATOM      8  N   UNL     1       2.952   7.318  18.314  0.00  0.00    +0.000 N 
ATOM      9  C   UNL     1       2.229   7.528  19.468  0.00  0.00    +0.000 C 
ATOM     10  O   UNL     1       2.142   6.720  20.383  0.00  0.00    +0.000 OA
ATOM     11  H   UNL     1       2.979   8.013  17.581  0.00  0.00    +0.000 HD
BRANCH   8  16
ATOM     12  C   UNL     1       4.209   3.119  19.172  0.00  0.00    +0.000 C 
ATOM     13  C   UNL     1       3.555   3.583  17.861  0.00  0.00    +0.000 C 
ATOM     14  C   UNL     1       2.580   2.463  17.450  0.00  0.00    +0.000 C 
ATOM     15  C   UNL     1       2.751   4.881  18.035  0.00  0.00    +0.000 C 
ATOM     16  C   UNL     1       3.682   6.080  18.145  0.00  0.00    +0.000 C 
ATOM     17  C   UNL     1       4.571   6.147  16.910  0.00  0.00    +0.000 C 
ATOM     18  C   UNL     1       5.380   4.856  16.755  0.00  0.00    +0.000 C 
ATOM     19  C   UNL     1       6.527   4.755  17.772  0.00  0.00    +0.000 C 
ATOM     20  C   UNL     1       6.044   4.879  15.365  0.00  0.00    +0.000 C 
ATOM     21  O   UNL     1       4.517   3.703  16.794  0.00  0.00    +0.000 OA
ENDBRANCH   8  16
ENDBRANCH   1   9
BRANCH   4  22
ATOM     22  O   UNL     1      -0.978  12.144  19.721  0.00  0.00    +0.000 OA
BRANCH  22  23
ATOM     23  C   UNL     1      -2.295  12.040  19.312  0.00  0.00    +0.000 A 
ATOM     24  C   UNL     1      -2.677  11.401  18.127  0.00  0.00    +0.000 A 
ATOM     25  C   UNL     1      -4.002  11.412  17.725  0.00  0.00    +0.000 A 
ATOM     26  C   UNL     1      -4.970  11.957  18.563  0.00  0.00    +0.000 A 
ATOM     27  C   UNL     1      -4.646  12.526  19.820  0.00  0.00    +0.000 A 
ATOM     28  C   UNL     1      -3.271  12.593  20.171  0.00  0.00    +0.000 A 
BRANCH  27  29
ATOM     29  C   UNL     1      -5.769  12.946  20.710  0.00  0.00    +0.000 A 
ATOM     30  C   UNL     1      -6.595  12.056  21.394  0.00  0.00    +0.000 A 
ATOM     31  C   UNL     1      -7.662  12.548  22.128  0.00  0.00    +0.000 A 
ATOM     32  N   UNL     1      -7.911  13.863  22.264  0.00  0.00    +0.000 NA
ATOM     33  N   UNL     1      -7.103  14.752  21.649  0.00  0.00    +0.000 NA
ATOM     34  C   UNL     1      -6.082  14.297  20.888  0.00  0.00    +0.000 A 
ENDBRANCH  27  29
BRANCH  28  35
ATOM     35  C   UNL     1      -2.810  13.203  21.400  0.00  0.00    +0.000 C 
ATOM     36  N   UNL     1      -2.417  13.669  22.385  0.00  0.00    +0.000 NA
ENDBRANCH  28  35
ENDBRANCH  22  23
ENDBRANCH   4  22
TORSDOF 6
ENDMDL
MODEL 2
REMARK VINA RESULT:      -8.7      1.464      1.930
REMARK  Name = 
REMARK  10 active torsions:
REMARK  status: ('A' for Active; 'I' for Inactive)
REMARK    1  A    between atoms: C_1  and  C_2
REMARK    2  A    between atoms: C_2  and  C_3
REMARK    3  A    between atoms: C_5  and  N_6
REMARK    4  A    between atoms: C_7  and  C_9
REMARK    5  A    between atoms: C_12  and  O_13
REMARK    6  A    between atoms: O_13  and  C_14
REMARK    7  A    between atoms: C_18  and  C_19
REMARK    8  A    between atoms: C_25  and  C_26
REMARK    9  A    between atoms: C_32  and  C_33
REMARK   10  A    between atoms: C_32  and  C_34
REMARK                            x       y       z     vdW  Elec       q    Type
REMARK                         _______ _______ _______ _____ _____    ______ ____
ROOT
ATOM      1  C   UNL     1       0.861   9.012  20.357  0.00  0.00    +0.000 A 
ATOM      2  C   UNL     1       0.003   9.106  21.455  0.00  0.00    +0.000 A 
ATOM      3  C   UNL     1      -0.752  10.265  21.631  0.00  0.00    +0.000 A 
ATOM      4  C   UNL     1      -0.622  11.339  20.735  0.00  0.00    +0.000 A 
ATOM      5  C   UNL     1       0.291  11.252  19.671  0.00  0.00    +0.000 A 
ATOM      6 CL   UNL     1       0.696  12.575  18.634  0.00  0.00    +0.000 Cl
ATOM      7  C   UNL     1       0.975  10.064  19.447  0.00  0.00    +0.000 A 
ENDROOT
BRANCH   1   9
ATOM      8  N   UNL     1       2.347   7.779  18.902  0.00  0.00    +0.000 N 
ATOM      9  C   UNL     1       1.742   7.851  20.138  0.00  0.00    +0.000 C 
ATOM     10  O   UNL     1       1.838   6.990  21.004  0.00  0.00    +0.000 OA
ATOM     11  H   UNL     1       2.223   8.511  18.216  0.00  0.00    +0.000 HD
BRANCH   8  16
ATOM     12  C   UNL     1       3.909   3.604  19.188  0.00  0.00    +0.000 C 
ATOM     13  C   UNL     1       3.236   4.200  17.942  0.00  0.00    +0.000 C 
ATOM     14  C   UNL     1       2.353   3.081  17.356  0.00  0.00    +0.000 C 
ATOM     15  C   UNL     1       2.334   5.397  18.279  0.00  0.00    +0.000 C 
ATOM     16  C   UNL     1       3.171   6.634  18.577  0.00  0.00    +0.000 C 
ATOM     17  C   UNL     1       4.066   6.940  17.383  0.00  0.00    +0.000 C 
ATOM     18  C   UNL     1       4.972   5.748  17.065  0.00  0.00    +0.000 C 
ATOM     19  C   UNL     1       6.112   5.587  18.083  0.00  0.00    +0.000 C 
ATOM     20  C   UNL     1       5.647   6.016  15.707  0.00  0.00    +0.000 C 
ATOM     21  O   UNL     1       4.198   4.541  16.923  0.00  0.00    +0.000 OA
ENDBRANCH   8  16
ENDBRANCH   1   9
BRANCH   4  22
ATOM     22  O   UNL     1      -1.373  12.446  21.052  0.00  0.00    +0.000 OA
BRANCH  22  23
ATOM     23  C   UNL     1      -2.710  12.510  20.708  0.00  0.00    +0.000 A 
ATOM     24  C   UNL     1      -3.198  12.103  19.461  0.00  0.00    +0.000 A 
ATOM     25  C   UNL     1      -4.534  12.280  19.143  0.00  0.00    +0.000 A 
ATOM     26  C   UNL     1      -5.414  12.753  20.111  0.00  0.00    +0.000 A 
ATOM     27  C   UNL     1      -4.988  13.085  21.422  0.00  0.00    +0.000 A 
ATOM     28  C   UNL     1      -3.597  12.989  21.699  0.00  0.00    +0.000 A 
BRANCH  27  29
ATOM     29  C   UNL     1      -6.030  13.438  22.430  0.00  0.00    +0.000 A 
ATOM     30  C   UNL     1      -6.483  14.736  22.660  0.00  0.00    +0.000 A 
ATOM     31  C   UNL     1      -7.393  14.966  23.679  0.00  0.00    +0.000 A 
ATOM     32  N   UNL     1      -7.915  13.979  24.430  0.00  0.00    +0.000 NA
ATOM     33  N   UNL     1      -7.529  12.706  24.202  0.00  0.00    +0.000 NA
ATOM     34  C   UNL     1      -6.606  12.460  23.246  0.00  0.00    +0.000 A 
ENDBRANCH  27  29
BRANCH  28  35
ATOM     35  C   UNL     1      -3.032  13.355  22.980  0.00  0.00    +0.000 C 
ATOM     36  N   UNL     1      -2.594  13.678  24.003  0.00  0.00    +0.000 NA
ENDBRANCH  28  35
ENDBRANCH  22  23
ENDBRANCH   4  22
TORSDOF 6
ENDMDL
MODEL 3
REMARK VINA RESULT:      -8.6      1.061      1.195
REMARK  Name = 
REMARK  10 active torsions:
REMARK  status: ('A' for Active; 'I' for Inactive)
REMARK    1  A    between atoms: C_1  and  C_2
REMARK    2  A    between atoms: C_2  and  C_3
REMARK    3  A    between atoms: C_5  and  N_6
REMARK    4  A    between atoms: C_7  and  C_9
REMARK    5  A    between atoms: C_12  and  O_13
REMARK    6  A    between atoms: O_13  and  C_14
REMARK    7  A    between atoms: C_18  and  C_19
REMARK    8  A    between atoms: C_25  and  C_26
REMARK    9  A    between atoms: C_32  and  C_33
REMARK   10  A    between atoms: C_32  and  C_34
REMARK                            x       y       z     vdW  Elec       q    Type
REMARK                         _______ _______ _______ _____ _____    ______ ____
ROOT
ATOM      1  C   UNL     1       1.055   9.202  20.170  0.00  0.00    +0.000 A 
ATOM      2  C   UNL     1       0.856  10.083  19.105  0.00  0.00    +0.000 A 
ATOM      3  C   UNL     1       0.095  11.234  19.306  0.00  0.00    +0.000 A 
ATOM      4  C   UNL     1      -0.495  11.484  20.556  0.00  0.00    +0.000 A 
ATOM      5  C   UNL     1      -0.337  10.557  21.599  0.00  0.00    +0.000 A 
ATOM      6 CL   UNL     1      -1.183  10.643  23.106  0.00  0.00    +0.000 Cl
ATOM      7  C   UNL     1       0.494   9.458  21.423  0.00  0.00    +0.000 A 
ENDROOT
BRANCH   1   9
ATOM      8  N   UNL     1       2.496   7.779  18.851  0.00  0.00    +0.000 N 
ATOM      9  C   UNL     1       1.788   7.932  20.022  0.00  0.00    +0.000 C 
ATOM     10  O   UNL     1       1.680   7.066  20.881  0.00  0.00    +0.000 OA
ATOM     11  H   UNL     1       2.541   8.521  18.166  0.00  0.00    +0.000 HD
BRANCH   8  16
ATOM     12  C   UNL     1       3.612   3.489  19.401  0.00  0.00    +0.000 C 
ATOM     13  C   UNL     1       2.976   4.068  18.127  0.00  0.00    +0.000 C 
ATOM     14  C   UNL     1       1.966   3.014  17.636  0.00  0.00    +0.000 C 
ATOM     15  C   UNL     1       2.215   5.376  18.396  0.00  0.00    +0.000 C 
ATOM     16  C   UNL     1       3.186   6.533  18.592  0.00  0.00    +0.000 C 
ATOM     17  C   UNL     1       4.079   6.659  17.365  0.00  0.00    +0.000 C 
ATOM     18  C   UNL     1       4.845   5.358  17.116  0.00  0.00    +0.000 C 
ATOM     19  C   UNL     1       5.986   5.145  18.122  0.00  0.00    +0.000 C 
ATOM     20  C   UNL     1       5.511   5.460  15.730  0.00  0.00    +0.000 C 
ATOM     21  O   UNL     1       3.944   4.234  17.071  0.00  0.00    +0.000 OA
ENDBRANCH   8  16
ENDBRANCH   1   9
BRANCH   4  22
ATOM     22  O   UNL     1      -1.270  12.618  20.608  0.00  0.00    +0.000 OA
BRANCH  22  23
ATOM     23  C   UNL     1      -2.632  12.549  20.378  0.00  0.00    +0.000 A 
ATOM     24  C   UNL     1      -3.184  11.943  19.244  0.00  0.00    +0.000 A 
ATOM     25  C   UNL     1      -4.550  11.989  19.024  0.00  0.00    +0.000 A 
ATOM     26  C   UNL     1      -5.385  12.536  19.994  0.00  0.00    +0.000 A 
ATOM     27  C   UNL     1      -4.882  13.074  21.206  0.00  0.00    +0.000 A 
ATOM     28  C   UNL     1      -3.471  13.105  21.370  0.00  0.00    +0.000 A 
BRANCH  27  29
ATOM     29  C   UNL     1      -5.866  13.498  22.246  0.00  0.00    +0.000 A 
ATOM     30  C   UNL     1      -6.330  12.667  23.264  0.00  0.00    +0.000 A 
ATOM     31  C   UNL     1      -7.307  13.135  24.128  0.00  0.00    +0.000 A 
ATOM     32  N   UNL     1      -7.795  14.387  24.071  0.00  0.00    +0.000 NA
ATOM     33  N   UNL     1      -7.334  15.230  23.124  0.00  0.00    +0.000 NA
ATOM     34  C   UNL     1      -6.414  14.784  22.238  0.00  0.00    +0.000 A 
ENDBRANCH  27  29
BRANCH  28  35
ATOM     35  C   UNL     1      -2.836  13.681  22.536  0.00  0.00    +0.000 C 
ATOM     36  N   UNL     1      -2.353  14.164  23.471  0.00  0.00    +0.000 NA
ENDBRANCH  28  35
ENDBRANCH  22  23
ENDBRANCH   4  22
TORSDOF 6
ENDMDL
MODEL 4
REMARK VINA RESULT:      -8.5      1.916      2.865
REMARK  Name = 
REMARK  10 active torsions:
REMARK  status: ('A' for Active; 'I' for Inactive)
REMARK    1  A    between atoms: C_1  and  C_2
REMARK    2  A    between atoms: C_2  and  C_3
REMARK    3  A    between atoms: C_5  and  N_6
REMARK    4  A    between atoms: C_7  and  C_9
REMARK    5  A    between atoms: C_12  and  O_13
REMARK    6  A    between atoms: O_13  and  C_14
REMARK    7  A    between atoms: C_18  and  C_19
REMARK    8  A    between atoms: C_25  and  C_26
REMARK    9  A    between atoms: C_32  and  C_33
REMARK   10  A    between atoms: C_32  and  C_34
REMARK                            x       y       z     vdW  Elec       q    Type
REMARK                         _______ _______ _______ _____ _____    ______ ____
ROOT
ATOM      1  C   UNL     1       0.780   9.616  19.855  0.00  0.00    +0.000 A 
ATOM      2  C   UNL     1      -0.352   9.620  20.674  0.00  0.00    +0.000 A 
ATOM      3  C   UNL     1      -1.143  10.767  20.735  0.00  0.00    +0.000 A 
ATOM      4  C   UNL     1      -0.784  11.915  20.010  0.00  0.00    +0.000 A 
ATOM      5  C   UNL     1       0.390  11.914  19.240  0.00  0.00    +0.000 A 
ATOM      6 CL   UNL     1       1.049  13.321  18.480  0.00  0.00    +0.000 Cl
ATOM      7  C   UNL     1       1.127  10.744  19.110  0.00  0.00    +0.000 A 
ENDROOT
BRANCH   1   9
ATOM      8  N   UNL     1       2.142   8.123  18.529  0.00  0.00    +0.000 N 
ATOM      9  C   UNL     1       1.704   8.470  19.787  0.00  0.00    +0.000 C 
ATOM     10  O   UNL     1       1.976   7.849  20.807  0.00  0.00    +0.000 OA
ATOM     11  H   UNL     1       1.877   8.662  17.715  0.00  0.00    +0.000 HD
BRANCH   8  16
ATOM     12  C   UNL     1       3.790   4.058  19.372  0.00  0.00    +0.000 C 
ATOM     13  C   UNL     1       3.121   4.471  18.052  0.00  0.00    +0.000 C 
ATOM     14  C   UNL     1       2.270   3.265  17.609  0.00  0.00    +0.000 C 
ATOM     15  C   UNL     1       2.189   5.681  18.221  0.00  0.00    +0.000 C 
ATOM     16  C   UNL     1       2.995   6.965  18.363  0.00  0.00    +0.000 C 
ATOM     17  C   UNL     1       3.898   7.133  17.149  0.00  0.00    +0.000 C 
ATOM     18  C   UNL     1       4.834   5.931  16.998  0.00  0.00    +0.000 C 
ATOM     19  C   UNL     1       5.964   5.931  18.039  0.00  0.00    +0.000 C 
ATOM     20  C   UNL     1       5.520   6.036  15.623  0.00  0.00    +0.000 C 
ATOM     21  O   UNL     1       4.088   4.699  17.007  0.00  0.00    +0.000 OA
ENDBRANCH   8  16
ENDBRANCH   1   9
BRANCH   4  22
ATOM     22  O   UNL     1      -1.610  12.997  20.203  0.00  0.00    +0.000 OA
BRANCH  22  23
ATOM     23  C   UNL     1      -1.980  13.380  21.479  0.00  0.00    +0.000 A 
ATOM     24  C   UNL     1      -1.066  13.845  22.432  0.00  0.00    +0.000 A 
ATOM     25  C   UNL     1      -1.485  14.124  23.722  0.00  0.00    +0.000 A 
ATOM     26  C   UNL     1      -2.839  14.055  24.035  0.00  0.00    +0.000 A 
ATOM     27  C   UNL     1      -3.817  13.686  23.078  0.00  0.00    +0.000 A 
ATOM     28  C   UNL     1      -3.357  13.310  21.787  0.00  0.00    +0.000 A 
BRANCH  27  29
ATOM     29  C   UNL     1      -5.254  13.788  23.469  0.00  0.00    +0.000 A 
ATOM     30  C   UNL     1      -6.001  14.962  23.390  0.00  0.00    +0.000 A 
ATOM     31  C   UNL     1      -7.305  14.969  23.858  0.00  0.00    +0.000 A 
ATOM     32  N   UNL     1      -7.916  13.870  24.337  0.00  0.00    +0.000 NA
ATOM     33  N   UNL     1      -7.233  12.707  24.386  0.00  0.00    +0.000 NA
ATOM     34  C   UNL     1      -5.943  12.684  23.980  0.00  0.00    +0.000 A 
ENDBRANCH  27  29
BRANCH  28  35
ATOM     35  C   UNL     1      -4.253  12.858  20.743  0.00  0.00    +0.000 C 
ATOM     36  N   UNL     1      -4.991  12.486  19.932  0.00  0.00    +0.000 NA
ENDBRANCH  28  35
ENDBRANCH  22  23
ENDBRANCH   4  22
TORSDOF 6
ENDMDL
MODEL 5
REMARK VINA RESULT:      -8.4      1.319      2.252
REMARK  Name = 
REMARK  10 active torsions:
REMARK  status: ('A' for Active; 'I' for Inactive)
REMARK    1  A    between atoms: C_1  and  C_2
REMARK    2  A    between atoms: C_2  and  C_3
REMARK    3  A    between atoms: C_5  and  N_6
REMARK    4  A    between atoms: C_7  and  C_9
REMARK    5  A    between atoms: C_12  and  O_13
REMARK    6  A    between atoms: O_13  and  C_14
REMARK    7  A    between atoms: C_18  and  C_19
REMARK    8  A    between atoms: C_25  and  C_26
REMARK    9  A    between atoms: C_32  and  C_33
REMARK   10  A    between atoms: C_32  and  C_34
REMARK                            x       y       z     vdW  Elec       q    Type
REMARK                         _______ _______ _______ _____ _____    ______ ____
ROOT
ATOM      1  C   UNL     1       1.711   9.039  18.880  0.00  0.00    +0.000 A 
ATOM      2  C   UNL     1       1.506  10.244  18.203  0.00  0.00    +0.000 A 
ATOM      3  C   UNL     1       0.778  11.258  18.825  0.00  0.00    +0.000 A 
ATOM      4  C   UNL     1       0.227  11.055  20.100  0.00  0.00    +0.000 A 
ATOM      5  C   UNL     1       0.389   9.816  20.741  0.00  0.00    +0.000 A 
ATOM      6 CL   UNL     1      -0.415   9.371  22.206  0.00  0.00    +0.000 Cl
ATOM      7  C   UNL     1       1.189   8.840  20.159  0.00  0.00    +0.000 A 
ENDROOT
BRANCH   1   9
ATOM      8  N   UNL     1       2.653   6.823  19.097  0.00  0.00    +0.000 N 
ATOM      9  C   UNL     1       2.410   7.895  18.267  0.00  0.00    +0.000 C 
ATOM     10  O   UNL     1       2.798   7.971  17.108  0.00  0.00    +0.000 OA
ATOM     11  H   UNL     1       2.322   6.815  20.052  0.00  0.00    +0.000 HD
BRANCH   8  16
ATOM     12  C   UNL     1       5.343   4.533  16.364  0.00  0.00    +0.000 C 
ATOM     13  C   UNL     1       5.630   4.797  17.850  0.00  0.00    +0.000 C 
ATOM     14  C   UNL     1       7.140   5.088  17.949  0.00  0.00    +0.000 C 
ATOM     15  C   UNL     1       4.868   6.019  18.385  0.00  0.00    +0.000 C 
ATOM     16  C   UNL     1       3.397   5.687  18.596  0.00  0.00    +0.000 C 
ATOM     17  C   UNL     1       3.276   4.504  19.548  0.00  0.00    +0.000 C 
ATOM     18  C   UNL     1       4.024   3.287  18.998  0.00  0.00    +0.000 C 
ATOM     19  C   UNL     1       3.286   2.624  17.825  0.00  0.00    +0.000 C 
ATOM     20  C   UNL     1       4.089   2.228  20.115  0.00  0.00    +0.000 C 
ATOM     21  O   UNL     1       5.382   3.631  18.661  0.00  0.00    +0.000 OA
ENDBRANCH   8  16
ENDBRANCH   1   9
BRANCH   4  22
ATOM     22  O   UNL     1      -0.520  12.106  20.576  0.00  0.00    +0.000 OA
BRANCH  22  23
ATOM     23  C   UNL     1      -1.870  12.194  20.294  0.00  0.00    +0.000 A 
ATOM     24  C   UNL     1      -2.440  11.680  19.123  0.00  0.00    +0.000 A 
ATOM     25  C   UNL     1      -3.783  11.882  18.854  0.00  0.00    +0.000 A 
ATOM     26  C   UNL     1      -4.590  12.495  19.807  0.00  0.00    +0.000 A 
ATOM     27  C   UNL     1      -4.081  12.944  21.052  0.00  0.00    +0.000 A 
ATOM     28  C   UNL     1      -2.683  12.815  21.269  0.00  0.00    +0.000 A 
BRANCH  27  29
ATOM     29  C   UNL     1      -5.053  13.449  22.066  0.00  0.00    +0.000 A 
ATOM     30  C   UNL     1      -5.725  12.633  22.975  0.00  0.00    +0.000 A 
ATOM     31  C   UNL     1      -6.670  13.193  23.819  0.00  0.00    +0.000 A 
ATOM     32  N   UNL     1      -6.935  14.512  23.848  0.00  0.00    +0.000 NA
ATOM     33  N   UNL     1      -6.269  15.334  23.010  0.00  0.00    +0.000 NA
ATOM     34  C   UNL     1      -5.376  14.807  22.143  0.00  0.00    +0.000 A 
ENDBRANCH  27  29
BRANCH  28  35
ATOM     35  C   UNL     1      -2.036  13.288  22.474  0.00  0.00    +0.000 C 
ATOM     36  N   UNL     1      -1.518  13.636  23.450  0.00  0.00    +0.000 NA
ENDBRANCH  28  35
ENDBRANCH  22  23
ENDBRANCH   4  22
TORSDOF 6
ENDMDL
MODEL 6
REMARK VINA RESULT:      -8.2      0.848      1.967
REMARK  Name = 
REMARK  10 active torsions:
REMARK  status: ('A' for Active; 'I' for Inactive)
REMARK    1  A    between atoms: C_1  and  C_2
REMARK    2  A    between atoms: C_2  and  C_3
REMARK    3  A    between atoms: C_5  and  N_6
REMARK    4  A    between atoms: C_7  and  C_9
REMARK    5  A    between atoms: C_12  and  O_13
REMARK    6  A    between atoms: O_13  and  C_14
REMARK    7  A    between atoms: C_18  and  C_19
REMARK    8  A    between atoms: C_25  and  C_26
REMARK    9  A    between atoms: C_32  and  C_33
REMARK   10  A    between atoms: C_32  and  C_34
REMARK                            x       y       z     vdW  Elec       q    Type
REMARK                         _______ _______ _______ _____ _____    ______ ____
ROOT
ATOM      1  C   UNL     1       1.677   8.517  19.164  0.00  0.00    +0.000 A 
ATOM      2  C   UNL     1       1.443   9.272  18.013  0.00  0.00    +0.000 A 
ATOM      3  C   UNL     1       0.620  10.395  18.092  0.00  0.00    +0.000 A 
ATOM      4  C   UNL     1       0.007  10.741  19.307  0.00  0.00    +0.000 A 
ATOM      5  C   UNL     1       0.204   9.936  20.441  0.00  0.00    +0.000 A 
ATOM      6 CL   UNL     1      -0.658  10.132  21.927  0.00  0.00    +0.000 Cl
ATOM      7  C   UNL     1       1.094   8.870  20.382  0.00  0.00    +0.000 A 
ENDROOT
BRANCH   1   9
ATOM      8  N   UNL     1       3.010   6.920  17.933  0.00  0.00    +0.000 N 
ATOM      9  C   UNL     1       2.477   7.279  19.151  0.00  0.00    +0.000 C 
ATOM     10  O   UNL     1       2.570   6.606  20.170  0.00  0.00    +0.000 OA
ATOM     11  H   UNL     1       2.893   7.505  17.117  0.00  0.00    +0.000 HD
BRANCH   8  16
ATOM     12  C   UNL     1       5.935   4.007  16.227  0.00  0.00    +0.000 C 
ATOM     13  C   UNL     1       6.008   4.584  17.649  0.00  0.00    +0.000 C 
ATOM     14  C   UNL     1       7.500   4.846  17.929  0.00  0.00    +0.000 C 
ATOM     15  C   UNL     1       5.252   5.916  17.780  0.00  0.00    +0.000 C 
ATOM     16  C   UNL     1       3.749   5.680  17.814  0.00  0.00    +0.000 C 
ATOM     17  C   UNL     1       3.408   4.741  18.963  0.00  0.00    +0.000 C 
ATOM     18  C   UNL     1       4.152   3.411  18.815  0.00  0.00    +0.000 C 
ATOM     19  C   UNL     1       3.562   2.527  17.706  0.00  0.00    +0.000 C 
ATOM     20  C   UNL     1       3.978   2.623  20.127  0.00  0.00    +0.000 C 
ATOM     21  O   UNL     1       5.565   3.633  18.638  0.00  0.00    +0.000 OA
ENDBRANCH   8  16
ENDBRANCH   1   9
BRANCH   4  22
ATOM     22  O   UNL     1      -0.827  11.832  19.239  0.00  0.00    +0.000 OA
BRANCH  22  23
ATOM     23  C   UNL     1      -2.116  11.701  18.758  0.00  0.00    +0.000 A 
ATOM     24  C   UNL     1      -2.421  11.045  17.560  0.00  0.00    +0.000 A 
ATOM     25  C   UNL     1      -3.721  11.029  17.084  0.00  0.00    +0.000 A 
ATOM     26  C   UNL     1      -4.744  11.565  17.861  0.00  0.00    +0.000 A 
ATOM     27  C   UNL     1      -4.501  12.152  19.128  0.00  0.00    +0.000 A 
ATOM     28  C   UNL     1      -3.149  12.246  19.555  0.00  0.00    +0.000 A 
BRANCH  27  29
ATOM     29  C   UNL     1      -5.679  12.561  19.949  0.00  0.00    +0.000 A 
ATOM     30  C   UNL     1      -6.544  11.662  20.571  0.00  0.00    +0.000 A 
ATOM     31  C   UNL     1      -7.657  12.145  21.240  0.00  0.00    +0.000 A 
ATOM     32  N   UNL     1      -7.916  13.459  21.374  0.00  0.00    +0.000 NA
ATOM     33  N   UNL     1      -7.073  14.355  20.821  0.00  0.00    +0.000 NA
ATOM     34  C   UNL     1      -6.005  13.909  20.121  0.00  0.00    +0.000 A 
ENDBRANCH  27  29
BRANCH  28  35
ATOM     35  C   UNL     1      -2.768  12.876  20.801  0.00  0.00    +0.000 C 
ATOM     36  N   UNL     1      -2.469  13.410  21.785  0.00  0.00    +0.000 NA
ENDBRANCH  28  35
ENDBRANCH  22  23
ENDBRANCH   4  22
TORSDOF 6
ENDMDL
MODEL 7
REMARK VINA RESULT:      -8.2      2.530      3.587
REMARK  Name = 
REMARK  10 active torsions:
REMARK  status: ('A' for Active; 'I' for Inactive)
REMARK    1  A    between atoms: C_1  and  C_2
REMARK    2  A    between atoms: C_2  and  C_3
REMARK    3  A    between atoms: C_5  and  N_6
REMARK    4  A    between atoms: C_7  and  C_9
REMARK    5  A    between atoms: C_12  and  O_13
REMARK    6  A    between atoms: O_13  and  C_14
REMARK    7  A    between atoms: C_18  and  C_19
REMARK    8  A    between atoms: C_25  and  C_26
REMARK    9  A    between atoms: C_32  and  C_33
REMARK   10  A    between atoms: C_32  and  C_34
REMARK                            x       y       z     vdW  Elec       q    Type
REMARK                         _______ _______ _______ _____ _____    ______ ____
ROOT
ATOM      1  C   UNL     1       1.496   8.334  20.046  0.00  0.00    +0.000 A 
ATOM      2  C   UNL     1       1.132   9.173  18.990  0.00  0.00    +0.000 A 
ATOM      3  C   UNL     1       0.358  10.303  19.255  0.00  0.00    +0.000 A 
ATOM      4  C   UNL     1      -0.080  10.572  20.561  0.00  0.00    +0.000 A 
ATOM      5  C   UNL     1       0.244   9.686  21.602  0.00  0.00    +0.000 A 
ATOM      6 CL   UNL     1      -0.409   9.791  23.200  0.00  0.00    +0.000 Cl
ATOM      7  C   UNL     1       1.088   8.611  21.352  0.00  0.00    +0.000 A 
ENDROOT
BRANCH   1   9
ATOM      8  N   UNL     1       2.973   7.004  18.671  0.00  0.00    +0.000 N 
ATOM      9  C   UNL     1       2.253   7.086  19.842  0.00  0.00    +0.000 C 
ATOM     10  O   UNL     1       2.154   6.177  20.656  0.00  0.00    +0.000 OA
ATOM     11  H   UNL     1       3.011   7.780  18.025  0.00  0.00    +0.000 HD
BRANCH   8  16
ATOM     12  C   UNL     1       4.330   2.775  19.152  0.00  0.00    +0.000 C 
ATOM     13  C   UNL     1       3.542   3.307  17.945  0.00  0.00    +0.000 C 
ATOM     14  C   UNL     1       2.534   2.202  17.573  0.00  0.00    +0.000 C 
ATOM     15  C   UNL     1       2.755   4.584  18.275  0.00  0.00    +0.000 C 
ATOM     16  C   UNL     1       3.688   5.785  18.357  0.00  0.00    +0.000 C 
ATOM     17  C   UNL     1       4.444   5.930  17.043  0.00  0.00    +0.000 C 
ATOM     18  C   UNL     1       5.238   4.659  16.731  0.00  0.00    +0.000 C 
ATOM     19  C   UNL     1       6.484   4.511  17.617  0.00  0.00    +0.000 C 
ATOM     20  C   UNL     1       5.753   4.767  15.283  0.00  0.00    +0.000 C 
ATOM     21  O   UNL     1       4.387   3.497  16.793  0.00  0.00    +0.000 OA
ENDBRANCH   8  16
ENDBRANCH   1   9
BRANCH   4  22
ATOM     22  O   UNL     1      -0.885  11.680  20.680  0.00  0.00    +0.000 OA
BRANCH  22  23
ATOM     23  C   UNL     1      -0.381  12.865  21.181  0.00  0.00    +0.000 A 
ATOM     24  C   UNL     1       0.806  13.446  20.718  0.00  0.00    +0.000 A 
ATOM     25  C   UNL     1       1.307  14.585  21.325  0.00  0.00    +0.000 A 
ATOM     26  C   UNL     1       0.567  15.219  22.318  0.00  0.00    +0.000 A 
ATOM     27  C   UNL     1      -0.689  14.726  22.752  0.00  0.00    +0.000 A 
ATOM     28  C   UNL     1      -1.141  13.503  22.187  0.00  0.00    +0.000 A 
BRANCH  27  29
ATOM     29  C   UNL     1      -1.475  15.557  23.712  0.00  0.00    +0.000 A 
ATOM     30  C   UNL     1      -2.466  16.460  23.331  0.00  0.00    +0.000 A 
ATOM     31  C   UNL     1      -3.077  17.244  24.295  0.00  0.00    +0.000 A 
ATOM     32  N   UNL     1      -2.800  17.137  25.608  0.00  0.00    +0.000 NA
ATOM     33  N   UNL     1      -1.876  16.241  26.013  0.00  0.00    +0.000 NA
ATOM     34  C   UNL     1      -1.231  15.496  25.087  0.00  0.00    +0.000 A 
ENDBRANCH  27  29
BRANCH  28  35
ATOM     35  C   UNL     1      -2.379  12.870  22.591  0.00  0.00    +0.000 C 
ATOM     36  N   UNL     1      -3.376  12.358  22.882  0.00  0.00    +0.000 NA
ENDBRANCH  28  35
ENDBRANCH  22  23
ENDBRANCH   4  22
TORSDOF 6
ENDMDL
MODEL 8
REMARK VINA RESULT:      -8.1      1.728      2.492
REMARK  Name = 
REMARK  10 active torsions:
REMARK  status: ('A' for Active; 'I' for Inactive)
REMARK    1  A    between atoms: C_1  and  C_2
REMARK    2  A    between atoms: C_2  and  C_3
REMARK    3  A    between atoms: C_5  and  N_6
REMARK    4  A    between atoms: C_7  and  C_9
REMARK    5  A    between atoms: C_12  and  O_13
REMARK    6  A    between atoms: O_13  and  C_14
REMARK    7  A    between atoms: C_18  and  C_19
REMARK    8  A    between atoms: C_25  and  C_26
REMARK    9  A    between atoms: C_32  and  C_33
REMARK   10  A    between atoms: C_32  and  C_34
REMARK                            x       y       z     vdW  Elec       q    Type
REMARK                         _______ _______ _______ _____ _____    ______ ____
ROOT
ATOM      1  C   UNL     1       1.051   8.698  20.620  0.00  0.00    +0.000 A 
ATOM      2  C   UNL     1       0.377   9.024  21.799  0.00  0.00    +0.000 A 
ATOM      3  C   UNL     1      -0.160  10.303  21.944  0.00  0.00    +0.000 A 
ATOM      4  C   UNL     1       0.006  11.261  20.931  0.00  0.00    +0.000 A 
ATOM      5  C   UNL     1       0.740  10.936  19.778  0.00  0.00    +0.000 A 
ATOM      6 CL   UNL     1       1.195  12.082  18.565  0.00  0.00    +0.000 Cl
ATOM      7  C   UNL     1       1.197   9.636  19.597  0.00  0.00    +0.000 A 
ENDROOT
BRANCH   1   9
ATOM      8  N   UNL     1       2.514   7.291  19.306  0.00  0.00    +0.000 N 
ATOM      9  C   UNL     1       1.707   7.393  20.418  0.00  0.00    +0.000 C 
ATOM     10  O   UNL     1       1.456   6.465  21.176  0.00  0.00    +0.000 OA
ATOM     11  H   UNL     1       2.677   8.086  18.703  0.00  0.00    +0.000 HD
BRANCH   8  16
ATOM     12  C   UNL     1       3.514   2.961  19.753  0.00  0.00    +0.000 C 
ATOM     13  C   UNL     1       2.809   3.572  18.532  0.00  0.00    +0.000 C 
ATOM     14  C   UNL     1       1.729   2.557  18.111  0.00  0.00    +0.000 C 
ATOM     15  C   UNL     1       2.116   4.903  18.861  0.00  0.00    +0.000 C 
ATOM     16  C   UNL     1       3.139   6.024  18.992  0.00  0.00    +0.000 C 
ATOM     17  C   UNL     1       3.944   6.128  17.704  0.00  0.00    +0.000 C 
ATOM     18  C   UNL     1       4.644   4.802  17.394  0.00  0.00    +0.000 C 
ATOM     19  C   UNL     1       5.847   4.542  18.314  0.00  0.00    +0.000 C 
ATOM     20  C   UNL     1       5.211   4.891  15.964  0.00  0.00    +0.000 C 
ATOM     21  O   UNL     1       3.703   3.711  17.410  0.00  0.00    +0.000 OA
ENDBRANCH   8  16
ENDBRANCH   1   9
BRANCH   4  22
ATOM     22  O   UNL     1      -0.516  12.499  21.219  0.00  0.00    +0.000 OA
BRANCH  22  23
ATOM     23  C   UNL     1      -1.773  12.618  21.782  0.00  0.00    +0.000 A 
ATOM     24  C   UNL     1      -1.979  12.850  23.147  0.00  0.00    +0.000 A 
ATOM     25  C   UNL     1      -3.263  12.866  23.665  0.00  0.00    +0.000 A 
ATOM     26  C   UNL     1      -4.353  12.769  22.806  0.00  0.00    +0.000 A 
ATOM     27  C   UNL     1      -4.198  12.633  21.403  0.00  0.00    +0.000 A 
ATOM     28  C   UNL     1      -2.874  12.521  20.901  0.00  0.00    +0.000 A 
BRANCH  27  29
ATOM     29  C   UNL     1      -5.424  12.690  20.554  0.00  0.00    +0.000 A 
ATOM     30  C   UNL     1      -6.208  11.581  20.242  0.00  0.00    +0.000 A 
ATOM     31  C   UNL     1      -7.279  11.728  19.375  0.00  0.00    +0.000 A 
ATOM     32  N   UNL     1      -7.642  12.916  18.858  0.00  0.00    +0.000 NA
ATOM     33  N   UNL     1      -6.930  14.017  19.177  0.00  0.00    +0.000 NA
ATOM     34  C   UNL     1      -5.851  13.893  19.983  0.00  0.00    +0.000 A 
ENDBRANCH  27  29
BRANCH  28  35
ATOM     35  C   UNL     1      -2.589  12.321  19.496  0.00  0.00    +0.000 C 
ATOM     36  N   UNL     1      -2.369  12.193  18.366  0.00  0.00    +0.000 NA
ENDBRANCH  28  35
ENDBRANCH  22  23
ENDBRANCH   4  22
TORSDOF 6
ENDMDL
MODEL 9
REMARK VINA RESULT:      -8.1      3.394      4.747
REMARK  Name = 
REMARK  10 active torsions:
REMARK  status: ('A' for Active; 'I' for Inactive)
REMARK    1  A    between atoms: C_1  and  C_2
REMARK    2  A    between atoms: C_2  and  C_3
REMARK    3  A    between atoms: C_5  and  N_6
REMARK    4  A    between atoms: C_7  and  C_9
REMARK    5  A    between atoms: C_12  and  O_13
REMARK    6  A    between atoms: O_13  and  C_14
REMARK    7  A    between atoms: C_18  and  C_19
REMARK    8  A    between atoms: C_25  and  C_26
REMARK    9  A    between atoms: C_32  and  C_33
REMARK   10  A    between atoms: C_32  and  C_34
REMARK                            x       y       z     vdW  Elec       q    Type
REMARK                         _______ _______ _______ _____ _____    ______ ____
ROOT
ATOM      1  C   UNL     1       1.408   8.467  20.033  0.00  0.00    +0.000 A 
ATOM      2  C   UNL     1       1.073   9.303  18.965  0.00  0.00    +0.000 A 
ATOM      3  C   UNL     1       0.255  10.408  19.196  0.00  0.00    +0.000 A 
ATOM      4  C   UNL     1      -0.254  10.657  20.480  0.00  0.00    +0.000 A 
ATOM      5  C   UNL     1       0.041   9.773  21.531  0.00  0.00    +0.000 A 
ATOM      6 CL   UNL     1      -0.693   9.848  23.095  0.00  0.00    +0.000 Cl
ATOM      7  C   UNL     1       0.927   8.724  21.319  0.00  0.00    +0.000 A 
ENDROOT
BRANCH   1   9
ATOM      8  N   UNL     1       2.862   7.115  18.655  0.00  0.00    +0.000 N 
ATOM      9  C   UNL     1       2.209   7.243  19.861  0.00  0.00    +0.000 C 
ATOM     10  O   UNL     1       2.202   6.385  20.734  0.00  0.00    +0.000 OA
ATOM     11  H   UNL     1       2.825   7.849  17.960  0.00  0.00    +0.000 HD
BRANCH   8  16
ATOM     12  C   UNL     1       4.244   2.899  19.172  0.00  0.00    +0.000 C 
ATOM     13  C   UNL     1       3.530   3.436  17.921  0.00  0.00    +0.000 C 
ATOM     14  C   UNL     1       2.565   2.323  17.469  0.00  0.00    +0.000 C 
ATOM     15  C   UNL     1       2.705   4.699  18.215  0.00  0.00    +0.000 C 
ATOM     16  C   UNL     1       3.613   5.910  18.373  0.00  0.00    +0.000 C 
ATOM     17  C   UNL     1       4.453   6.083  17.114  0.00  0.00    +0.000 C 
ATOM     18  C   UNL     1       5.284   4.827  16.840  0.00  0.00    +0.000 C 
ATOM     19  C   UNL     1       6.471   4.685  17.805  0.00  0.00    +0.000 C 
ATOM     20  C   UNL     1       5.892   4.962  15.431  0.00  0.00    +0.000 C 
ATOM     21  O   UNL     1       4.448   3.653  16.831  0.00  0.00    +0.000 OA
ENDBRANCH   8  16
ENDBRANCH   1   9
BRANCH   4  22
ATOM     22  O   UNL     1      -1.096  11.740  20.565  0.00  0.00    +0.000 OA
BRANCH  22  23
ATOM     23  C   UNL     1      -0.616  12.975  20.960  0.00  0.00    +0.000 A 
ATOM     24  C   UNL     1      -0.427  13.327  22.301  0.00  0.00    +0.000 A 
ATOM     25  C   UNL     1      -0.031  14.610  22.636  0.00  0.00    +0.000 A 
ATOM     26  C   UNL     1       0.293  15.515  21.630  0.00  0.00    +0.000 A 
ATOM     27  C   UNL     1       0.215  15.175  20.256  0.00  0.00    +0.000 A 
ATOM     28  C   UNL     1      -0.286  13.886  19.931  0.00  0.00    +0.000 A 
BRANCH  27  29
ATOM     29  C   UNL     1       0.728  16.161  19.259  0.00  0.00    +0.000 A 
ATOM     30  C   UNL     1      -0.081  17.060  18.566  0.00  0.00    +0.000 A 
ATOM     31  C   UNL     1       0.486  17.876  17.600  0.00  0.00    +0.000 A 
ATOM     32  N   UNL     1       1.804  17.887  17.334  0.00  0.00    +0.000 NA
ATOM     33  N   UNL     1       2.620  17.059  18.020  0.00  0.00    +0.000 NA
ATOM     34  C   UNL     1       2.086  16.218  18.934  0.00  0.00    +0.000 A 
ENDBRANCH  27  29
BRANCH  28  35
ATOM     35  C   UNL     1      -0.467  13.443  18.564  0.00  0.00    +0.000 C 
ATOM     36  N   UNL     1      -0.644  13.081  17.478  0.00  0.00    +0.000 NA
ENDBRANCH  28  35
ENDBRANCH  22  23
ENDBRANCH   4  22
TORSDOF 6
ENDMDL
