MODEL 1
REMARK VINA RESULT:      -8.8      0.000      0.000
REMARK  Name = 
REMARK  5 active torsions:
REMARK  status: ('A' for Active; 'I' for Inactive)
REMARK    1  A    between atoms: C_4  and  C_5
REMARK    2  A    between atoms: C_5  and  C_6
REMARK    3  A    between atoms: C_6  and  C_7
REMARK    4  A    between atoms: C_7  and  N_8
REMARK    5  A    between atoms: C_11  and  C_12
REMARK                            x       y       z     vdW  Elec       q    Type
REMARK                         _______ _______ _______ _____ _____    ______ ____
ROOT
ATOM      1  C   UNL     1       1.890   5.502  20.936  0.00  0.00    +0.000 C 
ENDROOT
BRANCH   1   2
ATOM      2  C   UNL     1       2.370   6.564  19.950  0.00  0.00    +0.000 C 
BRANCH   2   6
ATOM      3  O   UNL     1       1.009   9.585  23.305  0.00  0.00    +0.000 OA
ATOM      4  C   UNL     1       1.086   9.339  22.110  0.00  0.00    +0.000 A 
ATOM      5  N   UNL     1       1.642   8.180  21.635  0.00  0.00    +0.000 N 
ATOM      6  C   UNL     1       1.752   7.890  20.301  0.00  0.00    +0.000 A 
ATOM      7  N   UNL     1       1.320   8.671  19.363  0.00  0.00    +0.000 NA
ATOM      8  C   UNL     1       0.731   9.885  19.743  0.00  0.00    +0.000 A 
ATOM      9  C   UNL     1       0.272  10.744  18.746  0.00  0.00    +0.000 A 
ATOM     10  C   UNL     1      -0.311  11.971  19.076  0.00  0.00    +0.000 A 
ATOM     11  C   UNL     1      -0.444  12.345  20.414  0.00  0.00    +0.000 A 
ATOM     12  C   UNL     1       0.004  11.493  21.424  0.00  0.00    +0.000 A 
ATOM     13  C   UNL     1       0.589  10.272  21.080  0.00  0.00    +0.000 A 
ATOM     14  H   UNL     1       1.997   7.540  22.332  0.00  0.00    +0.000 HD
ENDBRANCH   2   6
ENDBRANCH   1   2
BRANCH   1  15
ATOM     15  C   UNL     1       0.935   4.502  20.287  0.00  0.00    +0.000 C 
BRANCH  15  16
ATOM     16  N   UNL     1       1.586   3.547  19.365  0.00  0.00    +0.000 NA
ATOM     17  C   UNL     1       1.758   4.137  18.028  0.00  0.00    +0.000 C 
ATOM     18  C   UNL     1       2.590   3.264  17.087  0.00  0.00    +0.000 C 
ATOM     19  C   UNL     1       3.974   2.942  17.672  0.00  0.00    +0.000 C 
ATOM     20  C   UNL     1       3.738   2.277  19.038  0.00  0.00    +0.000 C 
ATOM     21  C   UNL     1       2.858   3.118  19.967  0.00  0.00    +0.000 C 
BRANCH  19  22
ATOM     22  C   UNL     1       4.928   4.139  17.648  0.00  0.00    +0.000 A 
ATOM     23  C   UNL     1       5.709   4.526  18.749  0.00  0.00    +0.000 A 
ATOM     24  C   UNL     1       6.544   5.646  18.694  0.00  0.00    +0.000 A 
ATOM     25  C   UNL     1       6.647   6.373  17.516  0.00  0.00    +0.000 A 
ATOM     26 CL   UNL     1       7.691   7.738  17.447  0.00  0.00    +0.000 Cl
ATOM     27  C   UNL     1       5.920   5.989  16.395  0.00  0.00    +0.000 A 
ATOM     28  C   UNL     1       5.067   4.881  16.462  0.00  0.00    +0.000 A 
ENDBRANCH  19  22
ENDBRANCH  15  16
ENDBRANCH   1  15
TORSDOF 5
ENDMDL
MODEL 2
REMARK VINA RESULT:      -8.8      5.907      7.935
REMARK  Name = 
REMARK  5 active torsions:
REMARK  status: ('A' for Active; 'I' for Inactive)
REMARK    1  A    between atoms: C_4  and  C_5
REMARK    2  A    between atoms: C_5  and  C_6
REMARK    3  A    between atoms: C_6  and  C_7
REMARK    4  A    between atoms: C_7  and  N_8
REMARK    5  A    between atoms: C_11  and  C_12
REMARK                            x       y       z     vdW  Elec       q    Type
REMARK                         _______ _______ _______ _____ _____    ______ ____
ROOT
ATOM      1  C   UNL     1       8.224   8.581  17.975  0.00  0.00    +0.000 C 
ENDROOT
BRANCH   1   2
ATOM      2  C   UNL     1       9.032   9.194  19.115  0.00  0.00    +0.000 C 
BRANCH   2   6
ATOM      3  O   UNL     1       7.758  13.204  16.987  0.00  0.00    +0.000 OA
ATOM      4  C   UNL     1       8.601  12.609  17.643  0.00  0.00    +0.000 A 
ATOM      5  N   UNL     1       8.436  11.307  18.038  0.00  0.00    +0.000 N 
ATOM      6  C   UNL     1       9.360  10.625  18.785  0.00  0.00    +0.000 A 
ATOM      7  N   UNL     1      10.485  11.137  19.169  0.00  0.00    +0.000 NA
ATOM      8  C   UNL     1      10.752  12.467  18.815  0.00  0.00    +0.000 A 
ATOM      9  C   UNL     1      11.954  13.039  19.233  0.00  0.00    +0.000 A 
ATOM     10  C   UNL     1      12.258  14.365  18.915  0.00  0.00    +0.000 A 
ATOM     11  C   UNL     1      11.360  15.130  18.169  0.00  0.00    +0.000 A 
ATOM     12  C   UNL     1      10.157  14.570  17.739  0.00  0.00    +0.000 A 
ATOM     13  C   UNL     1       9.863  13.245  18.067  0.00  0.00    +0.000 A 
ATOM     14  H   UNL     1       7.569  10.866  17.762  0.00  0.00    +0.000 HD
ENDBRANCH   2   6
ENDBRANCH   1   2
BRANCH   1  15
ATOM     15  C   UNL     1       7.922   7.102  18.212  0.00  0.00    +0.000 C 
BRANCH  15  16
ATOM     16  N   UNL     1       7.337   6.405  17.047  0.00  0.00    +0.000 NA
ATOM     17  C   UNL     1       7.245   4.956  17.288  0.00  0.00    +0.000 C 
ATOM     18  C   UNL     1       6.480   4.210  16.195  0.00  0.00    +0.000 C 
ATOM     19  C   UNL     1       5.064   4.774  15.995  0.00  0.00    +0.000 C 
ATOM     20  C   UNL     1       5.218   6.272  15.689  0.00  0.00    +0.000 C 
ATOM     21  C   UNL     1       6.032   7.017  16.750  0.00  0.00    +0.000 C 
BRANCH  19  22
ATOM     22  C   UNL     1       4.105   4.401  17.129  0.00  0.00    +0.000 A 
ATOM     23  C   UNL     1       3.238   5.320  17.742  0.00  0.00    +0.000 A 
ATOM     24  C   UNL     1       2.402   4.944  18.796  0.00  0.00    +0.000 A 
ATOM     25  C   UNL     1       2.384   3.624  19.227  0.00  0.00    +0.000 A 
ATOM     26 CL   UNL     1       1.339   3.161  20.512  0.00  0.00    +0.000 Cl
ATOM     27  C   UNL     1       3.198   2.681  18.612  0.00  0.00    +0.000 A 
ATOM     28  C   UNL     1       4.052   3.066  17.572  0.00  0.00    +0.000 A 
ENDBRANCH  19  22
ENDBRANCH  15  16
ENDBRANCH   1  15
TORSDOF 5
ENDMDL
MODEL 3
REMARK VINA RESULT:      -8.7      0.613      1.086
REMARK  Name = 
REMARK  5 active torsions:
REMARK  status: ('A' for Active; 'I' for Inactive)
REMARK    1  A    between atoms: C_4  and  C_5
REMARK    2  A    between atoms: C_5  and  C_6
REMARK    3  A    between atoms: C_6  and  C_7
REMARK    4  A    between atoms: C_7  and  N_8
REMARK    5  A    between atoms: C_11  and  C_12
REMARK                            x       y       z     vdW  Elec       q    Type
REMARK                         _______ _______ _______ _____ _____    ______ ____
ROOT
ATOM      1  C   UNL     1       1.928   5.864  20.892  0.00  0.00    +0.000 C 
ENDROOT
BRANCH   1   2
ATOM      2  C   UNL     1       2.180   7.065  19.984  0.00  0.00    +0.000 C 
BRANCH   2   6
ATOM      3  O   UNL     1       0.710   9.535  23.721  0.00  0.00    +0.000 OA
ATOM      4  C   UNL     1       0.729   9.422  22.504  0.00  0.00    +0.000 A 
ATOM      5  N   UNL     1       1.386   8.397  21.874  0.00  0.00    +0.000 N 
ATOM      6  C   UNL     1       1.432   8.259  20.512  0.00  0.00    +0.000 A 
ATOM      7  N   UNL     1       0.843   9.068  19.692  0.00  0.00    +0.000 NA
ATOM      8  C   UNL     1       0.140  10.152  20.236  0.00  0.00    +0.000 A 
ATOM      9  C   UNL     1      -0.491  11.041  19.367  0.00  0.00    +0.000 A 
ATOM     10  C   UNL     1      -1.192  12.144  19.863  0.00  0.00    +0.000 A 
ATOM     11  C   UNL     1      -1.272  12.361  21.239  0.00  0.00    +0.000 A 
ATOM     12  C   UNL     1      -0.653  11.477  22.122  0.00  0.00    +0.000 A 
ATOM     13  C   UNL     1       0.049  10.382  21.613  0.00  0.00    +0.000 A 
ATOM     14  H   UNL     1       1.864   7.741  22.476  0.00  0.00    +0.000 HD
ENDBRANCH   2   6
ENDBRANCH   1   2
BRANCH   1  15
ATOM     15  C   UNL     1       1.003   4.835  20.244  0.00  0.00    +0.000 C 
BRANCH  15  16
ATOM     16  N   UNL     1       1.691   3.860  19.370  0.00  0.00    +0.000 NA
ATOM     17  C   UNL     1       1.842   4.388  18.005  0.00  0.00    +0.000 C 
ATOM     18  C   UNL     1       2.708   3.502  17.109  0.00  0.00    +0.000 C 
ATOM     19  C   UNL     1       4.103   3.263  17.709  0.00  0.00    +0.000 C 
ATOM     20  C   UNL     1       3.892   2.659  19.106  0.00  0.00    +0.000 C 
ATOM     21  C   UNL     1       2.979   3.512  19.992  0.00  0.00    +0.000 C 
BRANCH  19  22
ATOM     22  C   UNL     1       5.010   4.494  17.624  0.00  0.00    +0.000 A 
ATOM     23  C   UNL     1       4.799   5.548  16.720  0.00  0.00    +0.000 A 
ATOM     24  C   UNL     1       5.670   6.638  16.654  0.00  0.00    +0.000 A 
ATOM     25  C   UNL     1       6.747   6.717  17.527  0.00  0.00    +0.000 A 
ATOM     26 CL   UNL     1       7.805   8.070  17.457  0.00  0.00    +0.000 Cl
ATOM     27  C   UNL     1       6.957   5.711  18.464  0.00  0.00    +0.000 A 
ATOM     28  C   UNL     1       6.096   4.609  18.511  0.00  0.00    +0.000 A 
ENDBRANCH  19  22
ENDBRANCH  15  16
ENDBRANCH   1  15
TORSDOF 5
ENDMDL
MODEL 4
REMARK VINA RESULT:      -8.6      1.273      1.803
REMARK  Name = 
REMARK  5 active torsions:
REMARK  status: ('A' for Active; 'I' for Inactive)
REMARK    1  A    between atoms: C_4  and  C_5
REMARK    2  A    between atoms: C_5  and  C_6
REMARK    3  A    between atoms: C_6  and  C_7
REMARK    4  A    between atoms: C_7  and  N_8
REMARK    5  A    between atoms: C_11  and  C_12
REMARK                            x       y       z     vdW  Elec       q    Type
REMARK                         _______ _______ _______ _____ _____    ______ ____
ROOT
ATOM      1  C   UNL     1       1.953   5.304  20.996  0.00  0.00    +0.000 C 
ENDROOT
BRANCH   1   2
ATOM      2  C   UNL     1       2.628   6.180  19.944  0.00  0.00    +0.000 C 
BRANCH   2   6
ATOM      3  O   UNL     1       1.639  10.097  17.513  0.00  0.00    +0.000 OA
ATOM      4  C   UNL     1       1.537   9.485  18.566  0.00  0.00    +0.000 A 
ATOM      5  N   UNL     1       2.075   8.237  18.743  0.00  0.00    +0.000 N 
ATOM      6  C   UNL     1       1.960   7.528  19.910  0.00  0.00    +0.000 A 
ATOM      7  N   UNL     1       1.353   7.977  20.961  0.00  0.00    +0.000 NA
ATOM      8  C   UNL     1       0.768   9.248  20.885  0.00  0.00    +0.000 A 
ATOM      9  C   UNL     1       0.098   9.742  22.004  0.00  0.00    +0.000 A 
ATOM     10  C   UNL     1      -0.512  10.998  21.970  0.00  0.00    +0.000 A 
ATOM     11  C   UNL     1      -0.452  11.775  20.813  0.00  0.00    +0.000 A 
ATOM     12  C   UNL     1       0.220  11.298  19.687  0.00  0.00    +0.000 A 
ATOM     13  C   UNL     1       0.821  10.039  19.732  0.00  0.00    +0.000 A 
ATOM     14  H   UNL     1       2.556   7.845  17.946  0.00  0.00    +0.000 HD
ENDBRANCH   2   6
ENDBRANCH   1   2
BRANCH   1  15
ATOM     15  C   UNL     1       0.995   4.290  20.375  0.00  0.00    +0.000 C 
BRANCH  15  16
ATOM     16  N   UNL     1       1.630   3.357  19.418  0.00  0.00    +0.000 NA
ATOM     17  C   UNL     1       1.748   3.967  18.084  0.00  0.00    +0.000 C 
ATOM     18  C   UNL     1       2.563   3.121  17.105  0.00  0.00    +0.000 C 
ATOM     19  C   UNL     1       3.970   2.814  17.640  0.00  0.00    +0.000 C 
ATOM     20  C   UNL     1       3.791   2.127  19.003  0.00  0.00    +0.000 C 
ATOM     21  C   UNL     1       2.929   2.942  19.972  0.00  0.00    +0.000 C 
BRANCH  19  22
ATOM     22  C   UNL     1       4.904   4.027  17.601  0.00  0.00    +0.000 A 
ATOM     23  C   UNL     1       5.745   4.390  18.665  0.00  0.00    +0.000 A 
ATOM     24  C   UNL     1       6.558   5.524  18.599  0.00  0.00    +0.000 A 
ATOM     25  C   UNL     1       6.579   6.294  17.444  0.00  0.00    +0.000 A 
ATOM     26 CL   UNL     1       7.596   7.677  17.359  0.00  0.00    +0.000 Cl
ATOM     27  C   UNL     1       5.791   5.936  16.356  0.00  0.00    +0.000 A 
ATOM     28  C   UNL     1       4.960   4.812  16.435  0.00  0.00    +0.000 A 
ENDBRANCH  19  22
ENDBRANCH  15  16
ENDBRANCH   1  15
TORSDOF 5
ENDMDL
MODEL 5
REMARK VINA RESULT:      -8.3      5.752      7.745
REMARK  Name = 
REMARK  5 active torsions:
REMARK  status: ('A' for Active; 'I' for Inactive)
REMARK    1  A    between atoms: C_4  and  C_5
REMARK    2  A    between atoms: C_5  and  C_6
REMARK    3  A    between atoms: C_6  and  C_7
REMARK    4  A    between atoms: C_7  and  N_8
REMARK    5  A    between atoms: C_11  and  C_12
REMARK                            x       y       z     vdW  Elec       q    Type
REMARK                         _______ _______ _______ _____ _____    ______ ____
ROOT
ATOM      1  C   UNL     1       8.075   8.846  17.544  0.00  0.00    +0.000 C 
ENDROOT
BRANCH   1   2
ATOM      2  C   UNL     1       8.750   8.950  18.909  0.00  0.00    +0.000 C 
BRANCH   2   6
ATOM      3  O   UNL     1       9.886  12.505  21.790  0.00  0.00    +0.000 OA
ATOM      4  C   UNL     1       9.862  12.074  20.647  0.00  0.00    +0.000 A 
ATOM      5  N   UNL     1       9.369  10.832  20.342  0.00  0.00    +0.000 N 
ATOM      6  C   UNL     1       9.345  10.322  19.071  0.00  0.00    +0.000 A 
ATOM      7  N   UNL     1       9.765  10.973  18.034  0.00  0.00    +0.000 NA
ATOM      8  C   UNL     1      10.288  12.258  18.236  0.00  0.00    +0.000 A 
ATOM      9  C   UNL     1      10.757  12.968  17.131  0.00  0.00    +0.000 A 
ATOM     10  C   UNL     1      11.299  14.247  17.286  0.00  0.00    +0.000 A 
ATOM     11  C   UNL     1      11.372  14.828  18.553  0.00  0.00    +0.000 A 
ATOM     12  C   UNL     1      10.901  14.132  19.667  0.00  0.00    +0.000 A 
ATOM     13  C   UNL     1      10.366  12.854  19.499  0.00  0.00    +0.000 A 
ATOM     14  H   UNL     1       9.033  10.285  21.123  0.00  0.00    +0.000 HD
ENDBRANCH   2   6
ENDBRANCH   1   2
BRANCH   1  15
ATOM     15  C   UNL     1       6.777   8.042  17.602  0.00  0.00    +0.000 C 
BRANCH  15  16
ATOM     16  N   UNL     1       6.816   6.766  16.855  0.00  0.00    +0.000 NA
ATOM     17  C   UNL     1       7.041   5.629  17.761  0.00  0.00    +0.000 C 
ATOM     18  C   UNL     1       6.907   4.271  17.069  0.00  0.00    +0.000 C 
ATOM     19  C   UNL     1       5.539   4.104  16.388  0.00  0.00    +0.000 C 
ATOM     20  C   UNL     1       5.379   5.281  15.412  0.00  0.00    +0.000 C 
ATOM     21  C   UNL     1       5.568   6.644  16.085  0.00  0.00    +0.000 C 
BRANCH  19  22
ATOM     22  C   UNL     1       4.398   3.878  17.383  0.00  0.00    +0.000 A 
ATOM     23  C   UNL     1       3.044   3.855  17.013  0.00  0.00    +0.000 A 
ATOM     24  C   UNL     1       2.031   3.677  17.959  0.00  0.00    +0.000 A 
ATOM     25  C   UNL     1       2.359   3.472  19.292  0.00  0.00    +0.000 A 
ATOM     26 CL   UNL     1       1.111   3.233  20.451  0.00  0.00    +0.000 Cl
ATOM     27  C   UNL     1       3.693   3.446  19.684  0.00  0.00    +0.000 A 
ATOM     28  C   UNL     1       4.703   3.648  18.736  0.00  0.00    +0.000 A 
ENDBRANCH  19  22
ENDBRANCH  15  16
ENDBRANCH   1  15
TORSDOF 5
ENDMDL
MODEL 6
REMARK VINA RESULT:      -8.2      6.058      7.841
REMARK  Name = 
REMARK  5 active torsions:
REMARK  status: ('A' for Active; 'I' for Inactive)
REMARK    1  A    between atoms: C_4  and  C_5
REMARK    2  A    between atoms: C_5  and  C_6
REMARK    3  A    between atoms: C_6  and  C_7
REMARK    4  A    between atoms: C_7  and  N_8
REMARK    5  A    between atoms: C_11  and  C_12
REMARK                            x       y       z     vdW  Elec       q    Type
REMARK                         _______ _______ _______ _____ _____    ______ ____
ROOT
ATOM      1  C   UNL     1       8.096   9.010  17.511  0.00  0.00    +0.000 C 
ENDROOT
BRANCH   1   2
ATOM      2  C   UNL     1       8.810   9.121  18.855  0.00  0.00    +0.000 C 
BRANCH   2   6
ATOM      3  O   UNL     1      10.939  12.882  16.970  0.00  0.00    +0.000 OA
ATOM      4  C   UNL     1      10.432  12.374  17.959  0.00  0.00    +0.000 A 
ATOM      5  N   UNL     1       9.906  11.109  17.944  0.00  0.00    +0.000 N 
ATOM      6  C   UNL     1       9.321  10.525  19.037  0.00  0.00    +0.000 A 
ATOM      7  N   UNL     1       9.230  11.103  20.192  0.00  0.00    +0.000 NA
ATOM      8  C   UNL     1       9.742  12.402  20.314  0.00  0.00    +0.000 A 
ATOM      9  C   UNL     1       9.641  13.044  21.548  0.00  0.00    +0.000 A 
ATOM     10  C   UNL     1      10.126  14.344  21.714  0.00  0.00    +0.000 A 
ATOM     11  C   UNL     1      10.721  15.012  20.644  0.00  0.00    +0.000 A 
ATOM     12  C   UNL     1      10.835  14.381  19.405  0.00  0.00    +0.000 A 
ATOM     13  C   UNL     1      10.343  13.083  19.251  0.00  0.00    +0.000 A 
ATOM     14  H   UNL     1       9.951  10.620  17.061  0.00  0.00    +0.000 HD
ENDBRANCH   2   6
ENDBRANCH   1   2
BRANCH   1  15
ATOM     15  C   UNL     1       6.819   8.175  17.604  0.00  0.00    +0.000 C 
BRANCH  15  16
ATOM     16  N   UNL     1       6.891   6.872  16.908  0.00  0.00    +0.000 NA
ATOM     17  C   UNL     1       7.114   5.775  17.863  0.00  0.00    +0.000 C 
ATOM     18  C   UNL     1       7.013   4.389  17.224  0.00  0.00    +0.000 C 
ATOM     19  C   UNL     1       5.661   4.175  16.525  0.00  0.00    +0.000 C 
ATOM     20  C   UNL     1       5.502   5.310  15.500  0.00  0.00    +0.000 C 
ATOM     21  C   UNL     1       5.660   6.701  16.121  0.00  0.00    +0.000 C 
BRANCH  19  22
ATOM     22  C   UNL     1       4.504   3.972  17.507  0.00  0.00    +0.000 A 
ATOM     23  C   UNL     1       3.153   4.013  17.128  0.00  0.00    +0.000 A 
ATOM     24  C   UNL     1       2.127   3.854  18.063  0.00  0.00    +0.000 A 
ATOM     25  C   UNL     1       2.437   3.602  19.393  0.00  0.00    +0.000 A 
ATOM     26 CL   UNL     1       1.172   3.387  20.538  0.00  0.00    +0.000 Cl
ATOM     27  C   UNL     1       3.766   3.511  19.792  0.00  0.00    +0.000 A 
ATOM     28  C   UNL     1       4.790   3.695  18.856  0.00  0.00    +0.000 A 
ENDBRANCH  19  22
ENDBRANCH  15  16
ENDBRANCH   1  15
TORSDOF 5
ENDMDL
MODEL 7
REMARK VINA RESULT:      -8.2      3.168      8.230
REMARK  Name = 
REMARK  5 active torsions:
REMARK  status: ('A' for Active; 'I' for Inactive)
REMARK    1  A    between atoms: C_4  and  C_5
REMARK    2  A    between atoms: C_5  and  C_6
REMARK    3  A    between atoms: C_6  and  C_7
REMARK    4  A    between atoms: C_7  and  N_8
REMARK    5  A    between atoms: C_11  and  C_12
REMARK                            x       y       z     vdW  Elec       q    Type
REMARK                         _______ _______ _______ _____ _____    ______ ____
ROOT
ATOM      1  C   UNL     1       0.915   8.115  21.283  0.00  0.00    +0.000 C 
ENDROOT
BRANCH   1   2
ATOM      2  C   UNL     1       1.828   7.886  20.082  0.00  0.00    +0.000 C 
BRANCH   2   6
ATOM      3  O   UNL     1       2.208   3.646  22.109  0.00  0.00    +0.000 OA
ATOM      4  C   UNL     1       2.270   4.306  21.082  0.00  0.00    +0.000 A 
ATOM      5  N   UNL     1       2.038   5.656  21.064  0.00  0.00    +0.000 N 
ATOM      6  C   UNL     1       2.088   6.413  19.923  0.00  0.00    +0.000 A 
ATOM      7  N   UNL     1       2.381   5.929  18.758  0.00  0.00    +0.000 NA
ATOM      8  C   UNL     1       2.638   4.554  18.668  0.00  0.00    +0.000 A 
ATOM      9  C   UNL     1       2.942   4.013  17.419  0.00  0.00    +0.000 A 
ATOM     10  C   UNL     1       3.192   2.646  17.278  0.00  0.00    +0.000 A 
ATOM     11  C   UNL     1       3.145   1.807  18.392  0.00  0.00    +0.000 A 
ATOM     12  C   UNL     1       2.848   2.333  19.649  0.00  0.00    +0.000 A 
ATOM     13  C   UNL     1       2.596   3.701  19.776  0.00  0.00    +0.000 A 
ATOM     14  H   UNL     1       1.802   6.078  21.952  0.00  0.00    +0.000 HD
ENDBRANCH   2   6
ENDBRANCH   1   2
BRANCH   1  15
ATOM     15  C   UNL     1       1.480   9.157  22.247  0.00  0.00    +0.000 C 
BRANCH  15  16
ATOM     16  N   UNL     1       0.809  10.473  22.183  0.00  0.00    +0.000 NA
ATOM     17  C   UNL     1       1.193  11.204  20.965  0.00  0.00    +0.000 C 
ATOM     18  C   UNL     1       0.390  12.488  20.754  0.00  0.00    +0.000 C 
ATOM     19  C   UNL     1      -1.123  12.224  20.722  0.00  0.00    +0.000 C 
ATOM     20  C   UNL     1      -1.482  11.515  22.038  0.00  0.00    +0.000 C 
ATOM     21  C   UNL     1      -0.643  10.258  22.285  0.00  0.00    +0.000 C 
BRANCH  19  22
ATOM     22  C   UNL     1      -1.586  11.546  19.430  0.00  0.00    +0.000 A 
ATOM     23  C   UNL     1      -0.820  10.590  18.742  0.00  0.00    +0.000 A 
ATOM     24  C   UNL     1      -1.266  10.019  17.548  0.00  0.00    +0.000 A 
ATOM     25  C   UNL     1      -2.514  10.360  17.042  0.00  0.00    +0.000 A 
ATOM     26 CL   UNL     1      -3.068   9.639  15.583  0.00  0.00    +0.000 Cl
ATOM     27  C   UNL     1      -3.315  11.269  17.723  0.00  0.00    +0.000 A 
ATOM     28  C   UNL     1      -2.854  11.857  18.907  0.00  0.00    +0.000 A 
ENDBRANCH  19  22
ENDBRANCH  15  16
ENDBRANCH   1  15
TORSDOF 5
ENDMDL
MODEL 8
REMARK VINA RESULT:      -8.2      1.453      2.073
REMARK  Name = 
REMARK  5 active torsions:
REMARK  status: ('A' for Active; 'I' for Inactive)
REMARK    1  A    between atoms: C_4  and  C_5
REMARK    2  A    between atoms: C_5  and  C_6
REMARK    3  A    between atoms: C_6  and  C_7
REMARK    4  A    between atoms: C_7  and  N_8
REMARK    5  A    between atoms: C_11  and  C_12
REMARK                            x       y       z     vdW  Elec       q    Type
REMARK                         _______ _______ _______ _____ _____    ______ ____
ROOT
ATOM      1  C   UNL     1       1.411   4.982  20.834  0.00  0.00    +0.000 C 
ENDROOT
BRANCH   1   2
ATOM      2  C   UNL     1       2.536   5.922  20.410  0.00  0.00    +0.000 C 
BRANCH   2   6
ATOM      3  O   UNL     1       2.039   9.441  17.311  0.00  0.00    +0.000 OA
ATOM      4  C   UNL     1       1.798   9.013  18.430  0.00  0.00    +0.000 A 
ATOM      5  N   UNL     1       2.234   7.784  18.854  0.00  0.00    +0.000 N 
ATOM      6  C   UNL     1       1.964   7.279  20.098  0.00  0.00    +0.000 A 
ATOM      7  N   UNL     1       1.293   7.921  20.999  0.00  0.00    +0.000 NA
ATOM      8  C   UNL     1       0.802   9.192  20.666  0.00  0.00    +0.000 A 
ATOM      9  C   UNL     1       0.065   9.892  21.621  0.00  0.00    +0.000 A 
ATOM     10  C   UNL     1      -0.455  11.156  21.330  0.00  0.00    +0.000 A 
ATOM     11  C   UNL     1      -0.236  11.732  20.078  0.00  0.00    +0.000 A 
ATOM     12  C   UNL     1       0.505  11.047  19.115  0.00  0.00    +0.000 A 
ATOM     13  C   UNL     1       1.016   9.782  19.417  0.00  0.00    +0.000 A 
ATOM     14  H   UNL     1       2.761   7.245  18.181  0.00  0.00    +0.000 HD
ENDBRANCH   2   6
ENDBRANCH   1   2
BRANCH   1  15
ATOM     15  C   UNL     1       1.863   3.523  20.877  0.00  0.00    +0.000 C 
BRANCH  15  16
ATOM     16  N   UNL     1       2.234   2.961  19.560  0.00  0.00    +0.000 NA
ATOM     17  C   UNL     1       1.994   3.934  18.483  0.00  0.00    +0.000 C 
ATOM     18  C   UNL     1       2.530   3.476  17.126  0.00  0.00    +0.000 C 
ATOM     19  C   UNL     1       4.031   3.150  17.179  0.00  0.00    +0.000 C 
ATOM     20  C   UNL     1       4.219   2.089  18.276  0.00  0.00    +0.000 C 
ATOM     21  C   UNL     1       3.634   2.516  19.625  0.00  0.00    +0.000 C 
BRANCH  19  22
ATOM     22  C   UNL     1       4.913   4.398  17.274  0.00  0.00    +0.000 A 
ATOM     23  C   UNL     1       4.523   5.657  16.792  0.00  0.00    +0.000 A 
ATOM     24  C   UNL     1       5.372   6.765  16.870  0.00  0.00    +0.000 A 
ATOM     25  C   UNL     1       6.614   6.641  17.478  0.00  0.00    +0.000 A 
ATOM     26 CL   UNL     1       7.648   8.010  17.591  0.00  0.00    +0.000 Cl
ATOM     27  C   UNL     1       7.011   5.418  18.006  0.00  0.00    +0.000 A 
ATOM     28  C   UNL     1       6.167   4.306  17.904  0.00  0.00    +0.000 A 
ENDBRANCH  19  22
ENDBRANCH  15  16
ENDBRANCH   1  15
TORSDOF 5
ENDMDL
MODEL 9
REMARK VINA RESULT:      -8.1      5.874      7.780
REMARK  Name = 
REMARK  5 active torsions:
REMARK  status: ('A' for Active; 'I' for Inactive)
REMARK    1  A    between atoms: C_4  and  C_5
REMARK    2  A    between atoms: C_5  and  C_6
REMARK    3  A    between atoms: C_6  and  C_7
REMARK    4  A    between atoms: C_7  and  N_8
REMARK    5  A    between atoms: C_11  and  C_12
REMARK                            x       y       z     vdW  Elec       q    Type
REMARK                         _______ _______ _______ _____ _____    ______ ____
ROOT
ATOM      1  C   UNL     1       8.333   8.860  18.083  0.00  0.00    +0.000 C 
ENDROOT
BRANCH   1   2
ATOM      2  C   UNL     1       9.034   9.443  19.307  0.00  0.00    +0.000 C 
BRANCH   2   6
ATOM      3  O   UNL     1       8.466  13.954  20.556  0.00  0.00    +0.000 OA
ATOM      4  C   UNL     1       8.978  13.156  19.785  0.00  0.00    +0.000 A 
ATOM      5  N   UNL     1       8.788  11.803  19.898  0.00  0.00    +0.000 N 
ATOM      6  C   UNL     1       9.363  10.890  19.054  0.00  0.00    +0.000 A 
ATOM      7  N   UNL     1      10.121  11.217  18.057  0.00  0.00    +0.000 NA
ATOM      8  C   UNL     1      10.377  12.580  17.852  0.00  0.00    +0.000 A 
ATOM      9  C   UNL     1      11.202  12.950  16.790  0.00  0.00    +0.000 A 
ATOM     10  C   UNL     1      11.496  14.295  16.554  0.00  0.00    +0.000 A 
ATOM     11  C   UNL     1      10.961  15.285  17.380  0.00  0.00    +0.000 A 
ATOM     12  C   UNL     1      10.129  14.931  18.442  0.00  0.00    +0.000 A 
ATOM     13  C   UNL     1       9.846  13.583  18.670  0.00  0.00    +0.000 A 
ATOM     14  H   UNL     1       8.205  11.500  20.666  0.00  0.00    +0.000 HD
ENDBRANCH   2   6
ENDBRANCH   1   2
BRANCH   1  15
ATOM     15  C   UNL     1       8.049   7.367  18.237  0.00  0.00    +0.000 C 
BRANCH  15  16
ATOM     16  N   UNL     1       7.357   6.754  17.082  0.00  0.00    +0.000 NA
ATOM     17  C   UNL     1       7.340   5.287  17.193  0.00  0.00    +0.000 C 
ATOM     18  C   UNL     1       6.479   4.612  16.124  0.00  0.00    +0.000 C 
ATOM     19  C   UNL     1       5.032   5.132  16.137  0.00  0.00    +0.000 C 
ATOM     20  C   UNL     1       5.103   6.657  15.960  0.00  0.00    +0.000 C 
ATOM     21  C   UNL     1       6.009   7.336  16.991  0.00  0.00    +0.000 C 
BRANCH  19  22
ATOM     22  C   UNL     1       4.221   4.617  17.329  0.00  0.00    +0.000 A 
ATOM     23  C   UNL     1       4.537   3.442  18.029  0.00  0.00    +0.000 A 
ATOM     24  C   UNL     1       3.751   2.990  19.092  0.00  0.00    +0.000 A 
ATOM     25  C   UNL     1       2.656   3.736  19.506  0.00  0.00    +0.000 A 
ATOM     26 CL   UNL     1       1.702   3.189  20.828  0.00  0.00    +0.000 Cl
ATOM     27  C   UNL     1       2.342   4.928  18.863  0.00  0.00    +0.000 A 
ATOM     28  C   UNL     1       3.119   5.364  17.783  0.00  0.00    +0.000 A 
ENDBRANCH  19  22
ENDBRANCH  15  16
ENDBRANCH   1  15
TORSDOF 5
ENDMDL
