MODEL 1
REMARK VINA RESULT:      -8.1      0.000      0.000
REMARK  Name = 
REMARK  8 active torsions:
REMARK  status: ('A' for Active; 'I' for Inactive)
REMARK    1  A    between atoms: C_1  and  C_2
REMARK    2  A    between atoms: C_6  and  C_7
REMARK    3  A    between atoms: C_8  and  C_9
REMARK    4  A    between atoms: C_9  and  O_11
REMARK    5  A    between atoms: C_12  and  C_13
REMARK    6  A    between atoms: N_15  and  C_16
REMARK    7  A    between atoms: C_19  and  O_20
REMARK    8  A    between atoms: O_20  and  C_21
REMARK                            x       y       z     vdW  Elec       q    Type
REMARK                         _______ _______ _______ _____ _____    ______ ____
ROOT
ATOM      1  C   UNL     1       3.832   4.411  19.403  0.00  0.00    +0.000 A 
ATOM      2  C   UNL     1       3.613   3.142  19.955  0.00  0.00    +0.000 A 
ATOM      3  C   UNL     1       2.466   3.282  20.779  0.00  0.00    +0.000 A 
ATOM      4  C   UNL     1       1.778   2.291  21.649  0.00  0.00    +0.000 C 
ATOM      5  N   UNL     1       2.010   4.529  20.779  0.00  0.00    +0.000 NA
ATOM      6  N   UNL     1       2.772   5.198  19.882  0.00  0.00    +0.000 N 
ENDROOT
BRANCH   1  12
ATOM      7  C   UNL     1       4.431   4.252  16.105  0.00  0.00    +0.000 C 
ATOM      8  C   UNL     1       5.173   4.910  17.210  0.00  0.00    +0.000 A 
ATOM      9  N   UNL     1       6.282   5.660  16.814  0.00  0.00    +0.000 NA
ATOM     10  N   UNL     1       6.959   6.134  17.838  0.00  0.00    +0.000 NA
ATOM     11  S   UNL     1       6.351   5.619  19.297  0.00  0.00    +0.000 S 
ATOM     12  C   UNL     1       4.925   4.912  18.586  0.00  0.00    +0.000 A 
ENDBRANCH   1  12
BRANCH   6  13
ATOM     13  C   UNL     1       2.394   6.537  19.583  0.00  0.00    +0.000 A 
ATOM     14  C   UNL     1       2.528   6.991  18.264  0.00  0.00    +0.000 A 
ATOM     15  C   UNL     1       2.066   8.260  17.914  0.00  0.00    +0.000 A 
ATOM     16  C   UNL     1       1.491   9.095  18.873  0.00  0.00    +0.000 A 
ATOM     17  C   UNL     1       1.467   8.686  20.207  0.00  0.00    +0.000 A 
ATOM     18  C   UNL     1       1.904   7.404  20.564  0.00  0.00    +0.000 A 
BRANCH  16  19
ATOM     19  O   UNL     1       1.058  10.297  18.402  0.00  0.00    +0.000 OA
BRANCH  19  20
ATOM     20  C   UNL     1      -0.338  10.559  18.342  0.00  0.00    +0.000 C 
ATOM     21  F   UNL     1      -1.009  10.292  19.481  0.00  0.00    +0.000 F 
ATOM     22  F   UNL     1      -0.527  11.859  18.024  0.00  0.00    +0.000 F 
ATOM     23  F   UNL     1      -0.878   9.804  17.359  0.00  0.00    +0.000 F 
ENDBRANCH  19  20
ENDBRANCH  16  19
ENDBRANCH   6  13
BRANCH   2  24
ATOM     24  C   UNL     1       4.443   1.959  19.839  0.00  0.00    +0.000 C 
ATOM     25  O   UNL     1       5.257   1.622  20.677  0.00  0.00    +0.000 OA
BRANCH  24  26
ATOM     26  O   UNL     1       4.250   1.244  18.701  0.00  0.00    +0.000 OA
ATOM     27  H   UNL     1       4.599   1.671  17.896  0.00  0.00    +0.000 HD
ENDBRANCH  24  26
ENDBRANCH   2  24
TORSDOF 6
ENDMDL
MODEL 2
REMARK VINA RESULT:      -7.9      0.328      1.001
REMARK  Name = 
REMARK  8 active torsions:
REMARK  status: ('A' for Active; 'I' for Inactive)
REMARK    1  A    between atoms: C_1  and  C_2
REMARK    2  A    between atoms: C_6  and  C_7
REMARK    3  A    between atoms: C_8  and  C_9
REMARK    4  A    between atoms: C_9  and  O_11
REMARK    5  A    between atoms: C_12  and  C_13
REMARK    6  A    between atoms: N_15  and  C_16
REMARK    7  A    between atoms: C_19  and  O_20
REMARK    8  A    between atoms: O_20  and  C_21
REMARK                            x       y       z     vdW  Elec       q    Type
REMARK                         _______ _______ _______ _____ _____    ______ ____
ROOT
ATOM      1  C   UNL     1       3.831   4.432  19.463  0.00  0.00    +0.000 A 
ATOM      2  C   UNL     1       3.626   3.201  20.098  0.00  0.00    +0.000 A 
ATOM      3  C   UNL     1       2.469   3.377  20.900  0.00  0.00    +0.000 A 
ATOM      4  C   UNL     1       1.788   2.436  21.830  0.00  0.00    +0.000 C 
ATOM      5  N   UNL     1       1.993   4.613  20.811  0.00  0.00    +0.000 NA
ATOM      6  N   UNL     1       2.754   5.233  19.879  0.00  0.00    +0.000 N 
ENDROOT
BRANCH   1  12
ATOM      7  C   UNL     1       4.417   4.145  16.172  0.00  0.00    +0.000 C 
ATOM      8  C   UNL     1       5.167   4.839  17.248  0.00  0.00    +0.000 A 
ATOM      9  N   UNL     1       6.279   5.566  16.820  0.00  0.00    +0.000 NA
ATOM     10  N   UNL     1       6.964   6.074  17.823  0.00  0.00    +0.000 NA
ATOM     11  S   UNL     1       6.357   5.620  19.303  0.00  0.00    +0.000 S 
ATOM     12  C   UNL     1       4.924   4.896  18.624  0.00  0.00    +0.000 A 
ENDBRANCH   1  12
BRANCH   6  13
ATOM     13  C   UNL     1       2.358   6.542  19.486  0.00  0.00    +0.000 A 
ATOM     14  C   UNL     1       1.793   7.388  20.450  0.00  0.00    +0.000 A 
ATOM     15  C   UNL     1       1.495   8.712  20.126  0.00  0.00    +0.000 A 
ATOM     16  C   UNL     1       1.734   9.199  18.840  0.00  0.00    +0.000 A 
ATOM     17  C   UNL     1       2.187   8.323  17.852  0.00  0.00    +0.000 A 
ATOM     18  C   UNL     1       2.513   6.999  18.173  0.00  0.00    +0.000 A 
BRANCH  16  19
ATOM     19  O   UNL     1       1.425  10.512  18.657  0.00  0.00    +0.000 OA
BRANCH  19  20
ATOM     20  C   UNL     1       0.062  10.916  18.685  0.00  0.00    +0.000 C 
ATOM     21  F   UNL     1      -0.499  10.912  19.912  0.00  0.00    +0.000 F 
ATOM     22  F   UNL     1      -0.037  12.162  18.169  0.00  0.00    +0.000 F 
ATOM     23  F   UNL     1      -0.654  10.079  17.901  0.00  0.00    +0.000 F 
ENDBRANCH  19  20
ENDBRANCH  16  19
ENDBRANCH   6  13
BRANCH   2  24
ATOM     24  C   UNL     1       4.477   2.026  20.071  0.00  0.00    +0.000 C 
ATOM     25  O   UNL     1       5.208   1.703  20.986  0.00  0.00    +0.000 OA
BRANCH  24  26
ATOM     26  O   UNL     1       4.402   1.304  18.923  0.00  0.00    +0.000 OA
ATOM     27  H   UNL     1       3.493   1.080  18.649  0.00  0.00    +0.000 HD
ENDBRANCH  24  26
ENDBRANCH   2  24
TORSDOF 6
ENDMDL
MODEL 3
REMARK VINA RESULT:      -7.7      1.121      1.272
REMARK  Name = 
REMARK  8 active torsions:
REMARK  status: ('A' for Active; 'I' for Inactive)
REMARK    1  A    between atoms: C_1  and  C_2
REMARK    2  A    between atoms: C_6  and  C_7
REMARK    3  A    between atoms: C_8  and  C_9
REMARK    4  A    between atoms: C_9  and  O_11
REMARK    5  A    between atoms: C_12  and  C_13
REMARK    6  A    between atoms: N_15  and  C_16
REMARK    7  A    between atoms: C_19  and  O_20
REMARK    8  A    between atoms: O_20  and  C_21
REMARK                            x       y       z     vdW  Elec       q    Type
REMARK                         _______ _______ _______ _____ _____    ______ ____
ROOT
ATOM      1  C   UNL     1       3.741   4.579  19.373  0.00  0.00    +0.000 A 
ATOM      2  C   UNL     1       3.517   3.327  19.961  0.00  0.00    +0.000 A 
ATOM      3  C   UNL     1       2.379   3.498  20.792  0.00  0.00    +0.000 A 
ATOM      4  C   UNL     1       1.692   2.537  21.694  0.00  0.00    +0.000 C 
ATOM      5  N   UNL     1       1.934   4.749  20.763  0.00  0.00    +0.000 NA
ATOM      6  N   UNL     1       2.693   5.387  19.842  0.00  0.00    +0.000 N 
ENDROOT
BRANCH   1  12
ATOM      7  C   UNL     1       4.323   4.300  16.080  0.00  0.00    +0.000 C 
ATOM      8  C   UNL     1       5.071   4.996  17.157  0.00  0.00    +0.000 A 
ATOM      9  N   UNL     1       6.179   5.730  16.728  0.00  0.00    +0.000 NA
ATOM     10  N   UNL     1       6.862   6.240  17.730  0.00  0.00    +0.000 NA
ATOM     11  S   UNL     1       6.260   5.780  19.210  0.00  0.00    +0.000 S 
ATOM     12  C   UNL     1       4.830   5.049  18.533  0.00  0.00    +0.000 A 
ENDBRANCH   1  12
BRANCH   6  13
ATOM     13  C   UNL     1       2.324   6.721  19.512  0.00  0.00    +0.000 A 
ATOM     14  C   UNL     1       2.508   7.159  18.193  0.00  0.00    +0.000 A 
ATOM     15  C   UNL     1       2.057   8.423  17.809  0.00  0.00    +0.000 A 
ATOM     16  C   UNL     1       1.442   9.268  18.734  0.00  0.00    +0.000 A 
ATOM     17  C   UNL     1       1.366   8.875  20.071  0.00  0.00    +0.000 A 
ATOM     18  C   UNL     1       1.793   7.599  20.461  0.00  0.00    +0.000 A 
BRANCH  16  19
ATOM     19  O   UNL     1       1.025  10.462  18.232  0.00  0.00    +0.000 OA
BRANCH  19  20
ATOM     20  C   UNL     1       1.719  11.650  18.593  0.00  0.00    +0.000 C 
ATOM     21  F   UNL     1       1.887  11.819  19.920  0.00  0.00    +0.000 F 
ATOM     22  F   UNL     1       2.933  11.645  18.000  0.00  0.00    +0.000 F 
ATOM     23  F   UNL     1       1.028  12.714  18.126  0.00  0.00    +0.000 F 
ENDBRANCH  19  20
ENDBRANCH  16  19
ENDBRANCH   6  13
BRANCH   2  24
ATOM     24  C   UNL     1       4.336   2.134  19.868  0.00  0.00    +0.000 C 
ATOM     25  O   UNL     1       5.136   1.798  20.719  0.00  0.00    +0.000 OA
BRANCH  24  26
ATOM     26  O   UNL     1       4.148   1.409  18.735  0.00  0.00    +0.000 OA
ATOM     27  H   UNL     1       3.226   1.393  18.418  0.00  0.00    +0.000 HD
ENDBRANCH  24  26
ENDBRANCH   2  24
TORSDOF 6
ENDMDL
MODEL 4
REMARK VINA RESULT:      -7.5      0.946      1.591
REMARK  Name = 
REMARK  8 active torsions:
REMARK  status: ('A' for Active; 'I' for Inactive)
REMARK    1  A    between atoms: C_1  and  C_2
REMARK    2  A    between atoms: C_6  and  C_7
REMARK    3  A    between atoms: C_8  and  C_9
REMARK    4  A    between atoms: C_9  and  O_11
REMARK    5  A    between atoms: C_12  and  C_13
REMARK    6  A    between atoms: N_15  and  C_16
REMARK    7  A    between atoms: C_19  and  O_20
REMARK    8  A    between atoms: O_20  and  C_21
REMARK                            x       y       z     vdW  Elec       q    Type
REMARK                         _______ _______ _______ _____ _____    ______ ____
ROOT
ATOM      1  C   UNL     1       3.816   4.286  19.221  0.00  0.00    +0.000 A 
ATOM      2  C   UNL     1       3.647   3.072  19.900  0.00  0.00    +0.000 A 
ATOM      3  C   UNL     1       2.609   3.305  20.838  0.00  0.00    +0.000 A 
ATOM      4  C   UNL     1       2.016   2.404  21.863  0.00  0.00    +0.000 C 
ATOM      5  N   UNL     1       2.172   4.558  20.787  0.00  0.00    +0.000 NA
ATOM      6  N   UNL     1       2.831   5.134  19.755  0.00  0.00    +0.000 N 
ENDROOT
BRANCH   1  12
ATOM      7  C   UNL     1       6.861   5.656  19.549  0.00  0.00    +0.000 C 
ATOM      8  C   UNL     1       6.104   5.215  18.352  0.00  0.00    +0.000 A 
ATOM      9  N   UNL     1       6.797   5.317  17.143  0.00  0.00    +0.000 NA
ATOM     10  N   UNL     1       6.045   5.012  16.107  0.00  0.00    +0.000 NA
ATOM     11  S   UNL     1       4.471   4.690  16.534  0.00  0.00    +0.000 S 
ATOM     12  C   UNL     1       4.810   4.695  18.244  0.00  0.00    +0.000 A 
ENDBRANCH   1  12
BRANCH   6  13
ATOM     13  C   UNL     1       2.438   6.453  19.392  0.00  0.00    +0.000 A 
ATOM     14  C   UNL     1       1.841   7.265  20.365  0.00  0.00    +0.000 A 
ATOM     15  C   UNL     1       1.544   8.597  20.074  0.00  0.00    +0.000 A 
ATOM     16  C   UNL     1       1.815   9.125  18.810  0.00  0.00    +0.000 A 
ATOM     17  C   UNL     1       2.301   8.282  17.809  0.00  0.00    +0.000 A 
ATOM     18  C   UNL     1       2.626   6.951  18.099  0.00  0.00    +0.000 A 
BRANCH  16  19
ATOM     19  O   UNL     1       1.502  10.441  18.659  0.00  0.00    +0.000 OA
BRANCH  19  20
ATOM     20  C   UNL     1       0.137  10.838  18.666  0.00  0.00    +0.000 C 
ATOM     21  F   UNL     1      -0.466  10.748  19.870  0.00  0.00    +0.000 F 
ATOM     22  F   UNL     1       0.049  12.114  18.233  0.00  0.00    +0.000 F 
ATOM     23  F   UNL     1      -0.546  10.052  17.803  0.00  0.00    +0.000 F 
ENDBRANCH  19  20
ENDBRANCH  16  19
ENDBRANCH   6  13
BRANCH   2  24
ATOM     24  C   UNL     1       4.443   1.865  19.786  0.00  0.00    +0.000 C 
ATOM     25  O   UNL     1       5.271   1.525  20.608  0.00  0.00    +0.000 OA
BRANCH  24  26
ATOM     26  O   UNL     1       4.197   1.132  18.670  0.00  0.00    +0.000 OA
ATOM     27  H   UNL     1       3.498   1.498  18.096  0.00  0.00    +0.000 HD
ENDBRANCH  24  26
ENDBRANCH   2  24
TORSDOF 6
ENDMDL
MODEL 5
REMARK VINA RESULT:      -7.5      0.872      1.231
REMARK  Name = 
REMARK  8 active torsions:
REMARK  status: ('A' for Active; 'I' for Inactive)
REMARK    1  A    between atoms: C_1  and  C_2
REMARK    2  A    between atoms: C_6  and  C_7
REMARK    3  A    between atoms: C_8  and  C_9
REMARK    4  A    between atoms: C_9  and  O_11
REMARK    5  A    between atoms: C_12  and  C_13
REMARK    6  A    between atoms: N_15  and  C_16
REMARK    7  A    between atoms: C_19  and  O_20
REMARK    8  A    between atoms: O_20  and  C_21
REMARK                            x       y       z     vdW  Elec       q    Type
REMARK                         _______ _______ _______ _____ _____    ______ ____
ROOT
ATOM      1  C   UNL     1       3.764   4.490  19.288  0.00  0.00    +0.000 A 
ATOM      2  C   UNL     1       3.600   3.244  19.907  0.00  0.00    +0.000 A 
ATOM      3  C   UNL     1       2.559   3.427  20.854  0.00  0.00    +0.000 A 
ATOM      4  C   UNL     1       1.970   2.475  21.834  0.00  0.00    +0.000 C 
ATOM      5  N   UNL     1       2.116   4.678  20.863  0.00  0.00    +0.000 NA
ATOM      6  N   UNL     1       2.774   5.306  19.860  0.00  0.00    +0.000 N 
ENDROOT
BRANCH   1  12
ATOM      7  C   UNL     1       6.919   5.566  19.666  0.00  0.00    +0.000 C 
ATOM      8  C   UNL     1       6.091   5.350  18.453  0.00  0.00    +0.000 A 
ATOM      9  N   UNL     1       6.752   5.560  17.241  0.00  0.00    +0.000 NA
ATOM     10  N   UNL     1       5.946   5.456  16.206  0.00  0.00    +0.000 NA
ATOM     11  S   UNL     1       4.366   5.200  16.652  0.00  0.00    +0.000 S 
ATOM     12  C   UNL     1       4.757   4.949  18.332  0.00  0.00    +0.000 A 
ENDBRANCH   1  12
BRANCH   6  13
ATOM     13  C   UNL     1       2.375   6.639  19.559  0.00  0.00    +0.000 A 
ATOM     14  C   UNL     1       2.493   7.090  18.237  0.00  0.00    +0.000 A 
ATOM     15  C   UNL     1       2.011   8.352  17.886  0.00  0.00    +0.000 A 
ATOM     16  C   UNL     1       1.430   9.182  18.847  0.00  0.00    +0.000 A 
ATOM     17  C   UNL     1       1.420   8.776  20.183  0.00  0.00    +0.000 A 
ATOM     18  C   UNL     1       1.878   7.502  20.541  0.00  0.00    +0.000 A 
BRANCH  16  19
ATOM     19  O   UNL     1       0.977  10.376  18.376  0.00  0.00    +0.000 OA
BRANCH  19  20
ATOM     20  C   UNL     1      -0.424  10.610  18.306  0.00  0.00    +0.000 C 
ATOM     21  F   UNL     1      -1.087  10.397  19.461  0.00  0.00    +0.000 F 
ATOM     22  F   UNL     1      -0.636  11.886  17.916  0.00  0.00    +0.000 F 
ATOM     23  F   UNL     1      -0.953   9.791  17.370  0.00  0.00    +0.000 F 
ENDBRANCH  19  20
ENDBRANCH  16  19
ENDBRANCH   6  13
BRANCH   2  24
ATOM     24  C   UNL     1       4.401   2.047  19.737  0.00  0.00    +0.000 C 
ATOM     25  O   UNL     1       5.230   1.671  20.543  0.00  0.00    +0.000 OA
BRANCH  24  26
ATOM     26  O   UNL     1       4.162   1.368  18.586  0.00  0.00    +0.000 OA
ATOM     27  H   UNL     1       3.223   1.143  18.441  0.00  0.00    +0.000 HD
ENDBRANCH  24  26
ENDBRANCH   2  24
TORSDOF 6
ENDMDL
MODEL 6
REMARK VINA RESULT:      -7.4      0.901      1.571
REMARK  Name = 
REMARK  8 active torsions:
REMARK  status: ('A' for Active; 'I' for Inactive)
REMARK    1  A    between atoms: C_1  and  C_2
REMARK    2  A    between atoms: C_6  and  C_7
REMARK    3  A    between atoms: C_8  and  C_9
REMARK    4  A    between atoms: C_9  and  O_11
REMARK    5  A    between atoms: C_12  and  C_13
REMARK    6  A    between atoms: N_15  and  C_16
REMARK    7  A    between atoms: C_19  and  O_20
REMARK    8  A    between atoms: O_20  and  C_21
REMARK                            x       y       z     vdW  Elec       q    Type
REMARK                         _______ _______ _______ _____ _____    ______ ____
ROOT
ATOM      1  C   UNL     1       3.670   4.323  19.147  0.00  0.00    +0.000 A 
ATOM      2  C   UNL     1       3.466   3.065  19.729  0.00  0.00    +0.000 A 
ATOM      3  C   UNL     1       2.459   3.261  20.709  0.00  0.00    +0.000 A 
ATOM      4  C   UNL     1       1.852   2.304  21.673  0.00  0.00    +0.000 C 
ATOM      5  N   UNL     1       2.073   4.530  20.771  0.00  0.00    +0.000 NA
ATOM      6  N   UNL     1       2.732   5.162  19.772  0.00  0.00    +0.000 N 
ENDROOT
BRANCH   1  12
ATOM      7  C   UNL     1       6.737   5.632  19.511  0.00  0.00    +0.000 C 
ATOM      8  C   UNL     1       5.960   5.267  18.301  0.00  0.00    +0.000 A 
ATOM      9  N   UNL     1       6.640   5.425  17.091  0.00  0.00    +0.000 NA
ATOM     10  N   UNL     1       5.872   5.187  16.049  0.00  0.00    +0.000 NA
ATOM     11  S   UNL     1       4.299   4.863  16.477  0.00  0.00    +0.000 S 
ATOM     12  C   UNL     1       4.658   4.771  18.181  0.00  0.00    +0.000 A 
ENDBRANCH   1  12
BRANCH   6  13
ATOM     13  C   UNL     1       2.386   6.521  19.527  0.00  0.00    +0.000 A 
ATOM     14  C   UNL     1       2.503   7.015  18.220  0.00  0.00    +0.000 A 
ATOM     15  C   UNL     1       2.069   8.308  17.923  0.00  0.00    +0.000 A 
ATOM     16  C   UNL     1       1.539   9.126  18.923  0.00  0.00    +0.000 A 
ATOM     17  C   UNL     1       1.533   8.672  20.243  0.00  0.00    +0.000 A 
ATOM     18  C   UNL     1       1.942   7.368  20.547  0.00  0.00    +0.000 A 
BRANCH  16  19
ATOM     19  O   UNL     1       1.130  10.354  18.503  0.00  0.00    +0.000 OA
BRANCH  19  20
ATOM     20  C   UNL     1      -0.262  10.621  18.383  0.00  0.00    +0.000 C 
ATOM     21  F   UNL     1      -0.890   9.902  17.430  0.00  0.00    +0.000 F 
ATOM     22  F   UNL     1      -0.858  10.380  19.571  0.00  0.00    +0.000 F 
ATOM     23  F   UNL     1      -0.427  11.930  18.087  0.00  0.00    +0.000 F 
ENDBRANCH  19  20
ENDBRANCH  16  19
ENDBRANCH   6  13
BRANCH   2  24
ATOM     24  C   UNL     1       4.209   1.841  19.499  0.00  0.00    +0.000 C 
ATOM     25  O   UNL     1       3.906   1.018  18.658  0.00  0.00    +0.000 OA
BRANCH  24  26
ATOM     26  O   UNL     1       5.283   1.673  20.312  0.00  0.00    +0.000 OA
ATOM     27  H   UNL     1       5.904   2.426  20.317  0.00  0.00    +0.000 HD
ENDBRANCH  24  26
ENDBRANCH   2  24
TORSDOF 6
ENDMDL
MODEL 7
REMARK VINA RESULT:      -7.2      1.580      1.947
REMARK  Name = 
REMARK  8 active torsions:
REMARK  status: ('A' for Active; 'I' for Inactive)
REMARK    1  A    between atoms: C_1  and  C_2
REMARK    2  A    between atoms: C_6  and  C_7
REMARK    3  A    between atoms: C_8  and  C_9
REMARK    4  A    between atoms: C_9  and  O_11
REMARK    5  A    between atoms: C_12  and  C_13
REMARK    6  A    between atoms: N_15  and  C_16
REMARK    7  A    between atoms: C_19  and  O_20
REMARK    8  A    between atoms: O_20  and  C_21
REMARK                            x       y       z     vdW  Elec       q    Type
REMARK                         _______ _______ _______ _____ _____    ______ ____
ROOT
ATOM      1  C   UNL     1       3.698   5.060  19.131  0.00  0.00    +0.000 A 
ATOM      2  C   UNL     1       3.515   3.763  19.629  0.00  0.00    +0.000 A 
ATOM      3  C   UNL     1       2.399   3.847  20.502  0.00  0.00    +0.000 A 
ATOM      4  C   UNL     1       1.757   2.806  21.348  0.00  0.00    +0.000 C 
ATOM      5  N   UNL     1       1.928   5.086  20.579  0.00  0.00    +0.000 NA
ATOM      6  N   UNL     1       2.647   5.808  19.688  0.00  0.00    +0.000 N 
ENDROOT
BRANCH   1  12
ATOM      7  C   UNL     1       6.976   5.528  19.672  0.00  0.00    +0.000 C 
ATOM      8  C   UNL     1       6.131   5.772  18.477  0.00  0.00    +0.000 A 
ATOM      9  N   UNL     1       6.820   6.208  17.343  0.00  0.00    +0.000 NA
ATOM     10  N   UNL     1       6.012   6.507  16.348  0.00  0.00    +0.000 NA
ATOM     11  S   UNL     1       4.410   6.369  16.765  0.00  0.00    +0.000 S 
ATOM     12  C   UNL     1       4.752   5.615  18.300  0.00  0.00    +0.000 A 
ENDBRANCH   1  12
BRANCH   6  13
ATOM     13  C   UNL     1       2.242   7.154  19.468  0.00  0.00    +0.000 A 
ATOM     14  C   UNL     1       2.351   7.683  18.174  0.00  0.00    +0.000 A 
ATOM     15  C   UNL     1       1.862   8.961  17.901  0.00  0.00    +0.000 A 
ATOM     16  C   UNL     1       1.284   9.731  18.912  0.00  0.00    +0.000 A 
ATOM     17  C   UNL     1       1.284   9.248  20.222  0.00  0.00    +0.000 A 
ATOM     18  C   UNL     1       1.749   7.957  20.502  0.00  0.00    +0.000 A 
BRANCH  16  19
ATOM     19  O   UNL     1       0.824  10.949  18.515  0.00  0.00    +0.000 OA
BRANCH  19  20
ATOM     20  C   UNL     1       1.682  12.080  18.602  0.00  0.00    +0.000 C 
ATOM     21  F   UNL     1       2.869  11.932  17.978  0.00  0.00    +0.000 F 
ATOM     22  F   UNL     1       1.049  13.152  18.078  0.00  0.00    +0.000 F 
ATOM     23  F   UNL     1       1.931  12.335  19.906  0.00  0.00    +0.000 F 
ENDBRANCH  19  20
ENDBRANCH  16  19
ENDBRANCH   6  13
BRANCH   2  24
ATOM     24  C   UNL     1       4.356   2.599  19.426  0.00  0.00    +0.000 C 
ATOM     25  O   UNL     1       5.131   2.173  20.259  0.00  0.00    +0.000 OA
BRANCH  24  26
ATOM     26  O   UNL     1       4.218   2.012  18.209  0.00  0.00    +0.000 OA
ATOM     27  H   UNL     1       4.521   2.562  17.462  0.00  0.00    +0.000 HD
ENDBRANCH  24  26
ENDBRANCH   2  24
TORSDOF 6
ENDMDL
MODEL 8
REMARK VINA RESULT:      -7.1      4.600      6.937
REMARK  Name = 
REMARK  8 active torsions:
REMARK  status: ('A' for Active; 'I' for Inactive)
REMARK    1  A    between atoms: C_1  and  C_2
REMARK    2  A    between atoms: C_6  and  C_7
REMARK    3  A    between atoms: C_8  and  C_9
REMARK    4  A    between atoms: C_9  and  O_11
REMARK    5  A    between atoms: C_12  and  C_13
REMARK    6  A    between atoms: N_15  and  C_16
REMARK    7  A    between atoms: C_19  and  O_20
REMARK    8  A    between atoms: O_20  and  C_21
REMARK                            x       y       z     vdW  Elec       q    Type
REMARK                         _______ _______ _______ _____ _____    ______ ____
ROOT
ATOM      1  C   UNL     1       3.267   5.386  18.659  0.00  0.00    +0.000 A 
ATOM      2  C   UNL     1       2.451   6.400  19.176  0.00  0.00    +0.000 A 
ATOM      3  C   UNL     1       2.667   7.524  18.337  0.00  0.00    +0.000 A 
ATOM      4  C   UNL     1       2.110   8.901  18.409  0.00  0.00    +0.000 C 
ATOM      5  N   UNL     1       3.560   7.265  17.390  0.00  0.00    +0.000 NA
ATOM      6  N   UNL     1       3.862   5.952  17.519  0.00  0.00    +0.000 N 
ENDROOT
BRANCH   1  12
ATOM      7  C   UNL     1       1.437   2.578  18.813  0.00  0.00    +0.000 C 
ATOM      8  C   UNL     1       2.844   2.858  19.194  0.00  0.00    +0.000 A 
ATOM      9  N   UNL     1       3.571   1.749  19.630  0.00  0.00    +0.000 NA
ATOM     10  N   UNL     1       4.775   2.072  20.051  0.00  0.00    +0.000 NA
ATOM     11  S   UNL     1       5.039   3.713  20.029  0.00  0.00    +0.000 S 
ATOM     12  C   UNL     1       3.564   4.057  19.167  0.00  0.00    +0.000 A 
ENDBRANCH   1  12
BRANCH   6  13
ATOM     13  C   UNL     1       4.700   5.379  16.522  0.00  0.00    +0.000 A 
ATOM     14  C   UNL     1       4.842   3.985  16.487  0.00  0.00    +0.000 A 
ATOM     15  C   UNL     1       5.568   3.384  15.458  0.00  0.00    +0.000 A 
ATOM     16  C   UNL     1       6.176   4.161  14.471  0.00  0.00    +0.000 A 
ATOM     17  C   UNL     1       6.131   5.552  14.574  0.00  0.00    +0.000 A 
ATOM     18  C   UNL     1       5.384   6.165  15.589  0.00  0.00    +0.000 A 
BRANCH  16  19
ATOM     19  O   UNL     1       6.833   3.457  13.509  0.00  0.00    +0.000 OA
BRANCH  19  20
ATOM     20  C   UNL     1       6.306   3.421  12.189  0.00  0.00    +0.000 C 
ATOM     21  F   UNL     1       6.488   2.250  11.545  0.00  0.00    +0.000 F 
ATOM     22  F   UNL     1       4.982   3.686  12.239  0.00  0.00    +0.000 F 
ATOM     23  F   UNL     1       6.901   4.391  11.459  0.00  0.00    +0.000 F 
ENDBRANCH  19  20
ENDBRANCH  16  19
ENDBRANCH   6  13
BRANCH   2  24
ATOM     24  C   UNL     1       1.654   6.378  20.388  0.00  0.00    +0.000 C 
ATOM     25  O   UNL     1       0.894   5.475  20.678  0.00  0.00    +0.000 OA
BRANCH  24  26
ATOM     26  O   UNL     1       1.815   7.465  21.187  0.00  0.00    +0.000 OA
ATOM     27  H   UNL     1       2.480   7.349  21.891  0.00  0.00    +0.000 HD
ENDBRANCH  24  26
ENDBRANCH   2  24
TORSDOF 6
ENDMDL
MODEL 9
REMARK VINA RESULT:      -7.0      1.474      1.785
REMARK  Name = 
REMARK  8 active torsions:
REMARK  status: ('A' for Active; 'I' for Inactive)
REMARK    1  A    between atoms: C_1  and  C_2
REMARK    2  A    between atoms: C_6  and  C_7
REMARK    3  A    between atoms: C_8  and  C_9
REMARK    4  A    between atoms: C_9  and  O_11
REMARK    5  A    between atoms: C_12  and  C_13
REMARK    6  A    between atoms: N_15  and  C_16
REMARK    7  A    between atoms: C_19  and  O_20
REMARK    8  A    between atoms: O_20  and  C_21
REMARK                            x       y       z     vdW  Elec       q    Type
REMARK                         _______ _______ _______ _____ _____    ______ ____
ROOT
ATOM      1  C   UNL     1       3.544   4.844  18.320  0.00  0.00    +0.000 A 
ATOM      2  C   UNL     1       3.150   3.507  18.173  0.00  0.00    +0.000 A 
ATOM      3  C   UNL     1       1.803   3.459  18.614  0.00  0.00    +0.000 A 
ATOM      4  C   UNL     1       0.866   2.309  18.727  0.00  0.00    +0.000 C 
ATOM      5  N   UNL     1       1.380   4.646  19.033  0.00  0.00    +0.000 NA
ATOM      6  N   UNL     1       2.392   5.507  18.777  0.00  0.00    +0.000 N 
ENDROOT
BRANCH   1  12
ATOM      7  C   UNL     1       4.866   6.636  15.811  0.00  0.00    +0.000 C 
ATOM      8  C   UNL     1       5.399   6.269  17.146  0.00  0.00    +0.000 A 
ATOM      9  N   UNL     1       6.645   6.820  17.457  0.00  0.00    +0.000 NA
ATOM     10  N   UNL     1       7.115   6.380  18.605  0.00  0.00    +0.000 NA
ATOM     11  S   UNL     1       6.135   5.230  19.297  0.00  0.00    +0.000 S 
ATOM     12  C   UNL     1       4.843   5.473  18.152  0.00  0.00    +0.000 A 
ENDBRANCH   1  12
BRANCH   6  13
ATOM     13  C   UNL     1       2.140   6.889  19.003  0.00  0.00    +0.000 A 
ATOM     14  C   UNL     1       2.117   7.755  17.901  0.00  0.00    +0.000 A 
ATOM     15  C   UNL     1       1.765   9.094  18.074  0.00  0.00    +0.000 A 
ATOM     16  C   UNL     1       1.457   9.588  19.343  0.00  0.00    +0.000 A 
ATOM     17  C   UNL     1       1.594   8.753  20.452  0.00  0.00    +0.000 A 
ATOM     18  C   UNL     1       1.922   7.401  20.286  0.00  0.00    +0.000 A 
BRANCH  16  19
ATOM     19  O   UNL     1       1.106  10.903  19.377  0.00  0.00    +0.000 OA
BRANCH  19  20
ATOM     20  C   UNL     1      -0.265  11.262  19.254  0.00  0.00    +0.000 C 
ATOM     21  F   UNL     1      -0.624  11.692  18.027  0.00  0.00    +0.000 F 
ATOM     22  F   UNL     1      -1.028  10.195  19.578  0.00  0.00    +0.000 F 
ATOM     23  F   UNL     1      -0.533  12.253  20.133  0.00  0.00    +0.000 F 
ENDBRANCH  19  20
ENDBRANCH  16  19
ENDBRANCH   6  13
BRANCH   2  24
ATOM     24  C   UNL     1       3.966   2.371  17.788  0.00  0.00    +0.000 C 
ATOM     25  O   UNL     1       3.859   1.267  18.285  0.00  0.00    +0.000 OA
BRANCH  24  26
ATOM     26  O   UNL     1       4.881   2.637  16.821  0.00  0.00    +0.000 OA
ATOM     27  H   UNL     1       5.585   1.966  16.740  0.00  0.00    +0.000 HD
ENDBRANCH  24  26
ENDBRANCH   2  24
TORSDOF 6
ENDMDL
