MODEL 1
REMARK VINA RESULT:      -8.0      0.000      0.000
REMARK  Name = 
REMARK  10 active torsions:
REMARK  status: ('A' for Active; 'I' for Inactive)
REMARK    1  A    between atoms: C_1  and  C_2
REMARK    2  A    between atoms: C_2  and  C_3
REMARK    3  A    between atoms: C_3  and  C_4
REMARK    4  A    between atoms: C_4  and  N_5
REMARK    5  A    between atoms: C_7  and  C_8
REMARK    6  A    between atoms: C_13  and  C_14
REMARK    7  A    between atoms: C_19  and  O_20
REMARK    8  A    between atoms: O_20  and  C_21
REMARK    9  A    between atoms: C_21  and  C_22
REMARK   10  A    between atoms: C_22  and  C_23
REMARK                            x       y       z     vdW  Elec       q    Type
REMARK                         _______ _______ _______ _____ _____    ______ ____
ROOT
ATOM      1  N   UNL     1       2.441   5.829  19.975  0.00  0.00    +0.000 N 
ATOM      2  N   UNL     1       1.719   5.178  20.922  0.00  0.00    +0.000 NA
ATOM      3  C   UNL     1       2.173   3.917  20.883  0.00  0.00    +0.000 A 
ATOM      4  C   UNL     1       1.592   2.865  21.752  0.00  0.00    +0.000 C 
ATOM      5  C   UNL     1       3.169   3.779  19.903  0.00  0.00    +0.000 A 
ATOM      6  C   UNL     1       3.955   2.684  19.433  0.00  0.00    +0.000 A 
ATOM      7  O   UNL     1       3.946   1.558  19.905  0.00  0.00    +0.000 OA
ATOM      8  N   UNL     1       4.728   3.036  18.349  0.00  0.00    +0.000 N 
ATOM      9  C   UNL     1       4.780   4.315  17.765  0.00  0.00    +0.000 A 
ATOM     10  N   UNL     1       4.094   5.328  18.227  0.00  0.00    +0.000 NA
ATOM     11  C   UNL     1       3.305   5.007  19.298  0.00  0.00    +0.000 A 
ATOM     12  H   UNL     1       5.247   2.263  17.961  0.00  0.00    +0.000 HD
ENDROOT
BRANCH   9  13
ATOM     13  C   UNL     1       5.686   4.385  16.571  0.00  0.00    +0.000 A 
ATOM     14  C   UNL     1       5.075   4.188  15.309  0.00  0.00    +0.000 A 
ATOM     15  C   UNL     1       5.756   4.445  14.119  0.00  0.00    +0.000 A 
ATOM     16  C   UNL     1       7.073   4.858  14.167  0.00  0.00    +0.000 A 
ATOM     17  C   UNL     1       7.715   4.979  15.399  0.00  0.00    +0.000 A 
ATOM     18  C   UNL     1       7.048   4.749  16.622  0.00  0.00    +0.000 A 
BRANCH  18  19
ATOM     19  O   UNL     1       7.676   4.912  17.841  0.00  0.00    +0.000 OA
BRANCH  19  20
ATOM     20  C   UNL     1       7.592   6.229  18.403  0.00  0.00    +0.000 C 
BRANCH  20  21
ATOM     21  C   UNL     1       7.445   7.323  17.351  0.00  0.00    +0.000 C 
ATOM     22  C   UNL     1       8.004   8.657  17.812  0.00  0.00    +0.000 C 
ENDBRANCH  20  21
ENDBRANCH  19  20
ENDBRANCH  18  19
ENDBRANCH   9  13
BRANCH   1  23
ATOM     23  C   UNL     1       2.204   7.240  19.726  0.00  0.00    +0.000 C 
BRANCH  23  24
ATOM     24  C   UNL     1       1.488   7.956  20.880  0.00  0.00    +0.000 C 
BRANCH  24  26
ATOM     25  C   UNL     1      -0.159   9.758  21.466  0.00  0.00    +0.000 C 
ATOM     26  C   UNL     1       0.827   9.254  20.423  0.00  0.00    +0.000 C 
ENDBRANCH  24  26
ENDBRANCH  23  24
ENDBRANCH   1  23
TORSDOF 7
ENDMDL
MODEL 2
REMARK VINA RESULT:      -7.9      0.954      1.170
REMARK  Name = 
REMARK  10 active torsions:
REMARK  status: ('A' for Active; 'I' for Inactive)
REMARK    1  A    between atoms: C_1  and  C_2
REMARK    2  A    between atoms: C_2  and  C_3
REMARK    3  A    between atoms: C_3  and  C_4
REMARK    4  A    between atoms: C_4  and  N_5
REMARK    5  A    between atoms: C_7  and  C_8
REMARK    6  A    between atoms: C_13  and  C_14
REMARK    7  A    between atoms: C_19  and  O_20
REMARK    8  A    between atoms: O_20  and  C_21
REMARK    9  A    between atoms: C_21  and  C_22
REMARK   10  A    between atoms: C_22  and  C_23
REMARK                            x       y       z     vdW  Elec       q    Type
REMARK                         _______ _______ _______ _____ _____    ______ ____
ROOT
ATOM      1  N   UNL     1       2.576   5.760  19.191  0.00  0.00    +0.000 N 
ATOM      2  N   UNL     1       1.788   5.134  20.102  0.00  0.00    +0.000 NA
ATOM      3  C   UNL     1       2.084   3.833  19.965  0.00  0.00    +0.000 A 
ATOM      4  C   UNL     1       1.387   2.799  20.767  0.00  0.00    +0.000 C 
ATOM      5  C   UNL     1       3.047   3.647  18.960  0.00  0.00    +0.000 A 
ATOM      6  C   UNL     1       3.688   2.502  18.399  0.00  0.00    +0.000 A 
ATOM      7  O   UNL     1       3.546   1.354  18.789  0.00  0.00    +0.000 OA
ATOM      8  N   UNL     1       4.489   2.836  17.329  0.00  0.00    +0.000 N 
ATOM      9  C   UNL     1       4.692   4.138  16.837  0.00  0.00    +0.000 A 
ATOM     10  N   UNL     1       4.139   5.190  17.382  0.00  0.00    +0.000 NA
ATOM     11  C   UNL     1       3.327   4.890  18.441  0.00  0.00    +0.000 A 
ATOM     12  H   UNL     1       4.906   2.036  16.877  0.00  0.00    +0.000 HD
ENDROOT
BRANCH   9  13
ATOM     13  C   UNL     1       5.589   4.185  15.634  0.00  0.00    +0.000 A 
ATOM     14  C   UNL     1       5.028   3.730  14.417  0.00  0.00    +0.000 A 
ATOM     15  C   UNL     1       5.673   3.927  13.196  0.00  0.00    +0.000 A 
ATOM     16  C   UNL     1       6.912   4.537  13.175  0.00  0.00    +0.000 A 
ATOM     17  C   UNL     1       7.516   4.918  14.373  0.00  0.00    +0.000 A 
ATOM     18  C   UNL     1       6.879   4.754  15.622  0.00  0.00    +0.000 A 
BRANCH  18  19
ATOM     19  O   UNL     1       7.463   5.172  16.802  0.00  0.00    +0.000 OA
BRANCH  19  20
ATOM     20  C   UNL     1       7.410   6.585  17.045  0.00  0.00    +0.000 C 
BRANCH  20  21
ATOM     21  C   UNL     1       7.877   6.972  18.444  0.00  0.00    +0.000 C 
ATOM     22  C   UNL     1       7.944   5.786  19.388  0.00  0.00    +0.000 C 
ENDBRANCH  20  21
ENDBRANCH  19  20
ENDBRANCH  18  19
ENDBRANCH   9  13
BRANCH   1  23
ATOM     23  C   UNL     1       2.512   7.203  19.047  0.00  0.00    +0.000 C 
BRANCH  23  24
ATOM     24  C   UNL     1       1.800   7.906  20.212  0.00  0.00    +0.000 C 
BRANCH  24  26
ATOM     25  C   UNL     1      -0.038   9.544  20.702  0.00  0.00    +0.000 C 
ATOM     26  C   UNL     1       1.108   9.192  19.767  0.00  0.00    +0.000 C 
ENDBRANCH  24  26
ENDBRANCH  23  24
ENDBRANCH   1  23
TORSDOF 7
ENDMDL
MODEL 3
REMARK VINA RESULT:      -7.9      3.874      6.728
REMARK  Name = 
REMARK  10 active torsions:
REMARK  status: ('A' for Active; 'I' for Inactive)
REMARK    1  A    between atoms: C_1  and  C_2
REMARK    2  A    between atoms: C_2  and  C_3
REMARK    3  A    between atoms: C_3  and  C_4
REMARK    4  A    between atoms: C_4  and  N_5
REMARK    5  A    between atoms: C_7  and  C_8
REMARK    6  A    between atoms: C_13  and  C_14
REMARK    7  A    between atoms: C_19  and  O_20
REMARK    8  A    between atoms: O_20  and  C_21
REMARK    9  A    between atoms: C_21  and  C_22
REMARK   10  A    between atoms: C_22  and  C_23
REMARK                            x       y       z     vdW  Elec       q    Type
REMARK                         _______ _______ _______ _____ _____    ______ ____
ROOT
ATOM      1  N   UNL     1      -1.036  11.096  19.525  0.00  0.00    +0.000 N 
ATOM      2  N   UNL     1      -1.621  11.710  20.586  0.00  0.00    +0.000 NA
ATOM      3  C   UNL     1      -0.966  11.234  21.654  0.00  0.00    +0.000 A 
ATOM      4  C   UNL     1      -1.346  11.635  23.029  0.00  0.00    +0.000 C 
ATOM      5  C   UNL     1       0.020  10.314  21.260  0.00  0.00    +0.000 A 
ATOM      6  C   UNL     1       0.967   9.511  21.964  0.00  0.00    +0.000 A 
ATOM      7  O   UNL     1       1.154   9.539  23.170  0.00  0.00    +0.000 OA
ATOM      8  N   UNL     1       1.649   8.663  21.120  0.00  0.00    +0.000 N 
ATOM      9  C   UNL     1       1.476   8.588  19.726  0.00  0.00    +0.000 A 
ATOM     10  N   UNL     1       0.641   9.358  19.078  0.00  0.00    +0.000 NA
ATOM     11  C   UNL     1      -0.062  10.204  19.891  0.00  0.00    +0.000 A 
ATOM     12  H   UNL     1       2.281   8.042  21.602  0.00  0.00    +0.000 HD
ENDROOT
BRANCH   9  13
ATOM     13  C   UNL     1       2.334   7.540  19.078  0.00  0.00    +0.000 A 
ATOM     14  C   UNL     1       3.019   7.932  17.902  0.00  0.00    +0.000 A 
ATOM     15  C   UNL     1       4.010   7.133  17.334  0.00  0.00    +0.000 A 
ATOM     16  C   UNL     1       4.302   5.907  17.901  0.00  0.00    +0.000 A 
ATOM     17  C   UNL     1       3.580   5.471  19.011  0.00  0.00    +0.000 A 
ATOM     18  C   UNL     1       2.587   6.265  19.624  0.00  0.00    +0.000 A 
BRANCH  18  19
ATOM     19  O   UNL     1       1.904   5.845  20.749  0.00  0.00    +0.000 OA
BRANCH  19  20
ATOM     20  C   UNL     1       2.118   4.475  21.119  0.00  0.00    +0.000 C 
BRANCH  20  21
ATOM     21  C   UNL     1       1.016   3.541  20.631  0.00  0.00    +0.000 C 
ATOM     22  C   UNL     1       1.539   2.450  19.714  0.00  0.00    +0.000 C 
ENDBRANCH  20  21
ENDBRANCH  19  20
ENDBRANCH  18  19
ENDBRANCH   9  13
BRANCH   1  23
ATOM     23  C   UNL     1      -1.509  11.368  18.180  0.00  0.00    +0.000 C 
BRANCH  23  24
ATOM     24  C   UNL     1      -2.488  10.312  17.646  0.00  0.00    +0.000 C 
BRANCH  24  26
ATOM     25  C   UNL     1      -2.845  10.333  15.161  0.00  0.00    +0.000 C 
ATOM     26  C   UNL     1      -3.342  10.852  16.502  0.00  0.00    +0.000 C 
ENDBRANCH  24  26
ENDBRANCH  23  24
ENDBRANCH   1  23
TORSDOF 7
ENDMDL
MODEL 4
REMARK VINA RESULT:      -7.9      1.854      3.745
REMARK  Name = 
REMARK  10 active torsions:
REMARK  status: ('A' for Active; 'I' for Inactive)
REMARK    1  A    between atoms: C_1  and  C_2
REMARK    2  A    between atoms: C_2  and  C_3
REMARK    3  A    between atoms: C_3  and  C_4
REMARK    4  A    between atoms: C_4  and  N_5
REMARK    5  A    between atoms: C_7  and  C_8
REMARK    6  A    between atoms: C_13  and  C_14
REMARK    7  A    between atoms: C_19  and  O_20
REMARK    8  A    between atoms: O_20  and  C_21
REMARK    9  A    between atoms: C_21  and  C_22
REMARK   10  A    between atoms: C_22  and  C_23
REMARK                            x       y       z     vdW  Elec       q    Type
REMARK                         _______ _______ _______ _____ _____    ______ ____
ROOT
ATOM      1  N   UNL     1       2.048   5.602  20.671  0.00  0.00    +0.000 N 
ATOM      2  N   UNL     1       1.282   6.587  21.207  0.00  0.00    +0.000 NA
ATOM      3  C   UNL     1       1.427   7.621  20.366  0.00  0.00    +0.000 A 
ATOM      4  C   UNL     1       0.772   8.924  20.632  0.00  0.00    +0.000 C 
ATOM      5  C   UNL     1       2.294   7.285  19.312  0.00  0.00    +0.000 A 
ATOM      6  C   UNL     1       2.804   7.992  18.183  0.00  0.00    +0.000 A 
ATOM      7  O   UNL     1       2.482   9.125  17.858  0.00  0.00    +0.000 OA
ATOM      8  N   UNL     1       3.737   7.251  17.492  0.00  0.00    +0.000 N 
ATOM      9  C   UNL     1       4.144   5.945  17.818  0.00  0.00    +0.000 A 
ATOM     10  N   UNL     1       3.640   5.282  18.827  0.00  0.00    +0.000 NA
ATOM     11  C   UNL     1       2.718   5.997  19.541  0.00  0.00    +0.000 A 
ATOM     12  H   UNL     1       4.156   7.753  16.724  0.00  0.00    +0.000 HD
ENDROOT
BRANCH   9  13
ATOM     13  C   UNL     1       5.205   5.409  16.903  0.00  0.00    +0.000 A 
ATOM     14  C   UNL     1       4.785   4.449  15.951  0.00  0.00    +0.000 A 
ATOM     15  C   UNL     1       5.616   4.042  14.908  0.00  0.00    +0.000 A 
ATOM     16  C   UNL     1       6.899   4.548  14.825  0.00  0.00    +0.000 A 
ATOM     17  C   UNL     1       7.357   5.432  15.802  0.00  0.00    +0.000 A 
ATOM     18  C   UNL     1       6.533   5.882  16.856  0.00  0.00    +0.000 A 
BRANCH  18  19
ATOM     19  O   UNL     1       6.978   6.791  17.796  0.00  0.00    +0.000 OA
BRANCH  19  20
ATOM     20  C   UNL     1       8.010   7.681  17.347  0.00  0.00    +0.000 C 
BRANCH  20  21
ATOM     21  C   UNL     1       7.802   9.121  17.802  0.00  0.00    +0.000 C 
ATOM     22  C   UNL     1       8.884   9.596  18.756  0.00  0.00    +0.000 C 
ENDBRANCH  20  21
ENDBRANCH  19  20
ENDBRANCH  18  19
ENDBRANCH   9  13
BRANCH   1  23
ATOM     23  C   UNL     1       2.143   4.315  21.336  0.00  0.00    +0.000 C 
BRANCH  23  24
ATOM     24  C   UNL     1       1.102   3.295  20.852  0.00  0.00    +0.000 C 
BRANCH  24  26
ATOM     25  C   UNL     1       1.176   2.689  18.417  0.00  0.00    +0.000 C 
ATOM     26  C   UNL     1       1.679   2.341  19.810  0.00  0.00    +0.000 C 
ENDBRANCH  24  26
ENDBRANCH  23  24
ENDBRANCH   1  23
TORSDOF 7
ENDMDL
MODEL 5
REMARK VINA RESULT:      -7.7      1.465      1.827
REMARK  Name = 
REMARK  10 active torsions:
REMARK  status: ('A' for Active; 'I' for Inactive)
REMARK    1  A    between atoms: C_1  and  C_2
REMARK    2  A    between atoms: C_2  and  C_3
REMARK    3  A    between atoms: C_3  and  C_4
REMARK    4  A    between atoms: C_4  and  N_5
REMARK    5  A    between atoms: C_7  and  C_8
REMARK    6  A    between atoms: C_13  and  C_14
REMARK    7  A    between atoms: C_19  and  O_20
REMARK    8  A    between atoms: O_20  and  C_21
REMARK    9  A    between atoms: C_21  and  C_22
REMARK   10  A    between atoms: C_22  and  C_23
REMARK                            x       y       z     vdW  Elec       q    Type
REMARK                         _______ _______ _______ _____ _____    ______ ____
ROOT
ATOM      1  N   UNL     1       2.874   6.741  18.365  0.00  0.00    +0.000 N 
ATOM      2  N   UNL     1       2.084   6.334  19.391  0.00  0.00    +0.000 NA
ATOM      3  C   UNL     1       2.308   5.015  19.485  0.00  0.00    +0.000 A 
ATOM      4  C   UNL     1       1.585   4.183  20.475  0.00  0.00    +0.000 C 
ATOM      5  C   UNL     1       3.228   4.598  18.509  0.00  0.00    +0.000 A 
ATOM      6  C   UNL     1       3.792   3.337  18.150  0.00  0.00    +0.000 A 
ATOM      7  O   UNL     1       3.603   2.288  18.745  0.00  0.00    +0.000 OA
ATOM      8  N   UNL     1       4.574   3.428  17.021  0.00  0.00    +0.000 N 
ATOM      9  C   UNL     1       4.829   4.607  16.297  0.00  0.00    +0.000 A 
ATOM     10  N   UNL     1       4.348   5.770  16.656  0.00  0.00    +0.000 NA
ATOM     11  C   UNL     1       3.555   5.711  17.769  0.00  0.00    +0.000 A 
ATOM     12  H   UNL     1       4.935   2.538  16.712  0.00  0.00    +0.000 HD
ENDROOT
BRANCH   9  13
ATOM     13  C   UNL     1       5.688   4.388  15.087  0.00  0.00    +0.000 A 
ATOM     14  C   UNL     1       5.084   3.703  14.006  0.00  0.00    +0.000 A 
ATOM     15  C   UNL     1       5.694   3.631  12.754  0.00  0.00    +0.000 A 
ATOM     16  C   UNL     1       6.940   4.199  12.572  0.00  0.00    +0.000 A 
ATOM     17  C   UNL     1       7.585   4.806  13.649  0.00  0.00    +0.000 A 
ATOM     18  C   UNL     1       6.986   4.917  14.922  0.00  0.00    +0.000 A 
BRANCH  18  19
ATOM     19  O   UNL     1       7.612   5.557  15.974  0.00  0.00    +0.000 OA
BRANCH  19  20
ATOM     20  C   UNL     1       7.768   4.769  17.164  0.00  0.00    +0.000 C 
BRANCH  20  21
ATOM     21  C   UNL     1       7.632   5.583  18.445  0.00  0.00    +0.000 C 
ATOM     22  C   UNL     1       7.852   7.068  18.222  0.00  0.00    +0.000 C 
ENDBRANCH  20  21
ENDBRANCH  19  20
ENDBRANCH  18  19
ENDBRANCH   9  13
BRANCH   1  23
ATOM     23  C   UNL     1       2.879   8.137  17.964  0.00  0.00    +0.000 C 
BRANCH  23  24
ATOM     24  C   UNL     1       1.475   8.741  17.820  0.00  0.00    +0.000 C 
BRANCH  24  26
ATOM     25  C   UNL     1       0.094  10.024  19.479  0.00  0.00    +0.000 C 
ATOM     26  C   UNL     1       1.333  10.048  18.597  0.00  0.00    +0.000 C 
ENDBRANCH  24  26
ENDBRANCH  23  24
ENDBRANCH   1  23
TORSDOF 7
ENDMDL
MODEL 6
REMARK VINA RESULT:      -7.7      3.014      7.451
REMARK  Name = 
REMARK  10 active torsions:
REMARK  status: ('A' for Active; 'I' for Inactive)
REMARK    1  A    between atoms: C_1  and  C_2
REMARK    2  A    between atoms: C_2  and  C_3
REMARK    3  A    between atoms: C_3  and  C_4
REMARK    4  A    between atoms: C_4  and  N_5
REMARK    5  A    between atoms: C_7  and  C_8
REMARK    6  A    between atoms: C_13  and  C_14
REMARK    7  A    between atoms: C_19  and  O_20
REMARK    8  A    between atoms: O_20  and  C_21
REMARK    9  A    between atoms: C_21  and  C_22
REMARK   10  A    between atoms: C_22  and  C_23
REMARK                            x       y       z     vdW  Elec       q    Type
REMARK                         _______ _______ _______ _____ _____    ______ ____
ROOT
ATOM      1  N   UNL     1       5.985   3.691  12.808  0.00  0.00    +0.000 N 
ATOM      2  N   UNL     1       7.070   4.293  12.256  0.00  0.00    +0.000 NA
ATOM      3  C   UNL     1       7.586   5.031  13.250  0.00  0.00    +0.000 A 
ATOM      4  C   UNL     1       8.774   5.890  13.031  0.00  0.00    +0.000 C 
ATOM      5  C   UNL     1       6.816   4.899  14.417  0.00  0.00    +0.000 A 
ATOM      6  C   UNL     1       6.892   5.461  15.726  0.00  0.00    +0.000 A 
ATOM      7  O   UNL     1       7.787   6.188  16.129  0.00  0.00    +0.000 OA
ATOM      8  N   UNL     1       5.811   5.106  16.501  0.00  0.00    +0.000 N 
ATOM      9  C   UNL     1       4.753   4.272  16.093  0.00  0.00    +0.000 A 
ATOM     10  N   UNL     1       4.710   3.721  14.908  0.00  0.00    +0.000 NA
ATOM     11  C   UNL     1       5.766   4.065  14.109  0.00  0.00    +0.000 A 
ATOM     12  H   UNL     1       5.811   5.541  17.412  0.00  0.00    +0.000 HD
ENDROOT
BRANCH   9  13
ATOM     13  C   UNL     1       3.697   4.096  17.144  0.00  0.00    +0.000 A 
ATOM     14  C   UNL     1       3.262   2.770  17.378  0.00  0.00    +0.000 A 
ATOM     15  C   UNL     1       2.456   2.447  18.469  0.00  0.00    +0.000 A 
ATOM     16  C   UNL     1       2.030   3.449  19.319  0.00  0.00    +0.000 A 
ATOM     17  C   UNL     1       2.383   4.773  19.056  0.00  0.00    +0.000 A 
ATOM     18  C   UNL     1       3.216   5.130  17.975  0.00  0.00    +0.000 A 
BRANCH  18  19
ATOM     19  O   UNL     1       3.597   6.438  17.744  0.00  0.00    +0.000 OA
BRANCH  19  20
ATOM     20  C   UNL     1       2.875   7.427  18.492  0.00  0.00    +0.000 C 
BRANCH  20  21
ATOM     21  C   UNL     1       1.891   8.224  17.643  0.00  0.00    +0.000 C 
ATOM     22  C   UNL     1       1.848   9.693  18.021  0.00  0.00    +0.000 C 
ENDBRANCH  20  21
ENDBRANCH  19  20
ENDBRANCH  18  19
ENDBRANCH   9  13
BRANCH   1  23
ATOM     23  C   UNL     1       5.159   2.809  12.003  0.00  0.00    +0.000 C 
BRANCH  23  24
ATOM     24  C   UNL     1       3.823   3.436  11.578  0.00  0.00    +0.000 C 
BRANCH  24  26
ATOM     25  C   UNL     1       2.772   4.401   9.512  0.00  0.00    +0.000 C 
ATOM     26  C   UNL     1       3.540   3.223  10.092  0.00  0.00    +0.000 C 
ENDBRANCH  24  26
ENDBRANCH  23  24
ENDBRANCH   1  23
TORSDOF 7
ENDMDL
MODEL 7
REMARK VINA RESULT:      -7.7      0.935      1.175
REMARK  Name = 
REMARK  10 active torsions:
REMARK  status: ('A' for Active; 'I' for Inactive)
REMARK    1  A    between atoms: C_1  and  C_2
REMARK    2  A    between atoms: C_2  and  C_3
REMARK    3  A    between atoms: C_3  and  C_4
REMARK    4  A    between atoms: C_4  and  N_5
REMARK    5  A    between atoms: C_7  and  C_8
REMARK    6  A    between atoms: C_13  and  C_14
REMARK    7  A    between atoms: C_19  and  O_20
REMARK    8  A    between atoms: O_20  and  C_21
REMARK    9  A    between atoms: C_21  and  C_22
REMARK   10  A    between atoms: C_22  and  C_23
REMARK                            x       y       z     vdW  Elec       q    Type
REMARK                         _______ _______ _______ _____ _____    ______ ____
ROOT
ATOM      1  N   UNL     1       2.580   5.968  19.851  0.00  0.00    +0.000 N 
ATOM      2  N   UNL     1       1.938   5.347  20.874  0.00  0.00    +0.000 NA
ATOM      3  C   UNL     1       2.469   4.116  20.906  0.00  0.00    +0.000 A 
ATOM      4  C   UNL     1       1.992   3.099  21.873  0.00  0.00    +0.000 C 
ATOM      5  C   UNL     1       3.433   3.966  19.895  0.00  0.00    +0.000 A 
ATOM      6  C   UNL     1       4.267   2.889  19.470  0.00  0.00    +0.000 A 
ATOM      7  O   UNL     1       4.349   1.802  20.022  0.00  0.00    +0.000 OA
ATOM      8  N   UNL     1       4.973   3.204  18.331  0.00  0.00    +0.000 N 
ATOM      9  C   UNL     1       4.920   4.437  17.654  0.00  0.00    +0.000 A 
ATOM     10  N   UNL     1       4.190   5.438  18.073  0.00  0.00    +0.000 NA
ATOM     11  C   UNL     1       3.466   5.151  19.198  0.00  0.00    +0.000 A 
ATOM     12  H   UNL     1       5.524   2.438  17.976  0.00  0.00    +0.000 HD
ENDROOT
BRANCH   9  13
ATOM     13  C   UNL     1       5.772   4.473  16.419  0.00  0.00    +0.000 A 
ATOM     14  C   UNL     1       5.229   3.854  15.267  0.00  0.00    +0.000 A 
ATOM     15  C   UNL     1       5.814   4.010  14.011  0.00  0.00    +0.000 A 
ATOM     16  C   UNL     1       6.977   4.746  13.890  0.00  0.00    +0.000 A 
ATOM     17  C   UNL     1       7.569   5.294  15.027  0.00  0.00    +0.000 A 
ATOM     18  C   UNL     1       6.990   5.175  16.309  0.00  0.00    +0.000 A 
BRANCH  18  19
ATOM     19  O   UNL     1       7.558   5.756  17.426  0.00  0.00    +0.000 OA
BRANCH  19  20
ATOM     20  C   UNL     1       7.028   7.040  17.785  0.00  0.00    +0.000 C 
BRANCH  20  21
ATOM     21  C   UNL     1       7.940   8.198  17.393  0.00  0.00    +0.000 C 
ATOM     22  C   UNL     1       8.573   8.875  18.595  0.00  0.00    +0.000 C 
ENDBRANCH  20  21
ENDBRANCH  19  20
ENDBRANCH  18  19
ENDBRANCH   9  13
BRANCH   1  23
ATOM     23  C   UNL     1       2.244   7.339  19.512  0.00  0.00    +0.000 C 
BRANCH  23  24
ATOM     24  C   UNL     1       2.379   7.653  18.015  0.00  0.00    +0.000 C 
BRANCH  24  26
ATOM     25  C   UNL     1       0.923   9.636  18.517  0.00  0.00    +0.000 C 
ATOM     26  C   UNL     1       2.111   9.126  17.715  0.00  0.00    +0.000 C 
ENDBRANCH  24  26
ENDBRANCH  23  24
ENDBRANCH   1  23
TORSDOF 7
ENDMDL
MODEL 8
REMARK VINA RESULT:      -7.5      0.874      1.077
REMARK  Name = 
REMARK  10 active torsions:
REMARK  status: ('A' for Active; 'I' for Inactive)
REMARK    1  A    between atoms: C_1  and  C_2
REMARK    2  A    between atoms: C_2  and  C_3
REMARK    3  A    between atoms: C_3  and  C_4
REMARK    4  A    between atoms: C_4  and  N_5
REMARK    5  A    between atoms: C_7  and  C_8
REMARK    6  A    between atoms: C_13  and  C_14
REMARK    7  A    between atoms: C_19  and  O_20
REMARK    8  A    between atoms: O_20  and  C_21
REMARK    9  A    between atoms: C_21  and  C_22
REMARK   10  A    between atoms: C_22  and  C_23
REMARK                            x       y       z     vdW  Elec       q    Type
REMARK                         _______ _______ _______ _____ _____    ______ ____
ROOT
ATOM      1  N   UNL     1       2.436   6.082  19.999  0.00  0.00    +0.000 N 
ATOM      2  N   UNL     1       1.784   5.408  20.981  0.00  0.00    +0.000 NA
ATOM      3  C   UNL     1       2.320   4.179  20.956  0.00  0.00    +0.000 A 
ATOM      4  C   UNL     1       1.835   3.113  21.865  0.00  0.00    +0.000 C 
ATOM      5  C   UNL     1       3.296   4.083  19.951  0.00  0.00    +0.000 A 
ATOM      6  C   UNL     1       4.139   3.032  19.483  0.00  0.00    +0.000 A 
ATOM      7  O   UNL     1       4.218   1.919  19.980  0.00  0.00    +0.000 OA
ATOM      8  N   UNL     1       4.857   3.407  18.369  0.00  0.00    +0.000 N 
ATOM      9  C   UNL     1       4.808   4.672  17.756  0.00  0.00    +0.000 A 
ATOM     10  N   UNL     1       4.069   5.648  18.215  0.00  0.00    +0.000 NA
ATOM     11  C   UNL     1       3.333   5.303  19.315  0.00  0.00    +0.000 A 
ATOM     12  H   UNL     1       5.416   2.661  17.983  0.00  0.00    +0.000 HD
ENDROOT
BRANCH   9  13
ATOM     13  C   UNL     1       5.674   4.773  16.534  0.00  0.00    +0.000 A 
ATOM     14  C   UNL     1       5.708   3.634  15.695  0.00  0.00    +0.000 A 
ATOM     15  C   UNL     1       6.290   3.676  14.428  0.00  0.00    +0.000 A 
ATOM     16  C   UNL     1       6.892   4.843  13.997  0.00  0.00    +0.000 A 
ATOM     17  C   UNL     1       6.940   5.949  14.844  0.00  0.00    +0.000 A 
ATOM     18  C   UNL     1       6.340   5.947  16.122  0.00  0.00    +0.000 A 
BRANCH  18  19
ATOM     19  O   UNL     1       6.353   7.059  16.940  0.00  0.00    +0.000 OA
BRANCH  19  20
ATOM     20  C   UNL     1       7.621   7.363  17.539  0.00  0.00    +0.000 C 
BRANCH  20  21
ATOM     21  C   UNL     1       7.870   8.860  17.694  0.00  0.00    +0.000 C 
ATOM     22  C   UNL     1       8.898   9.174  18.766  0.00  0.00    +0.000 C 
ENDBRANCH  20  21
ENDBRANCH  19  20
ENDBRANCH  18  19
ENDBRANCH   9  13
BRANCH   1  23
ATOM     23  C   UNL     1       2.099   7.468  19.725  0.00  0.00    +0.000 C 
BRANCH  23  24
ATOM     24  C   UNL     1       1.332   8.151  20.867  0.00  0.00    +0.000 C 
BRANCH  24  26
ATOM     25  C   UNL     1       0.971   9.736  18.953  0.00  0.00    +0.000 C 
ATOM     26  C   UNL     1       0.757   9.500  20.440  0.00  0.00    +0.000 C 
ENDBRANCH  24  26
ENDBRANCH  23  24
ENDBRANCH   1  23
TORSDOF 7
ENDMDL
MODEL 9
REMARK VINA RESULT:      -7.5      2.155      6.610
REMARK  Name = 
REMARK  10 active torsions:
REMARK  status: ('A' for Active; 'I' for Inactive)
REMARK    1  A    between atoms: C_1  and  C_2
REMARK    2  A    between atoms: C_2  and  C_3
REMARK    3  A    between atoms: C_3  and  C_4
REMARK    4  A    between atoms: C_4  and  N_5
REMARK    5  A    between atoms: C_7  and  C_8
REMARK    6  A    between atoms: C_13  and  C_14
REMARK    7  A    between atoms: C_19  and  O_20
REMARK    8  A    between atoms: O_20  and  C_21
REMARK    9  A    between atoms: C_21  and  C_22
REMARK   10  A    between atoms: C_22  and  C_23
REMARK                            x       y       z     vdW  Elec       q    Type
REMARK                         _______ _______ _______ _____ _____    ______ ____
ROOT
ATOM      1  N   UNL     1       4.767   4.723  17.784  0.00  0.00    +0.000 N 
ATOM      2  N   UNL     1       5.104   3.533  18.345  0.00  0.00    +0.000 NA
ATOM      3  C   UNL     1       4.313   3.434  19.423  0.00  0.00    +0.000 A 
ATOM      4  C   UNL     1       4.411   2.276  20.343  0.00  0.00    +0.000 C 
ATOM      5  C   UNL     1       3.492   4.568  19.542  0.00  0.00    +0.000 A 
ATOM      6  C   UNL     1       2.507   4.986  20.486  0.00  0.00    +0.000 A 
ATOM      7  O   UNL     1       2.109   4.320  21.429  0.00  0.00    +0.000 OA
ATOM      8  N   UNL     1       2.056   6.261  20.226  0.00  0.00    +0.000 N 
ATOM      9  C   UNL     1       2.476   7.072  19.156  0.00  0.00    +0.000 A 
ATOM     10  N   UNL     1       3.345   6.668  18.266  0.00  0.00    +0.000 NA
ATOM     11  C   UNL     1       3.821   5.408  18.503  0.00  0.00    +0.000 A 
ATOM     12  H   UNL     1       1.403   6.602  20.915  0.00  0.00    +0.000 HD
ENDROOT
BRANCH   9  13
ATOM     13  C   UNL     1       1.836   8.430  19.154  0.00  0.00    +0.000 A 
ATOM     14  C   UNL     1       1.764   9.085  17.901  0.00  0.00    +0.000 A 
ATOM     15  C   UNL     1       1.003  10.241  17.724  0.00  0.00    +0.000 A 
ATOM     16  C   UNL     1       0.340  10.789  18.805  0.00  0.00    +0.000 A 
ATOM     17  C   UNL     1       0.467  10.201  20.063  0.00  0.00    +0.000 A 
ATOM     18  C   UNL     1       1.210   9.019  20.271  0.00  0.00    +0.000 A 
BRANCH  18  19
ATOM     19  O   UNL     1       1.297   8.418  21.512  0.00  0.00    +0.000 OA
BRANCH  19  20
ATOM     20  C   UNL     1       1.196   9.308  22.633  0.00  0.00    +0.000 C 
BRANCH  20  21
ATOM     21  C   UNL     1      -0.170   9.271  23.309  0.00  0.00    +0.000 C 
ATOM     22  C   UNL     1      -0.960  10.551  23.103  0.00  0.00    +0.000 C 
ENDBRANCH  20  21
ENDBRANCH  19  20
ENDBRANCH  18  19
ENDBRANCH   9  13
BRANCH   1  23
ATOM     23  C   UNL     1       5.444   5.174  16.582  0.00  0.00    +0.000 C 
BRANCH  23  24
ATOM     24  C   UNL     1       6.959   5.349  16.758  0.00  0.00    +0.000 C 
BRANCH  24  26
ATOM     25  C   UNL     1       7.811   5.995  19.029  0.00  0.00    +0.000 C 
ATOM     26  C   UNL     1       7.296   6.508  17.693  0.00  0.00    +0.000 C 
ENDBRANCH  24  26
ENDBRANCH  23  24
ENDBRANCH   1  23
TORSDOF 7
ENDMDL
