MODEL 1
REMARK VINA RESULT:      -8.2      0.000      0.000
REMARK  Name = 
REMARK  6 active torsions:
REMARK  status: ('A' for Active; 'I' for Inactive)
REMARK    1  A    between atoms: C_1  and  C_2
REMARK    2  A    between atoms: C_5  and  C_6
REMARK    3  A    between atoms: C_12  and  C_13
REMARK    4  A    between atoms: N_15  and  C_16
REMARK    5  A    between atoms: C_16  and  C_17
REMARK    6  A    between atoms: C_17  and  N_18
REMARK                            x       y       z     vdW  Elec       q    Type
REMARK                         _______ _______ _______ _____ _____    ______ ____
ROOT
ATOM      1  C   UNL     1      -0.914  13.082  20.629  0.00  0.00    +0.000 C 
ATOM      2  C   UNL     1      -0.375  11.864  20.395  0.00  0.00    +0.000 C 
ATOM      3  S   UNL     1       0.265  11.539  18.797  0.00  0.00    +0.000 S 
ATOM      4  C   UNL     1       1.061   9.958  18.961  0.00  0.00    +0.000 A 
ATOM      5  C   UNL     1       1.565   9.317  17.816  0.00  0.00    +0.000 A 
ATOM      6  C   UNL     1       2.163   8.044  17.892  0.00  0.00    +0.000 A 
ATOM      7  C   UNL     1       2.294   7.405  19.129  0.00  0.00    +0.000 A 
ATOM      8  C   UNL     1       1.820   8.059  20.272  0.00  0.00    +0.000 A 
ATOM      9  C   UNL     1       1.184   9.306  20.182  0.00  0.00    +0.000 A 
ATOM     10  N   UNL     1       0.583   9.783  21.346  0.00  0.00    +0.000 N 
ATOM     11  C   UNL     1      -0.333  10.785  21.434  0.00  0.00    +0.000 C 
ATOM     12  O   UNL     1      -1.091  10.755  22.403  0.00  0.00    +0.000 OA
ATOM     13  H   UNL     1       0.575   9.181  22.160  0.00  0.00    +0.000 HD
ENDROOT
BRANCH   1  18
ATOM     14  C   UNL     1      -3.014  15.307  25.590  0.00  0.00    +0.000 C 
ATOM     15  C   UNL     1      -2.497  14.769  24.289  0.00  0.00    +0.000 A 
ATOM     16  C   UNL     1      -3.356  14.173  23.366  0.00  0.00    +0.000 A 
ATOM     17  C   UNL     1      -2.857  13.618  22.179  0.00  0.00    +0.000 A 
ATOM     18  C   UNL     1      -1.499  13.692  21.851  0.00  0.00    +0.000 A 
ATOM     19  C   UNL     1      -0.640  14.284  22.790  0.00  0.00    +0.000 A 
ATOM     20  C   UNL     1      -1.131  14.811  23.997  0.00  0.00    +0.000 A 
ENDBRANCH   1  18
BRANCH   7  21
ATOM     21  C   UNL     1       2.835   6.022  19.317  0.00  0.00    +0.000 C 
ATOM     22  O   UNL     1       2.426   5.337  20.248  0.00  0.00    +0.000 OA
ATOM     23  N   UNL     1       3.810   5.589  18.444  0.00  0.00    +0.000 N 
ATOM     24  H   UNL     1       4.118   6.194  17.695  0.00  0.00    +0.000 HD
BRANCH  23  25
ATOM     25  C   UNL     1       4.443   4.271  18.579  0.00  0.00    +0.000 C 
BRANCH  25  26
ATOM     26  C   UNL     1       5.829   4.404  19.236  0.00  0.00    +0.000 C 
BRANCH  26  27
ATOM     27  N   UNL     1       7.009   4.712  18.440  0.00  0.00    +0.000 NA
ATOM     28  C   UNL     1       7.727   5.956  18.717  0.00  0.00    +0.000 C 
ATOM     29  C   UNL     1       7.539   7.095  17.695  0.00  0.00    +0.000 C 
ATOM     30  O   UNL     1       7.611   6.638  16.339  0.00  0.00    +0.000 OA
ATOM     31  C   UNL     1       6.644   5.606  16.118  0.00  0.00    +0.000 C 
ATOM     32  C   UNL     1       6.943   4.398  17.011  0.00  0.00    +0.000 C 
ENDBRANCH  26  27
ENDBRANCH  25  26
ENDBRANCH  23  25
ENDBRANCH   7  21
TORSDOF 5
ENDMDL
MODEL 2
REMARK VINA RESULT:      -7.9      2.884     11.244
REMARK  Name = 
REMARK  6 active torsions:
REMARK  status: ('A' for Active; 'I' for Inactive)
REMARK    1  A    between atoms: C_1  and  C_2
REMARK    2  A    between atoms: C_5  and  C_6
REMARK    3  A    between atoms: C_12  and  C_13
REMARK    4  A    between atoms: N_15  and  C_16
REMARK    5  A    between atoms: C_16  and  C_17
REMARK    6  A    between atoms: C_17  and  N_18
REMARK                            x       y       z     vdW  Elec       q    Type
REMARK                         _______ _______ _______ _____ _____    ______ ____
ROOT
ATOM      1  C   UNL     1       2.498   7.298  17.956  0.00  0.00    +0.000 C 
ATOM      2  C   UNL     1       1.979   8.229  18.788  0.00  0.00    +0.000 C 
ATOM      3  S   UNL     1       1.843   9.874  18.203  0.00  0.00    +0.000 S 
ATOM      4  C   UNL     1       0.933  10.715  19.477  0.00  0.00    +0.000 A 
ATOM      5  C   UNL     1       0.766  12.109  19.400  0.00  0.00    +0.000 A 
ATOM      6  C   UNL     1       0.091  12.823  20.410  0.00  0.00    +0.000 A 
ATOM      7  C   UNL     1      -0.458  12.142  21.501  0.00  0.00    +0.000 A 
ATOM      8  C   UNL     1      -0.318  10.750  21.559  0.00  0.00    +0.000 A 
ATOM      9  C   UNL     1       0.396  10.053  20.574  0.00  0.00    +0.000 A 
ATOM     10  N   UNL     1       0.638   8.702  20.820  0.00  0.00    +0.000 N 
ATOM     11  C   UNL     1       1.547   7.912  20.187  0.00  0.00    +0.000 C 
ATOM     12  O   UNL     1       1.965   6.940  20.816  0.00  0.00    +0.000 OA
ATOM     13  H   UNL     1       0.354   8.322  21.715  0.00  0.00    +0.000 HD
ENDROOT
BRANCH   1  18
ATOM     14  C   UNL     1       3.591   1.588  18.367  0.00  0.00    +0.000 C 
ATOM     15  C   UNL     1       3.281   3.054  18.299  0.00  0.00    +0.000 A 
ATOM     16  C   UNL     1       2.005   3.503  17.960  0.00  0.00    +0.000 A 
ATOM     17  C   UNL     1       1.738   4.874  17.840  0.00  0.00    +0.000 A 
ATOM     18  C   UNL     1       2.717   5.837  18.111  0.00  0.00    +0.000 A 
ATOM     19  C   UNL     1       4.000   5.376  18.442  0.00  0.00    +0.000 A 
ATOM     20  C   UNL     1       4.282   4.001  18.530  0.00  0.00    +0.000 A 
ENDBRANCH   1  18
BRANCH   7  21
ATOM     21  C   UNL     1      -1.121  12.803  22.669  0.00  0.00    +0.000 C 
ATOM     22  O   UNL     1      -0.450  13.485  23.435  0.00  0.00    +0.000 OA
ATOM     23  N   UNL     1      -2.468  12.581  22.853  0.00  0.00    +0.000 N 
ATOM     24  H   UNL     1      -2.977  12.005  22.197  0.00  0.00    +0.000 HD
BRANCH  23  25
ATOM     25  C   UNL     1      -3.198  13.139  23.999  0.00  0.00    +0.000 C 
BRANCH  25  26
ATOM     26  C   UNL     1      -4.533  12.399  24.199  0.00  0.00    +0.000 C 
BRANCH  26  27
ATOM     27  N   UNL     1      -5.671  12.659  23.327  0.00  0.00    +0.000 NA
ATOM     28  C   UNL     1      -5.602  13.804  22.419  0.00  0.00    +0.000 C 
ATOM     29  C   UNL     1      -6.449  15.033  22.807  0.00  0.00    +0.000 C 
ATOM     30  O   UNL     1      -7.765  14.681  23.247  0.00  0.00    +0.000 OA
ATOM     31  C   UNL     1      -7.688  13.765  24.344  0.00  0.00    +0.000 C 
ATOM     32  C   UNL     1      -7.004  12.468  23.903  0.00  0.00    +0.000 C 
ENDBRANCH  26  27
ENDBRANCH  25  26
ENDBRANCH  23  25
ENDBRANCH   7  21
TORSDOF 5
ENDMDL
MODEL 3
REMARK VINA RESULT:      -7.8      2.718     10.738
REMARK  Name = 
REMARK  6 active torsions:
REMARK  status: ('A' for Active; 'I' for Inactive)
REMARK    1  A    between atoms: C_1  and  C_2
REMARK    2  A    between atoms: C_5  and  C_6
REMARK    3  A    between atoms: C_12  and  C_13
REMARK    4  A    between atoms: N_15  and  C_16
REMARK    5  A    between atoms: C_16  and  C_17
REMARK    6  A    between atoms: C_17  and  N_18
REMARK                            x       y       z     vdW  Elec       q    Type
REMARK                         _______ _______ _______ _____ _____    ______ ____
ROOT
ATOM      1  C   UNL     1       2.604   7.075  17.779  0.00  0.00    +0.000 C 
ATOM      2  C   UNL     1       2.136   8.044  18.599  0.00  0.00    +0.000 C 
ATOM      3  S   UNL     1       2.003   9.670  17.961  0.00  0.00    +0.000 S 
ATOM      4  C   UNL     1       1.162  10.571  19.242  0.00  0.00    +0.000 A 
ATOM      5  C   UNL     1       1.016  11.965  19.122  0.00  0.00    +0.000 A 
ATOM      6  C   UNL     1       0.396  12.725  20.134  0.00  0.00    +0.000 A 
ATOM      7  C   UNL     1      -0.118  12.092  21.270  0.00  0.00    +0.000 A 
ATOM      8  C   UNL     1       0.002  10.701  21.372  0.00  0.00    +0.000 A 
ATOM      9  C   UNL     1       0.662   9.957  20.383  0.00  0.00    +0.000 A 
ATOM     10  N   UNL     1       0.891   8.611  20.667  0.00  0.00    +0.000 N 
ATOM     11  C   UNL     1       1.759   7.783  20.024  0.00  0.00    +0.000 C 
ATOM     12  O   UNL     1       2.187   6.826  20.669  0.00  0.00    +0.000 OA
ATOM     13  H   UNL     1       0.639   8.268  21.586  0.00  0.00    +0.000 HD
ENDROOT
BRANCH   1  18
ATOM     14  C   UNL     1       3.606   1.361  18.334  0.00  0.00    +0.000 C 
ATOM     15  C   UNL     1       3.323   2.830  18.232  0.00  0.00    +0.000 A 
ATOM     16  C   UNL     1       2.030   3.298  17.998  0.00  0.00    +0.000 A 
ATOM     17  C   UNL     1       1.783   4.669  17.844  0.00  0.00    +0.000 A 
ATOM     18  C   UNL     1       2.804   5.617  17.976  0.00  0.00    +0.000 A 
ATOM     19  C   UNL     1       4.103   5.136  18.201  0.00  0.00    +0.000 A 
ATOM     20  C   UNL     1       4.362   3.760  18.322  0.00  0.00    +0.000 A 
ENDBRANCH   1  18
BRANCH   7  21
ATOM     21  C   UNL     1      -0.719  12.806  22.441  0.00  0.00    +0.000 C 
ATOM     22  O   UNL     1      -1.134  12.157  23.394  0.00  0.00    +0.000 OA
ATOM     23  N   UNL     1      -0.814  14.179  22.375  0.00  0.00    +0.000 N 
ATOM     24  H   UNL     1      -0.463  14.670  21.565  0.00  0.00    +0.000 HD
BRANCH  23  25
ATOM     25  C   UNL     1      -1.438  14.966  23.447  0.00  0.00    +0.000 C 
BRANCH  25  26
ATOM     26  C   UNL     1      -2.661  15.732  22.910  0.00  0.00    +0.000 C 
BRANCH  26  27
ATOM     27  N   UNL     1      -3.979  15.111  22.874  0.00  0.00    +0.000 NA
ATOM     28  C   UNL     1      -4.434  14.383  24.059  0.00  0.00    +0.000 C 
ATOM     29  C   UNL     1      -4.421  12.844  23.959  0.00  0.00    +0.000 C 
ATOM     30  O   UNL     1      -4.939  12.366  22.713  0.00  0.00    +0.000 OA
ATOM     31  C   UNL     1      -4.207  12.940  21.625  0.00  0.00    +0.000 C 
ATOM     32  C   UNL     1      -4.371  14.463  21.621  0.00  0.00    +0.000 C 
ENDBRANCH  26  27
ENDBRANCH  25  26
ENDBRANCH  23  25
ENDBRANCH   7  21
TORSDOF 5
ENDMDL
MODEL 4
REMARK VINA RESULT:      -7.8      0.873      1.379
REMARK  Name = 
REMARK  6 active torsions:
REMARK  status: ('A' for Active; 'I' for Inactive)
REMARK    1  A    between atoms: C_1  and  C_2
REMARK    2  A    between atoms: C_5  and  C_6
REMARK    3  A    between atoms: C_12  and  C_13
REMARK    4  A    between atoms: N_15  and  C_16
REMARK    5  A    between atoms: C_16  and  C_17
REMARK    6  A    between atoms: C_17  and  N_18
REMARK                            x       y       z     vdW  Elec       q    Type
REMARK                         _______ _______ _______ _____ _____    ______ ____
ROOT
ATOM      1  C   UNL     1      -0.856  12.692  20.743  0.00  0.00    +0.000 C 
ATOM      2  C   UNL     1      -0.310  11.482  20.488  0.00  0.00    +0.000 C 
ATOM      3  S   UNL     1       0.285  11.171  18.869  0.00  0.00    +0.000 S 
ATOM      4  C   UNL     1       1.105   9.599  19.002  0.00  0.00    +0.000 A 
ATOM      5  C   UNL     1       1.581   8.970  17.838  0.00  0.00    +0.000 A 
ATOM      6  C   UNL     1       2.196   7.703  17.890  0.00  0.00    +0.000 A 
ATOM      7  C   UNL     1       2.373   7.062  19.120  0.00  0.00    +0.000 A 
ATOM      8  C   UNL     1       1.927   7.705  20.280  0.00  0.00    +0.000 A 
ATOM      9  C   UNL     1       1.273   8.944  20.215  0.00  0.00    +0.000 A 
ATOM     10  N   UNL     1       0.703   9.409  21.399  0.00  0.00    +0.000 N 
ATOM     11  C   UNL     1      -0.222  10.400  21.519  0.00  0.00    +0.000 C 
ATOM     12  O   UNL     1      -0.950  10.356  22.511  0.00  0.00    +0.000 OA
ATOM     13  H   UNL     1       0.727   8.804  22.210  0.00  0.00    +0.000 HD
ENDROOT
BRANCH   1  18
ATOM     14  C   UNL     1      -3.250  15.171  25.443  0.00  0.00    +0.000 C 
ATOM     15  C   UNL     1      -2.608  14.506  24.263  0.00  0.00    +0.000 A 
ATOM     16  C   UNL     1      -1.253  14.688  23.985  0.00  0.00    +0.000 A 
ATOM     17  C   UNL     1      -0.673  14.111  22.846  0.00  0.00    +0.000 A 
ATOM     18  C   UNL     1      -1.410  13.290  21.985  0.00  0.00    +0.000 A 
ATOM     19  C   UNL     1      -2.774  13.121  22.267  0.00  0.00    +0.000 A 
ATOM     20  C   UNL     1      -3.368  13.725  23.389  0.00  0.00    +0.000 A 
ENDBRANCH   1  18
BRANCH   7  21
ATOM     21  C   UNL     1       2.936   5.684  19.286  0.00  0.00    +0.000 C 
ATOM     22  O   UNL     1       3.086   5.226  20.412  0.00  0.00    +0.000 OA
ATOM     23  N   UNL     1       3.301   4.999  18.147  0.00  0.00    +0.000 N 
ATOM     24  H   UNL     1       3.163   5.422  17.239  0.00  0.00    +0.000 HD
BRANCH  23  25
ATOM     25  C   UNL     1       3.913   3.666  18.206  0.00  0.00    +0.000 C 
BRANCH  25  26
ATOM     26  C   UNL     1       4.645   3.350  16.888  0.00  0.00    +0.000 C 
BRANCH  26  27
ATOM     27  N   UNL     1       5.768   4.163  16.441  0.00  0.00    +0.000 NA
ATOM     28  C   UNL     1       6.697   4.676  17.448  0.00  0.00    +0.000 C 
ATOM     29  C   UNL     1       6.581   6.178  17.780  0.00  0.00    +0.000 C 
ATOM     30  O   UNL     1       6.437   6.993  16.612  0.00  0.00    +0.000 OA
ATOM     31  C   UNL     1       5.303   6.563  15.851  0.00  0.00    +0.000 C 
ATOM     32  C   UNL     1       5.503   5.123  15.368  0.00  0.00    +0.000 C 
ENDBRANCH  26  27
ENDBRANCH  25  26
ENDBRANCH  23  25
ENDBRANCH   7  21
TORSDOF 5
ENDMDL
MODEL 5
REMARK VINA RESULT:      -7.7      2.844     11.079
REMARK  Name = 
REMARK  6 active torsions:
REMARK  status: ('A' for Active; 'I' for Inactive)
REMARK    1  A    between atoms: C_1  and  C_2
REMARK    2  A    between atoms: C_5  and  C_6
REMARK    3  A    between atoms: C_12  and  C_13
REMARK    4  A    between atoms: N_15  and  C_16
REMARK    5  A    between atoms: C_16  and  C_17
REMARK    6  A    between atoms: C_17  and  N_18
REMARK                            x       y       z     vdW  Elec       q    Type
REMARK                         _______ _______ _______ _____ _____    ______ ____
ROOT
ATOM      1  C   UNL     1       2.593   7.122  17.910  0.00  0.00    +0.000 C 
ATOM      2  C   UNL     1       2.054   8.059  18.722  0.00  0.00    +0.000 C 
ATOM      3  S   UNL     1       1.926   9.699  18.118  0.00  0.00    +0.000 S 
ATOM      4  C   UNL     1       0.987  10.550  19.364  0.00  0.00    +0.000 A 
ATOM      5  C   UNL     1       0.818  11.942  19.270  0.00  0.00    +0.000 A 
ATOM      6  C   UNL     1       0.120  12.664  20.259  0.00  0.00    +0.000 A 
ATOM      7  C   UNL     1      -0.450  11.992  21.344  0.00  0.00    +0.000 A 
ATOM      8  C   UNL     1      -0.307  10.601  21.419  0.00  0.00    +0.000 A 
ATOM      9  C   UNL     1       0.429   9.896  20.456  0.00  0.00    +0.000 A 
ATOM     10  N   UNL     1       0.669   8.549  20.721  0.00  0.00    +0.000 N 
ATOM     11  C   UNL     1       1.593   7.755  20.115  0.00  0.00    +0.000 C 
ATOM     12  O   UNL     1       2.000   6.790  20.762  0.00  0.00    +0.000 OA
ATOM     13  H   UNL     1       0.368   8.177  21.613  0.00  0.00    +0.000 HD
ENDROOT
BRANCH   1  18
ATOM     14  C   UNL     1       3.688   1.418  18.397  0.00  0.00    +0.000 C 
ATOM     15  C   UNL     1       3.377   2.883  18.310  0.00  0.00    +0.000 A 
ATOM     16  C   UNL     1       2.102   3.327  17.961  0.00  0.00    +0.000 A 
ATOM     17  C   UNL     1       1.834   4.696  17.823  0.00  0.00    +0.000 A 
ATOM     18  C   UNL     1       2.812   5.663  18.085  0.00  0.00    +0.000 A 
ATOM     19  C   UNL     1       4.094   5.207  18.425  0.00  0.00    +0.000 A 
ATOM     20  C   UNL     1       4.376   3.834  18.532  0.00  0.00    +0.000 A 
ENDBRANCH   1  18
BRANCH   7  21
ATOM     21  C   UNL     1      -1.139  12.663  22.491  0.00  0.00    +0.000 C 
ATOM     22  O   UNL     1      -0.469  13.223  23.352  0.00  0.00    +0.000 OA
ATOM     23  N   UNL     1      -2.514  12.587  22.548  0.00  0.00    +0.000 N 
ATOM     24  H   UNL     1      -3.021  12.109  21.817  0.00  0.00    +0.000 HD
BRANCH  23  25
ATOM     25  C   UNL     1      -3.278  13.164  23.661  0.00  0.00    +0.000 C 
BRANCH  25  26
ATOM     26  C   UNL     1      -3.990  14.454  23.214  0.00  0.00    +0.000 C 
BRANCH  26  27
ATOM     27  N   UNL     1      -5.387  14.434  22.802  0.00  0.00    +0.000 NA
ATOM     28  C   UNL     1      -6.391  14.001  23.774  0.00  0.00    +0.000 C 
ATOM     29  C   UNL     1      -6.983  12.593  23.561  0.00  0.00    +0.000 C 
ATOM     30  O   UNL     1      -7.307  12.330  22.192  0.00  0.00    +0.000 OA
ATOM     31  C   UNL     1      -6.149  12.512  21.370  0.00  0.00    +0.000 C 
ATOM     32  C   UNL     1      -5.669  13.964  21.444  0.00  0.00    +0.000 C 
ENDBRANCH  26  27
ENDBRANCH  25  26
ENDBRANCH  23  25
ENDBRANCH   7  21
TORSDOF 5
ENDMDL
MODEL 6
REMARK VINA RESULT:      -7.7      3.180      4.747
REMARK  Name = 
REMARK  6 active torsions:
REMARK  status: ('A' for Active; 'I' for Inactive)
REMARK    1  A    between atoms: C_1  and  C_2
REMARK    2  A    between atoms: C_5  and  C_6
REMARK    3  A    between atoms: C_12  and  C_13
REMARK    4  A    between atoms: N_15  and  C_16
REMARK    5  A    between atoms: C_16  and  C_17
REMARK    6  A    between atoms: C_17  and  N_18
REMARK                            x       y       z     vdW  Elec       q    Type
REMARK                         _______ _______ _______ _____ _____    ______ ____
ROOT
ATOM      1  C   UNL     1       0.543  13.751  20.373  0.00  0.00    +0.000 C 
ATOM      2  C   UNL     1       0.972  12.501  20.085  0.00  0.00    +0.000 C 
ATOM      3  S   UNL     1       0.597  11.219  21.219  0.00  0.00    +0.000 S 
ATOM      4  C   UNL     1       1.122   9.737  20.390  0.00  0.00    +0.000 A 
ATOM      5  C   UNL     1       1.101   8.514  21.083  0.00  0.00    +0.000 A 
ATOM      6  C   UNL     1       1.552   7.323  20.480  0.00  0.00    +0.000 A 
ATOM      7  C   UNL     1       2.000   7.335  19.156  0.00  0.00    +0.000 A 
ATOM      8  C   UNL     1       1.990   8.548  18.458  0.00  0.00    +0.000 A 
ATOM      9  C   UNL     1       1.586   9.738  19.080  0.00  0.00    +0.000 A 
ATOM     10  N   UNL     1       1.790  10.916  18.362  0.00  0.00    +0.000 N 
ATOM     11  C   UNL     1       1.770  12.182  18.859  0.00  0.00    +0.000 C 
ATOM     12  O   UNL     1       2.420  13.026  18.242  0.00  0.00    +0.000 OA
ATOM     13  H   UNL     1       2.278  10.856  17.477  0.00  0.00    +0.000 HD
ENDROOT
BRANCH   1  18
ATOM     14  C   UNL     1       0.896  18.631  17.207  0.00  0.00    +0.000 C 
ATOM     15  C   UNL     1       0.805  17.402  18.061  0.00  0.00    +0.000 A 
ATOM     16  C   UNL     1       1.868  17.015  18.878  0.00  0.00    +0.000 A 
ATOM     17  C   UNL     1       1.799  15.833  19.629  0.00  0.00    +0.000 A 
ATOM     18  C   UNL     1       0.650  15.033  19.632  0.00  0.00    +0.000 A 
ATOM     19  C   UNL     1      -0.409  15.425  18.799  0.00  0.00    +0.000 A 
ATOM     20  C   UNL     1      -0.332  16.591  18.018  0.00  0.00    +0.000 A 
ENDBRANCH   1  18
BRANCH   7  21
ATOM     21  C   UNL     1       2.576   6.151  18.444  0.00  0.00    +0.000 C 
ATOM     22  O   UNL     1       1.860   5.485  17.705  0.00  0.00    +0.000 OA
ATOM     23  N   UNL     1       3.896   5.836  18.686  0.00  0.00    +0.000 N 
ATOM     24  H   UNL     1       4.444   6.412  19.309  0.00  0.00    +0.000 HD
BRANCH  23  25
ATOM     25  C   UNL     1       4.537   4.662  18.081  0.00  0.00    +0.000 C 
BRANCH  25  26
ATOM     26  C   UNL     1       4.927   3.641  19.166  0.00  0.00    +0.000 C 
BRANCH  26  27
ATOM     27  N   UNL     1       4.019   2.567  19.546  0.00  0.00    +0.000 NA
ATOM     28  C   UNL     1       3.282   1.876  18.489  0.00  0.00    +0.000 C 
ATOM     29  C   UNL     1       1.784   2.221  18.364  0.00  0.00    +0.000 C 
ATOM     30  O   UNL     1       1.122   2.277  19.632  0.00  0.00    +0.000 OA
ATOM     31  C   UNL     1       1.779   3.218  20.487  0.00  0.00    +0.000 C 
ATOM     32  C   UNL     1       3.220   2.775  20.756  0.00  0.00    +0.000 C 
ENDBRANCH  26  27
ENDBRANCH  25  26
ENDBRANCH  23  25
ENDBRANCH   7  21
TORSDOF 5
ENDMDL
MODEL 7
REMARK VINA RESULT:      -7.6      2.853     11.280
REMARK  Name = 
REMARK  6 active torsions:
REMARK  status: ('A' for Active; 'I' for Inactive)
REMARK    1  A    between atoms: C_1  and  C_2
REMARK    2  A    between atoms: C_5  and  C_6
REMARK    3  A    between atoms: C_12  and  C_13
REMARK    4  A    between atoms: N_15  and  C_16
REMARK    5  A    between atoms: C_16  and  C_17
REMARK    6  A    between atoms: C_17  and  N_18
REMARK                            x       y       z     vdW  Elec       q    Type
REMARK                         _______ _______ _______ _____ _____    ______ ____
ROOT
ATOM      1  C   UNL     1       2.696   7.235  17.819  0.00  0.00    +0.000 C 
ATOM      2  C   UNL     1       2.124   8.121  18.667  0.00  0.00    +0.000 C 
ATOM      3  S   UNL     1       1.921   9.773  18.119  0.00  0.00    +0.000 S 
ATOM      4  C   UNL     1       0.957  10.540  19.400  0.00  0.00    +0.000 A 
ATOM      5  C   UNL     1       0.729  11.927  19.355  0.00  0.00    +0.000 A 
ATOM      6  C   UNL     1       0.009  12.584  20.372  0.00  0.00    +0.000 A 
ATOM      7  C   UNL     1      -0.522  11.852  21.438  0.00  0.00    +0.000 A 
ATOM      8  C   UNL     1      -0.320  10.467  21.465  0.00  0.00    +0.000 A 
ATOM      9  C   UNL     1       0.438   9.827  20.474  0.00  0.00    +0.000 A 
ATOM     10  N   UNL     1       0.737   8.483  20.691  0.00  0.00    +0.000 N 
ATOM     11  C   UNL     1       1.689   7.751  20.051  0.00  0.00    +0.000 C 
ATOM     12  O   UNL     1       2.142   6.783  20.662  0.00  0.00    +0.000 OA
ATOM     13  H   UNL     1       0.460   8.069  21.572  0.00  0.00    +0.000 HD
ENDROOT
BRANCH   1  18
ATOM     14  C   UNL     1       3.571   1.514  18.503  0.00  0.00    +0.000 C 
ATOM     15  C   UNL     1       3.375   2.985  18.289  0.00  0.00    +0.000 A 
ATOM     16  C   UNL     1       4.424   3.885  18.477  0.00  0.00    +0.000 A 
ATOM     17  C   UNL     1       4.218   5.264  18.334  0.00  0.00    +0.000 A 
ATOM     18  C   UNL     1       2.978   5.782  17.942  0.00  0.00    +0.000 A 
ATOM     19  C   UNL     1       1.926   4.871  17.765  0.00  0.00    +0.000 A 
ATOM     20  C   UNL     1       2.119   3.489  17.942  0.00  0.00    +0.000 A 
ENDBRANCH   1  18
BRANCH   7  21
ATOM     21  C   UNL     1      -1.229  12.454  22.613  0.00  0.00    +0.000 C 
ATOM     22  O   UNL     1      -0.602  13.153  23.400  0.00  0.00    +0.000 OA
ATOM     23  N   UNL     1      -2.565  12.159  22.778  0.00  0.00    +0.000 N 
ATOM     24  H   UNL     1      -3.038  11.572  22.104  0.00  0.00    +0.000 HD
BRANCH  23  25
ATOM     25  C   UNL     1      -3.333  12.655  23.927  0.00  0.00    +0.000 C 
BRANCH  25  26
ATOM     26  C   UNL     1      -4.092  13.941  23.554  0.00  0.00    +0.000 C 
BRANCH  26  27
ATOM     27  N   UNL     1      -5.523  14.065  23.799  0.00  0.00    +0.000 NA
ATOM     28  C   UNL     1      -6.316  12.840  23.910  0.00  0.00    +0.000 C 
ATOM     29  C   UNL     1      -7.211  12.496  22.703  0.00  0.00    +0.000 C 
ATOM     30  O   UNL     1      -7.915  13.634  22.194  0.00  0.00    +0.000 OA
ATOM     31  C   UNL     1      -6.989  14.669  21.847  0.00  0.00    +0.000 C 
ATOM     32  C   UNL     1      -6.225  15.136  23.089  0.00  0.00    +0.000 C 
ENDBRANCH  26  27
ENDBRANCH  25  26
ENDBRANCH  23  25
ENDBRANCH   7  21
TORSDOF 5
ENDMDL
MODEL 8
REMARK VINA RESULT:      -7.6      2.042      3.317
REMARK  Name = 
REMARK  6 active torsions:
REMARK  status: ('A' for Active; 'I' for Inactive)
REMARK    1  A    between atoms: C_1  and  C_2
REMARK    2  A    between atoms: C_5  and  C_6
REMARK    3  A    between atoms: C_12  and  C_13
REMARK    4  A    between atoms: N_15  and  C_16
REMARK    5  A    between atoms: C_16  and  C_17
REMARK    6  A    between atoms: C_17  and  N_18
REMARK                            x       y       z     vdW  Elec       q    Type
REMARK                         _______ _______ _______ _____ _____    ______ ____
ROOT
ATOM      1  C   UNL     1      -1.134  12.691  20.569  0.00  0.00    +0.000 C 
ATOM      2  C   UNL     1      -0.502  11.531  20.279  0.00  0.00    +0.000 C 
ATOM      3  S   UNL     1       0.081  11.297  18.643  0.00  0.00    +0.000 S 
ATOM      4  C   UNL     1       1.021   9.791  18.728  0.00  0.00    +0.000 A 
ATOM      5  C   UNL     1       1.520   9.222  17.543  0.00  0.00    +0.000 A 
ATOM      6  C   UNL     1       2.232   8.006  17.558  0.00  0.00    +0.000 A 
ATOM      7  C   UNL     1       2.484   7.357  18.771  0.00  0.00    +0.000 A 
ATOM      8  C   UNL     1       2.013   7.943  19.952  0.00  0.00    +0.000 A 
ATOM      9  C   UNL     1       1.265   9.128  19.924  0.00  0.00    +0.000 A 
ATOM     10  N   UNL     1       0.685   9.526  21.128  0.00  0.00    +0.000 N 
ATOM     11  C   UNL     1      -0.311  10.440  21.286  0.00  0.00    +0.000 C 
ATOM     12  O   UNL     1      -1.012  10.322  22.291  0.00  0.00    +0.000 OA
ATOM     13  H   UNL     1       0.773   8.910  21.927  0.00  0.00    +0.000 HD
ENDROOT
BRANCH   1  18
ATOM     14  C   UNL     1      -3.151  14.634  25.680  0.00  0.00    +0.000 C 
ATOM     15  C   UNL     1      -2.662  14.164  24.343  0.00  0.00    +0.000 A 
ATOM     16  C   UNL     1      -3.493  13.441  23.488  0.00  0.00    +0.000 A 
ATOM     17  C   UNL     1      -3.011  12.953  22.265  0.00  0.00    +0.000 A 
ATOM     18  C   UNL     1      -1.707  13.221  21.833  0.00  0.00    +0.000 A 
ATOM     19  C   UNL     1      -0.875  13.940  22.705  0.00  0.00    +0.000 A 
ATOM     20  C   UNL     1      -1.343  14.402  23.947  0.00  0.00    +0.000 A 
ENDBRANCH   1  18
BRANCH   7  21
ATOM     21  C   UNL     1       3.154   6.025  18.897  0.00  0.00    +0.000 C 
ATOM     22  O   UNL     1       3.687   5.717  19.957  0.00  0.00    +0.000 OA
ATOM     23  N   UNL     1       3.174   5.208  17.787  0.00  0.00    +0.000 N 
ATOM     24  H   UNL     1       2.725   5.509  16.933  0.00  0.00    +0.000 HD
BRANCH  23  25
ATOM     25  C   UNL     1       3.855   3.907  17.793  0.00  0.00    +0.000 C 
BRANCH  25  26
ATOM     26  C   UNL     1       2.846   2.770  17.546  0.00  0.00    +0.000 C 
BRANCH  26  27
ATOM     27  N   UNL     1       2.058   2.217  18.640  0.00  0.00    +0.000 NA
ATOM     28  C   UNL     1       0.782   2.853  18.966  0.00  0.00    +0.000 C 
ATOM     29  C   UNL     1       0.756   3.714  20.245  0.00  0.00    +0.000 C 
ATOM     30  O   UNL     1       1.425   3.088  21.346  0.00  0.00    +0.000 OA
ATOM     31  C   UNL     1       2.774   2.773  20.986  0.00  0.00    +0.000 C 
ATOM     32  C   UNL     1       2.794   1.774  19.826  0.00  0.00    +0.000 C 
ENDBRANCH  26  27
ENDBRANCH  25  26
ENDBRANCH  23  25
ENDBRANCH   7  21
TORSDOF 5
ENDMDL
MODEL 9
REMARK VINA RESULT:      -7.6      2.951     11.122
REMARK  Name = 
REMARK  6 active torsions:
REMARK  status: ('A' for Active; 'I' for Inactive)
REMARK    1  A    between atoms: C_1  and  C_2
REMARK    2  A    between atoms: C_5  and  C_6
REMARK    3  A    between atoms: C_12  and  C_13
REMARK    4  A    between atoms: N_15  and  C_16
REMARK    5  A    between atoms: C_16  and  C_17
REMARK    6  A    between atoms: C_17  and  N_18
REMARK                            x       y       z     vdW  Elec       q    Type
REMARK                         _______ _______ _______ _____ _____    ______ ____
ROOT
ATOM      1  C   UNL     1       2.326   7.798  18.000  0.00  0.00    +0.000 C 
ATOM      2  C   UNL     1       1.782   8.674  18.874  0.00  0.00    +0.000 C 
ATOM      3  S   UNL     1       1.620  10.345  18.374  0.00  0.00    +0.000 S 
ATOM      4  C   UNL     1       0.682  11.102  19.681  0.00  0.00    +0.000 A 
ATOM      5  C   UNL     1       0.489  12.494  19.675  0.00  0.00    +0.000 A 
ATOM      6  C   UNL     1      -0.208  13.142  20.714  0.00  0.00    +0.000 A 
ATOM      7  C   UNL     1      -0.754  12.394  21.763  0.00  0.00    +0.000 A 
ATOM      8  C   UNL     1      -0.587  11.004  21.750  0.00  0.00    +0.000 A 
ATOM      9  C   UNL     1       0.149  10.373  20.737  0.00  0.00    +0.000 A 
ATOM     10  N   UNL     1       0.415   9.016  20.915  0.00  0.00    +0.000 N 
ATOM     11  C   UNL     1       1.344   8.277  20.251  0.00  0.00    +0.000 C 
ATOM     12  O   UNL     1       1.775   7.282  20.832  0.00  0.00    +0.000 OA
ATOM     13  H   UNL     1       0.130   8.584  21.786  0.00  0.00    +0.000 HD
ENDROOT
BRANCH   1  18
ATOM     14  C   UNL     1       3.506   2.092  18.104  0.00  0.00    +0.000 C 
ATOM     15  C   UNL     1       3.177   3.555  18.117  0.00  0.00    +0.000 A 
ATOM     16  C   UNL     1       1.872   3.999  17.904  0.00  0.00    +0.000 A 
ATOM     17  C   UNL     1       1.583   5.371  17.858  0.00  0.00    +0.000 A 
ATOM     18  C   UNL     1       2.571   6.336  18.081  0.00  0.00    +0.000 A 
ATOM     19  C   UNL     1       3.883   5.879  18.285  0.00  0.00    +0.000 A 
ATOM     20  C   UNL     1       4.184   4.506  18.297  0.00  0.00    +0.000 A 
ENDBRANCH   1  18
BRANCH   7  21
ATOM     21  C   UNL     1      -1.439  12.982  22.957  0.00  0.00    +0.000 C 
ATOM     22  O   UNL     1      -0.810  13.712  23.714  0.00  0.00    +0.000 OA
ATOM     23  N   UNL     1      -2.756  12.638  23.175  0.00  0.00    +0.000 N 
ATOM     24  H   UNL     1      -3.230  12.027  22.525  0.00  0.00    +0.000 HD
BRANCH  23  25
ATOM     25  C   UNL     1      -3.499  13.116  24.348  0.00  0.00    +0.000 C 
BRANCH  25  26
ATOM     26  C   UNL     1      -4.876  12.433  24.428  0.00  0.00    +0.000 C 
BRANCH  26  27
ATOM     27  N   UNL     1      -6.093  13.156  24.080  0.00  0.00    +0.000 NA
ATOM     28  C   UNL     1      -7.279  12.382  23.716  0.00  0.00    +0.000 C 
ATOM     29  C   UNL     1      -7.642  12.356  22.217  0.00  0.00    +0.000 C 
ATOM     30  O   UNL     1      -7.541  13.644  21.601  0.00  0.00    +0.000 OA
ATOM     31  C   UNL     1      -6.224  14.174  21.785  0.00  0.00    +0.000 C 
ATOM     32  C   UNL     1      -5.934  14.369  23.276  0.00  0.00    +0.000 C 
ENDBRANCH  26  27
ENDBRANCH  25  26
ENDBRANCH  23  25
ENDBRANCH   7  21
TORSDOF 5
ENDMDL
