MODEL 1
REMARK VINA RESULT:      -8.6      0.000      0.000
REMARK  Name = 
REMARK  6 active torsions:
REMARK  status: ('A' for Active; 'I' for Inactive)
REMARK    1  A    between atoms: C_1  and  C_2
REMARK    2  A    between atoms: C_2  and  C_3
REMARK    3  A    between atoms: C_3  and  C_4
REMARK    4  A    between atoms: N_5  and  N_6
REMARK    5  A    between atoms: C_7  and  C_9
REMARK    6  A    between atoms: C_11  and  C_12
REMARK                            x       y       z     vdW  Elec       q    Type
REMARK                         _______ _______ _______ _____ _____    ______ ____
ROOT
ATOM      1  C   UNL     1       6.244   5.550  17.617  0.00  0.00    +0.000 A 
ATOM      2  C   UNL     1       5.138   5.271  18.416  0.00  0.00    +0.000 A 
ATOM      3  C   UNL     1       4.103   4.500  17.916  0.00  0.00    +0.000 A 
ATOM      4  N   UNL     1       4.132   4.015  16.657  0.00  0.00    +0.000 NA
ATOM      5  C   UNL     1       5.177   4.295  15.863  0.00  0.00    +0.000 A 
ATOM      6  C   UNL     1       5.159   3.781  14.573  0.00  0.00    +0.000 A 
ATOM      7  C   UNL     1       6.205   3.995  13.674  0.00  0.00    +0.000 A 
ATOM      8  C   UNL     1       7.309   4.729  14.074  0.00  0.00    +0.000 A 
ATOM      9  C   UNL     1       7.356   5.247  15.368  0.00  0.00    +0.000 A 
ATOM     10  C   UNL     1       6.288   5.060  16.286  0.00  0.00    +0.000 A 
ENDROOT
BRANCH   3  11
ATOM     11  C   UNL     1       2.945   4.135  18.752  0.00  0.00    +0.000 A 
ATOM     12  C   UNL     1       2.757   4.703  20.028  0.00  0.00    +0.000 A 
ATOM     13  C   UNL     1       1.711   4.301  20.856  0.00  0.00    +0.000 A 
ATOM     14  C   UNL     1       0.818   3.329  20.423  0.00  0.00    +0.000 A 
ATOM     15  C   UNL     1       0.962   2.772  19.155  0.00  0.00    +0.000 A 
ATOM     16  C   UNL     1       2.012   3.176  18.326  0.00  0.00    +0.000 A 
ENDBRANCH   3  11
BRANCH   1  18
ATOM     17  N   UNL     1       7.433   7.689  17.725  0.00  0.00    +0.000 N 
ATOM     18  C   UNL     1       7.338   6.382  18.213  0.00  0.00    +0.000 C 
ATOM     19  O   UNL     1       8.081   5.906  19.059  0.00  0.00    +0.000 OA
ATOM     20  H   UNL     1       6.784   8.058  17.043  0.00  0.00    +0.000 HD
BRANCH  17  22
ATOM     21  C   UNL     1       8.313   9.764  17.891  0.00  0.00    +0.000 C 
ATOM     22  N   UNL     1       8.380   8.520  18.243  0.00  0.00    +0.000 NA
BRANCH  21  23
ATOM     23  C   UNL     1       9.321  10.737  18.450  0.00  0.00    +0.000 C 
BRANCH  23  25
ATOM     24  C   UNL     1      10.378  11.680  20.550  0.00  0.00    +0.000 C 
ATOM     25  C   UNL     1       9.414  10.654  19.971  0.00  0.00    +0.000 C 
ENDBRANCH  23  25
ENDBRANCH  21  23
ENDBRANCH  17  22
ENDBRANCH   1  18
TORSDOF 5
ENDMDL
MODEL 2
REMARK VINA RESULT:      -8.6      0.945      1.277
REMARK  Name = 
REMARK  6 active torsions:
REMARK  status: ('A' for Active; 'I' for Inactive)
REMARK    1  A    between atoms: C_1  and  C_2
REMARK    2  A    between atoms: C_2  and  C_3
REMARK    3  A    between atoms: C_3  and  C_4
REMARK    4  A    between atoms: N_5  and  N_6
REMARK    5  A    between atoms: C_7  and  C_9
REMARK    6  A    between atoms: C_11  and  C_12
REMARK                            x       y       z     vdW  Elec       q    Type
REMARK                         _______ _______ _______ _____ _____    ______ ____
ROOT
ATOM      1  C   UNL     1       6.347   5.178  17.999  0.00  0.00    +0.000 A 
ATOM      2  C   UNL     1       5.341   4.791  18.881  0.00  0.00    +0.000 A 
ATOM      3  C   UNL     1       4.283   4.022  18.426  0.00  0.00    +0.000 A 
ATOM      4  N   UNL     1       4.194   3.643  17.134  0.00  0.00    +0.000 NA
ATOM      5  C   UNL     1       5.141   4.029  16.264  0.00  0.00    +0.000 A 
ATOM      6  C   UNL     1       5.002   3.621  14.943  0.00  0.00    +0.000 A 
ATOM      7  C   UNL     1       5.940   3.949  13.963  0.00  0.00    +0.000 A 
ATOM      8  C   UNL     1       7.057   4.691  14.308  0.00  0.00    +0.000 A 
ATOM      9  C   UNL     1       7.224   5.103  15.630  0.00  0.00    +0.000 A 
ATOM     10  C   UNL     1       6.266   4.800  16.633  0.00  0.00    +0.000 A 
ENDROOT
BRANCH   3  11
ATOM     11  C   UNL     1       3.232   3.545  19.342  0.00  0.00    +0.000 A 
ATOM     12  C   UNL     1       1.867   3.772  19.070  0.00  0.00    +0.000 A 
ATOM     13  C   UNL     1       0.874   3.396  19.972  0.00  0.00    +0.000 A 
ATOM     14  C   UNL     1       1.219   2.773  21.164  0.00  0.00    +0.000 A 
ATOM     15  C   UNL     1       2.557   2.509  21.445  0.00  0.00    +0.000 A 
ATOM     16  C   UNL     1       3.552   2.887  20.540  0.00  0.00    +0.000 A 
ENDBRANCH   3  11
BRANCH   1  18
ATOM     17  N   UNL     1       7.563   7.304  18.048  0.00  0.00    +0.000 N 
ATOM     18  C   UNL     1       7.472   6.001  18.549  0.00  0.00    +0.000 C 
ATOM     19  O   UNL     1       8.241   5.522  19.369  0.00  0.00    +0.000 OA
ATOM     20  H   UNL     1       6.894   7.676  17.389  0.00  0.00    +0.000 HD
BRANCH  17  22
ATOM     21  C   UNL     1       8.431   9.382  18.226  0.00  0.00    +0.000 C 
ATOM     22  N   UNL     1       8.538   8.126  18.525  0.00  0.00    +0.000 NA
BRANCH  21  23
ATOM     23  C   UNL     1       9.469  10.347  18.745  0.00  0.00    +0.000 C 
BRANCH  23  25
ATOM     24  C   UNL     1      10.322  12.468  17.654  0.00  0.00    +0.000 C 
ATOM     25  C   UNL     1       9.155  11.789  18.357  0.00  0.00    +0.000 C 
ENDBRANCH  23  25
ENDBRANCH  21  23
ENDBRANCH  17  22
ENDBRANCH   1  18
TORSDOF 5
ENDMDL
MODEL 3
REMARK VINA RESULT:      -8.4      3.661      6.686
REMARK  Name = 
REMARK  6 active torsions:
REMARK  status: ('A' for Active; 'I' for Inactive)
REMARK    1  A    between atoms: C_1  and  C_2
REMARK    2  A    between atoms: C_2  and  C_3
REMARK    3  A    between atoms: C_3  and  C_4
REMARK    4  A    between atoms: N_5  and  N_6
REMARK    5  A    between atoms: C_7  and  C_9
REMARK    6  A    between atoms: C_11  and  C_12
REMARK                            x       y       z     vdW  Elec       q    Type
REMARK                         _______ _______ _______ _____ _____    ______ ____
ROOT
ATOM      1  C   UNL     1       4.094   5.268  18.404  0.00  0.00    +0.000 A 
ATOM      2  C   UNL     1       3.526   6.536  18.293  0.00  0.00    +0.000 A 
ATOM      3  C   UNL     1       2.515   6.916  19.159  0.00  0.00    +0.000 A 
ATOM      4  N   UNL     1       2.051   6.078  20.109  0.00  0.00    +0.000 NA
ATOM      5  C   UNL     1       2.567   4.843  20.214  0.00  0.00    +0.000 A 
ATOM      6  C   UNL     1       2.053   4.014  21.203  0.00  0.00    +0.000 A 
ATOM      7  C   UNL     1       2.532   2.720  21.410  0.00  0.00    +0.000 A 
ATOM      8  C   UNL     1       3.565   2.241  20.622  0.00  0.00    +0.000 A 
ATOM      9  C   UNL     1       4.107   3.058  19.630  0.00  0.00    +0.000 A 
ATOM     10  C   UNL     1       3.612   4.367  19.389  0.00  0.00    +0.000 A 
ENDROOT
BRANCH   3  11
ATOM     11  C   UNL     1       1.932   8.269  19.110  0.00  0.00    +0.000 A 
ATOM     12  C   UNL     1       2.088   9.091  17.976  0.00  0.00    +0.000 A 
ATOM     13  C   UNL     1       1.611  10.400  17.956  0.00  0.00    +0.000 A 
ATOM     14  C   UNL     1       0.955  10.916  19.066  0.00  0.00    +0.000 A 
ATOM     15  C   UNL     1       0.760  10.116  20.189  0.00  0.00    +0.000 A 
ATOM     16  C   UNL     1       1.240   8.804  20.208  0.00  0.00    +0.000 A 
ENDBRANCH   3  11
BRANCH   1  18
ATOM     17  N   UNL     1       4.789   4.217  16.302  0.00  0.00    +0.000 N 
ATOM     18  C   UNL     1       5.191   4.914  17.447  0.00  0.00    +0.000 C 
ATOM     19  O   UNL     1       6.347   5.223  17.695  0.00  0.00    +0.000 OA
ATOM     20  H   UNL     1       3.819   4.001  16.117  0.00  0.00    +0.000 HD
BRANCH  17  22
ATOM     21  C   UNL     1       5.452   4.214  14.143  0.00  0.00    +0.000 C 
ATOM     22  N   UNL     1       5.723   3.890  15.367  0.00  0.00    +0.000 NA
BRANCH  21  23
ATOM     23  C   UNL     1       6.459   3.898  13.064  0.00  0.00    +0.000 C 
BRANCH  23  25
ATOM     24  C   UNL     1       4.483   3.419  11.554  0.00  0.00    +0.000 C 
ATOM     25  C   UNL     1       5.877   2.988  11.986  0.00  0.00    +0.000 C 
ENDBRANCH  23  25
ENDBRANCH  21  23
ENDBRANCH  17  22
ENDBRANCH   1  18
TORSDOF 5
ENDMDL
MODEL 4
REMARK VINA RESULT:      -8.2      3.556      6.532
REMARK  Name = 
REMARK  6 active torsions:
REMARK  status: ('A' for Active; 'I' for Inactive)
REMARK    1  A    between atoms: C_1  and  C_2
REMARK    2  A    between atoms: C_2  and  C_3
REMARK    3  A    between atoms: C_3  and  C_4
REMARK    4  A    between atoms: N_5  and  N_6
REMARK    5  A    between atoms: C_7  and  C_9
REMARK    6  A    between atoms: C_11  and  C_12
REMARK                            x       y       z     vdW  Elec       q    Type
REMARK                         _______ _______ _______ _____ _____    ______ ____
ROOT
ATOM      1  C   UNL     1       4.118   5.406  18.431  0.00  0.00    +0.000 A 
ATOM      2  C   UNL     1       3.486   6.647  18.376  0.00  0.00    +0.000 A 
ATOM      3  C   UNL     1       2.475   6.945  19.272  0.00  0.00    +0.000 A 
ATOM      4  N   UNL     1       2.072   6.053  20.201  0.00  0.00    +0.000 NA
ATOM      5  C   UNL     1       2.651   4.843  20.252  0.00  0.00    +0.000 A 
ATOM      6  C   UNL     1       2.198   3.955  21.220  0.00  0.00    +0.000 A 
ATOM      7  C   UNL     1       2.745   2.681  21.372  0.00  0.00    +0.000 A 
ATOM      8  C   UNL     1       3.785   2.281  20.549  0.00  0.00    +0.000 A 
ATOM      9  C   UNL     1       4.265   3.158  19.577  0.00  0.00    +0.000 A 
ATOM     10  C   UNL     1       3.701   4.449  19.392  0.00  0.00    +0.000 A 
ENDROOT
BRANCH   3  11
ATOM     11  C   UNL     1       1.825   8.268  19.283  0.00  0.00    +0.000 A 
ATOM     12  C   UNL     1       1.187   8.760  20.440  0.00  0.00    +0.000 A 
ATOM     13  C   UNL     1       0.500   9.971  20.432  0.00  0.00    +0.000 A 
ATOM     14  C   UNL     1       0.443  10.728  19.269  0.00  0.00    +0.000 A 
ATOM     15  C   UNL     1       1.088  10.282  18.120  0.00  0.00    +0.000 A 
ATOM     16  C   UNL     1       1.777   9.066  18.129  0.00  0.00    +0.000 A 
ENDBRANCH   3  11
BRANCH   1  18
ATOM     17  N   UNL     1       4.855   5.284  16.097  0.00  0.00    +0.000 N 
ATOM     18  C   UNL     1       5.212   5.141  17.442  0.00  0.00    +0.000 C 
ATOM     19  O   UNL     1       6.324   4.813  17.829  0.00  0.00    +0.000 OA
ATOM     20  H   UNL     1       3.931   5.583  15.814  0.00  0.00    +0.000 HD
BRANCH  17  22
ATOM     21  C   UNL     1       5.570   4.163  14.271  0.00  0.00    +0.000 C 
ATOM     22  N   UNL     1       5.803   5.095  15.139  0.00  0.00    +0.000 NA
BRANCH  21  23
ATOM     23  C   UNL     1       6.574   3.920  13.171  0.00  0.00    +0.000 C 
BRANCH  23  25
ATOM     24  C   UNL     1       4.562   3.373  11.733  0.00  0.00    +0.000 C 
ATOM     25  C   UNL     1       6.008   3.034  12.065  0.00  0.00    +0.000 C 
ENDBRANCH  23  25
ENDBRANCH  21  23
ENDBRANCH  17  22
ENDBRANCH   1  18
TORSDOF 5
ENDMDL
MODEL 5
REMARK VINA RESULT:      -8.1      1.165      5.075
REMARK  Name = 
REMARK  6 active torsions:
REMARK  status: ('A' for Active; 'I' for Inactive)
REMARK    1  A    between atoms: C_1  and  C_2
REMARK    2  A    between atoms: C_2  and  C_3
REMARK    3  A    between atoms: C_3  and  C_4
REMARK    4  A    between atoms: N_5  and  N_6
REMARK    5  A    between atoms: C_7  and  C_9
REMARK    6  A    between atoms: C_11  and  C_12
REMARK                            x       y       z     vdW  Elec       q    Type
REMARK                         _______ _______ _______ _____ _____    ______ ____
ROOT
ATOM      1  C   UNL     1       6.436   5.723  17.502  0.00  0.00    +0.000 A 
ATOM      2  C   UNL     1       6.763   5.386  16.190  0.00  0.00    +0.000 A 
ATOM      3  C   UNL     1       5.874   4.651  15.425  0.00  0.00    +0.000 A 
ATOM      4  N   UNL     1       4.691   4.238  15.924  0.00  0.00    +0.000 NA
ATOM      5  C   UNL     1       4.369   4.530  17.194  0.00  0.00    +0.000 A 
ATOM      6  C   UNL     1       3.144   4.077  17.666  0.00  0.00    +0.000 A 
ATOM      7  C   UNL     1       2.704   4.343  18.963  0.00  0.00    +0.000 A 
ATOM      8  C   UNL     1       3.498   5.097  19.812  0.00  0.00    +0.000 A 
ATOM      9  C   UNL     1       4.727   5.573  19.358  0.00  0.00    +0.000 A 
ATOM     10  C   UNL     1       5.201   5.288  18.050  0.00  0.00    +0.000 A 
ENDROOT
BRANCH   3  11
ATOM     11  C   UNL     1       6.161   4.326  14.016  0.00  0.00    +0.000 A 
ATOM     12  C   UNL     1       5.348   3.430  13.293  0.00  0.00    +0.000 A 
ATOM     13  C   UNL     1       5.661   3.056  11.988  0.00  0.00    +0.000 A 
ATOM     14  C   UNL     1       6.789   3.578  11.368  0.00  0.00    +0.000 A 
ATOM     15  C   UNL     1       7.594   4.488  12.048  0.00  0.00    +0.000 A 
ATOM     16  C   UNL     1       7.279   4.862  13.358  0.00  0.00    +0.000 A 
ENDBRANCH   3  11
BRANCH   1  18
ATOM     17  N   UNL     1       7.667   7.820  17.800  0.00  0.00    +0.000 N 
ATOM     18  C   UNL     1       7.431   6.528  18.280  0.00  0.00    +0.000 C 
ATOM     19  O   UNL     1       7.985   6.043  19.256  0.00  0.00    +0.000 OA
ATOM     20  H   UNL     1       7.171   8.198  17.003  0.00  0.00    +0.000 HD
BRANCH  17  22
ATOM     21  C   UNL     1       8.561   9.871  18.115  0.00  0.00    +0.000 C 
ATOM     22  N   UNL     1       8.532   8.627  18.474  0.00  0.00    +0.000 NA
BRANCH  21  23
ATOM     23  C   UNL     1       9.484  10.819  18.840  0.00  0.00    +0.000 C 
BRANCH  23  25
ATOM     24  C   UNL     1      10.319  12.947  17.749  0.00  0.00    +0.000 C 
ATOM     25  C   UNL     1      10.513  11.445  17.903  0.00  0.00    +0.000 C 
ENDBRANCH  23  25
ENDBRANCH  21  23
ENDBRANCH  17  22
ENDBRANCH   1  18
TORSDOF 5
ENDMDL
MODEL 6
REMARK VINA RESULT:      -8.0      1.100      4.956
REMARK  Name = 
REMARK  6 active torsions:
REMARK  status: ('A' for Active; 'I' for Inactive)
REMARK    1  A    between atoms: C_1  and  C_2
REMARK    2  A    between atoms: C_2  and  C_3
REMARK    3  A    between atoms: C_3  and  C_4
REMARK    4  A    between atoms: N_5  and  N_6
REMARK    5  A    between atoms: C_7  and  C_9
REMARK    6  A    between atoms: C_11  and  C_12
REMARK                            x       y       z     vdW  Elec       q    Type
REMARK                         _______ _______ _______ _____ _____    ______ ____
ROOT
ATOM      1  C   UNL     1       6.496   5.749  17.542  0.00  0.00    +0.000 A 
ATOM      2  C   UNL     1       6.843   5.387  16.242  0.00  0.00    +0.000 A 
ATOM      3  C   UNL     1       5.961   4.646  15.475  0.00  0.00    +0.000 A 
ATOM      4  N   UNL     1       4.765   4.251  15.961  0.00  0.00    +0.000 NA
ATOM      5  C   UNL     1       4.425   4.568  17.220  0.00  0.00    +0.000 A 
ATOM      6  C   UNL     1       3.188   4.134  17.679  0.00  0.00    +0.000 A 
ATOM      7  C   UNL     1       2.728   4.427  18.964  0.00  0.00    +0.000 A 
ATOM      8  C   UNL     1       3.514   5.189  19.813  0.00  0.00    +0.000 A 
ATOM      9  C   UNL     1       4.755   5.646  19.371  0.00  0.00    +0.000 A 
ATOM     10  C   UNL     1       5.248   5.334  18.076  0.00  0.00    +0.000 A 
ENDROOT
BRANCH   3  11
ATOM     11  C   UNL     1       6.268   4.294  14.077  0.00  0.00    +0.000 A 
ATOM     12  C   UNL     1       7.357   4.878  13.399  0.00  0.00    +0.000 A 
ATOM     13  C   UNL     1       7.603   4.613  12.054  0.00  0.00    +0.000 A 
ATOM     14  C   UNL     1       6.773   3.747  11.355  0.00  0.00    +0.000 A 
ATOM     15  C   UNL     1       5.707   3.132  12.006  0.00  0.00    +0.000 A 
ATOM     16  C   UNL     1       5.461   3.400  13.356  0.00  0.00    +0.000 A 
ENDBRANCH   3  11
BRANCH   1  18
ATOM     17  N   UNL     1       7.729   7.846  17.833  0.00  0.00    +0.000 N 
ATOM     18  C   UNL     1       7.485   6.559  18.323  0.00  0.00    +0.000 C 
ATOM     19  O   UNL     1       8.027   6.083  19.310  0.00  0.00    +0.000 OA
ATOM     20  H   UNL     1       7.242   8.217  17.028  0.00  0.00    +0.000 HD
BRANCH  17  22
ATOM     21  C   UNL     1       8.638   9.894  18.126  0.00  0.00    +0.000 C 
ATOM     22  N   UNL     1       8.589   8.657  18.508  0.00  0.00    +0.000 NA
BRANCH  21  23
ATOM     23  C   UNL     1       9.556  10.847  18.851  0.00  0.00    +0.000 C 
BRANCH  23  25
ATOM     24  C   UNL     1      10.079  11.935  21.077  0.00  0.00    +0.000 C 
ATOM     25  C   UNL     1       9.336  10.817  20.361  0.00  0.00    +0.000 C 
ENDBRANCH  23  25
ENDBRANCH  21  23
ENDBRANCH  17  22
ENDBRANCH   1  18
TORSDOF 5
ENDMDL
MODEL 7
REMARK VINA RESULT:      -7.9      3.689      6.436
REMARK  Name = 
REMARK  6 active torsions:
REMARK  status: ('A' for Active; 'I' for Inactive)
REMARK    1  A    between atoms: C_1  and  C_2
REMARK    2  A    between atoms: C_2  and  C_3
REMARK    3  A    between atoms: C_3  and  C_4
REMARK    4  A    between atoms: N_5  and  N_6
REMARK    5  A    between atoms: C_7  and  C_9
REMARK    6  A    between atoms: C_11  and  C_12
REMARK                            x       y       z     vdW  Elec       q    Type
REMARK                         _______ _______ _______ _____ _____    ______ ____
ROOT
ATOM      1  C   UNL     1       4.190   5.087  17.368  0.00  0.00    +0.000 A 
ATOM      2  C   UNL     1       3.685   6.365  17.597  0.00  0.00    +0.000 A 
ATOM      3  C   UNL     1       2.574   6.533  18.405  0.00  0.00    +0.000 A 
ATOM      4  N   UNL     1       1.953   5.479  18.975  0.00  0.00    +0.000 NA
ATOM      5  C   UNL     1       2.409   4.238  18.745  0.00  0.00    +0.000 A 
ATOM      6  C   UNL     1       1.733   3.184  19.347  0.00  0.00    +0.000 A 
ATOM      7  C   UNL     1       2.136   1.858  19.190  0.00  0.00    +0.000 A 
ATOM      8  C   UNL     1       3.255   1.570  18.426  0.00  0.00    +0.000 A 
ATOM      9  C   UNL     1       3.958   2.611  17.820  0.00  0.00    +0.000 A 
ATOM     10  C   UNL     1       3.544   3.964  17.948  0.00  0.00    +0.000 A 
ENDROOT
BRANCH   3  11
ATOM     11  C   UNL     1       2.048   7.874  18.717  0.00  0.00    +0.000 A 
ATOM     12  C   UNL     1       2.102   8.918  17.771  0.00  0.00    +0.000 A 
ATOM     13  C   UNL     1       1.682  10.208  18.089  0.00  0.00    +0.000 A 
ATOM     14  C   UNL     1       1.186  10.485  19.356  0.00  0.00    +0.000 A 
ATOM     15  C   UNL     1       1.092   9.466  20.300  0.00  0.00    +0.000 A 
ATOM     16  C   UNL     1       1.515   8.172  19.981  0.00  0.00    +0.000 A 
ENDBRANCH   3  11
BRANCH   1  18
ATOM     17  N   UNL     1       5.143   4.669  15.150  0.00  0.00    +0.000 N 
ATOM     18  C   UNL     1       5.400   4.966  16.493  0.00  0.00    +0.000 C 
ATOM     19  O   UNL     1       6.518   5.114  16.965  0.00  0.00    +0.000 OA
ATOM     20  H   UNL     1       4.203   4.580  14.789  0.00  0.00    +0.000 HD
BRANCH  17  22
ATOM     21  C   UNL     1       5.988   3.885  13.207  0.00  0.00    +0.000 C 
ATOM     22  N   UNL     1       6.189   4.578  14.283  0.00  0.00    +0.000 NA
BRANCH  21  23
ATOM     23  C   UNL     1       7.103   3.767  12.197  0.00  0.00    +0.000 C 
BRANCH  23  25
ATOM     24  C   UNL     1       5.636   1.840  11.456  0.00  0.00    +0.000 C 
ATOM     25  C   UNL     1       7.023   2.464  11.407  0.00  0.00    +0.000 C 
ENDBRANCH  23  25
ENDBRANCH  21  23
ENDBRANCH  17  22
ENDBRANCH   1  18
TORSDOF 5
ENDMDL
MODEL 8
REMARK VINA RESULT:      -7.8      3.810      7.052
REMARK  Name = 
REMARK  6 active torsions:
REMARK  status: ('A' for Active; 'I' for Inactive)
REMARK    1  A    between atoms: C_1  and  C_2
REMARK    2  A    between atoms: C_2  and  C_3
REMARK    3  A    between atoms: C_3  and  C_4
REMARK    4  A    between atoms: N_5  and  N_6
REMARK    5  A    between atoms: C_7  and  C_9
REMARK    6  A    between atoms: C_11  and  C_12
REMARK                            x       y       z     vdW  Elec       q    Type
REMARK                         _______ _______ _______ _____ _____    ______ ____
ROOT
ATOM      1  C   UNL     1       2.821   6.188  18.626  0.00  0.00    +0.000 A 
ATOM      2  C   UNL     1       3.766   6.157  17.604  0.00  0.00    +0.000 A 
ATOM      3  C   UNL     1       4.292   4.946  17.189  0.00  0.00    +0.000 A 
ATOM      4  N   UNL     1       3.917   3.783  17.761  0.00  0.00    +0.000 NA
ATOM      5  C   UNL     1       3.027   3.795  18.765  0.00  0.00    +0.000 A 
ATOM      6  C   UNL     1       2.678   2.575  19.329  0.00  0.00    +0.000 A 
ATOM      7  C   UNL     1       1.747   2.474  20.363  0.00  0.00    +0.000 A 
ATOM      8  C   UNL     1       1.132   3.619  20.842  0.00  0.00    +0.000 A 
ATOM      9  C   UNL     1       1.457   4.855  20.285  0.00  0.00    +0.000 A 
ATOM     10  C   UNL     1       2.422   4.977  19.250  0.00  0.00    +0.000 A 
ENDROOT
BRANCH   3  11
ATOM     11  C   UNL     1       5.250   4.868  16.071  0.00  0.00    +0.000 A 
ATOM     12  C   UNL     1       4.902   4.253  14.851  0.00  0.00    +0.000 A 
ATOM     13  C   UNL     1       5.828   4.103  13.822  0.00  0.00    +0.000 A 
ATOM     14  C   UNL     1       7.125   4.575  13.981  0.00  0.00    +0.000 A 
ATOM     15  C   UNL     1       7.488   5.214  15.164  0.00  0.00    +0.000 A 
ATOM     16  C   UNL     1       6.558   5.362  16.196  0.00  0.00    +0.000 A 
ENDBRANCH   3  11
BRANCH   1  18
ATOM     17  N   UNL     1       2.058   8.425  17.980  0.00  0.00    +0.000 N 
ATOM     18  C   UNL     1       2.279   7.526  19.029  0.00  0.00    +0.000 C 
ATOM     19  O   UNL     1       2.070   7.775  20.207  0.00  0.00    +0.000 OA
ATOM     20  H   UNL     1       2.218   8.175  17.014  0.00  0.00    +0.000 HD
BRANCH  17  22
ATOM     21  C   UNL     1       0.245   9.759  18.180  0.00  0.00    +0.000 C 
ATOM     22  N   UNL     1       1.533   9.650  18.261  0.00  0.00    +0.000 NA
BRANCH  21  23
ATOM     23  C   UNL     1      -0.397  11.086  18.502  0.00  0.00    +0.000 C 
BRANCH  23  25
ATOM     24  C   UNL     1      -2.112  10.082  16.932  0.00  0.00    +0.000 C 
ATOM     25  C   UNL     1      -1.803  11.197  17.920  0.00  0.00    +0.000 C 
ENDBRANCH  23  25
ENDBRANCH  21  23
ENDBRANCH  17  22
ENDBRANCH   1  18
TORSDOF 5
ENDMDL
MODEL 9
REMARK VINA RESULT:      -7.7      3.674      6.870
REMARK  Name = 
REMARK  6 active torsions:
REMARK  status: ('A' for Active; 'I' for Inactive)
REMARK    1  A    between atoms: C_1  and  C_2
REMARK    2  A    between atoms: C_2  and  C_3
REMARK    3  A    between atoms: C_3  and  C_4
REMARK    4  A    between atoms: N_5  and  N_6
REMARK    5  A    between atoms: C_7  and  C_9
REMARK    6  A    between atoms: C_11  and  C_12
REMARK                            x       y       z     vdW  Elec       q    Type
REMARK                         _______ _______ _______ _____ _____    ______ ____
ROOT
ATOM      1  C   UNL     1       2.954   5.793  18.255  0.00  0.00    +0.000 A 
ATOM      2  C   UNL     1       3.960   5.808  17.291  0.00  0.00    +0.000 A 
ATOM      3  C   UNL     1       4.411   4.617  16.748  0.00  0.00    +0.000 A 
ATOM      4  N   UNL     1       3.904   3.429  17.138  0.00  0.00    +0.000 NA
ATOM      5  C   UNL     1       2.953   3.393  18.085  0.00  0.00    +0.000 A 
ATOM      6  C   UNL     1       2.468   2.147  18.460  0.00  0.00    +0.000 A 
ATOM      7  C   UNL     1       1.465   1.999  19.419  0.00  0.00    +0.000 A 
ATOM      8  C   UNL     1       0.916   3.124  20.011  0.00  0.00    +0.000 A 
ATOM      9  C   UNL     1       1.378   4.387  19.643  0.00  0.00    +0.000 A 
ATOM     10  C   UNL     1       2.417   4.553  18.689  0.00  0.00    +0.000 A 
ENDROOT
BRANCH   3  11
ATOM     11  C   UNL     1       5.432   4.597  15.684  0.00  0.00    +0.000 A 
ATOM     12  C   UNL     1       6.633   5.324  15.811  0.00  0.00    +0.000 A 
ATOM     13  C   UNL     1       7.563   5.376  14.775  0.00  0.00    +0.000 A 
ATOM     14  C   UNL     1       7.322   4.692  13.591  0.00  0.00    +0.000 A 
ATOM     15  C   UNL     1       6.158   3.941  13.450  0.00  0.00    +0.000 A 
ATOM     16  C   UNL     1       5.225   3.891  14.489  0.00  0.00    +0.000 A 
ENDBRANCH   3  11
BRANCH   1  18
ATOM     17  N   UNL     1       2.270   8.111  17.850  0.00  0.00    +0.000 N 
ATOM     18  C   UNL     1       2.499   7.112  18.802  0.00  0.00    +0.000 C 
ATOM     19  O   UNL     1       2.361   7.263  20.007  0.00  0.00    +0.000 OA
ATOM     20  H   UNL     1       2.369   7.942  16.858  0.00  0.00    +0.000 HD
BRANCH  17  22
ATOM     21  C   UNL     1       0.563   9.574  18.073  0.00  0.00    +0.000 C 
ATOM     22  N   UNL     1       1.820   9.327  18.265  0.00  0.00    +0.000 NA
BRANCH  21  23
ATOM     23  C   UNL     1       0.000  10.896  18.533  0.00  0.00    +0.000 C 
BRANCH  23  25
ATOM     24  C   UNL     1      -2.177  10.107  17.508  0.00  0.00    +0.000 C 
ATOM     25  C   UNL     1      -1.520  10.860  18.656  0.00  0.00    +0.000 C 
ENDBRANCH  23  25
ENDBRANCH  21  23
ENDBRANCH  17  22
ENDBRANCH   1  18
TORSDOF 5
ENDMDL
