MODEL 1
REMARK VINA RESULT:      -7.0      0.000      0.000
REMARK  Name = 
REMARK  6 active torsions:
REMARK  status: ('A' for Active; 'I' for Inactive)
REMARK    1  A    between atoms: C_1  and  C_2
REMARK    2  A    between atoms: C_2  and  C_13
REMARK    3  A    between atoms: N_3  and  N_4
REMARK    4  A    between atoms: N_4  and  C_5
REMARK    5  A    between atoms: C_5  and  N_7
REMARK    6  A    between atoms: C_18  and  O_19
REMARK                            x       y       z     vdW  Elec       q    Type
REMARK                         _______ _______ _______ _____ _____    ______ ____
ROOT
ATOM      1  C   UNL     1       6.272   3.721  14.624  0.00  0.00    +0.000 C 
ATOM      2  C   UNL     1       5.609   4.173  15.912  0.00  0.00    +0.000 C 
ATOM      3  N   UNL     1       4.448   3.630  16.132  0.00  0.00    +0.000 NA
ENDROOT
BRANCH   2   4
ATOM      4  C   UNL     1       6.368   5.125  16.799  0.00  0.00    +0.000 A 
ATOM      5  C   UNL     1       7.218   4.609  17.791  0.00  0.00    +0.000 A 
ATOM      6  C   UNL     1       7.925   5.457  18.652  0.00  0.00    +0.000 A 
ATOM      7  C   UNL     1       7.838   6.834  18.497  0.00  0.00    +0.000 A 
ATOM      8  C   UNL     1       7.052   7.370  17.478  0.00  0.00    +0.000 A 
ATOM      9  C   UNL     1       6.319   6.520  16.637  0.00  0.00    +0.000 A 
BRANCH   9  10
ATOM     10  O   UNL     1       5.559   7.097  15.658  0.00  0.00    +0.000 OA
ATOM     11  H   UNL     1       4.732   7.432  16.043  0.00  0.00    +0.000 HD
ENDBRANCH   9  10
ENDBRANCH   2   4
BRANCH   3  12
ATOM     12  N   UNL     1       3.640   4.030  17.148  0.00  0.00    +0.000 N 
ATOM     13  H   UNL     1       3.174   4.920  17.054  0.00  0.00    +0.000 HD
BRANCH  12  14
ATOM     14  C   UNL     1       3.544   3.300  18.332  0.00  0.00    +0.000 C 
ATOM     15  S   UNL     1       3.576   1.610  18.332  0.00  0.00    +0.000 S 
BRANCH  14  16
ATOM     16  N   UNL     1       3.454   4.091  19.500  0.00  0.00    +0.000 N 
ATOM     17  C   UNL     1       2.564   3.735  20.619  0.00  0.00    +0.000 C 
ATOM     18  C   UNL     1       1.311   4.611  20.605  0.00  0.00    +0.000 C 
ATOM     19  C   UNL     1       1.691   6.092  20.645  0.00  0.00    +0.000 C 
ATOM     20  C   UNL     1       2.688   6.431  19.536  0.00  0.00    +0.000 C 
ATOM     21  C   UNL     1       3.894   5.492  19.565  0.00  0.00    +0.000 C 
ENDBRANCH  14  16
ENDBRANCH  12  14
ENDBRANCH   3  12
TORSDOF 5
ENDMDL
MODEL 2
REMARK VINA RESULT:      -6.9      1.898      2.471
REMARK  Name = 
REMARK  6 active torsions:
REMARK  status: ('A' for Active; 'I' for Inactive)
REMARK    1  A    between atoms: C_1  and  C_2
REMARK    2  A    between atoms: C_2  and  C_13
REMARK    3  A    between atoms: N_3  and  N_4
REMARK    4  A    between atoms: N_4  and  C_5
REMARK    5  A    between atoms: C_5  and  N_7
REMARK    6  A    between atoms: C_18  and  O_19
REMARK                            x       y       z     vdW  Elec       q    Type
REMARK                         _______ _______ _______ _____ _____    ______ ____
ROOT
ATOM      1  C   UNL     1       6.090   4.490  14.584  0.00  0.00    +0.000 C 
ATOM      2  C   UNL     1       5.911   4.511  16.091  0.00  0.00    +0.000 C 
ATOM      3  N   UNL     1       5.159   3.555  16.551  0.00  0.00    +0.000 NA
ENDROOT
BRANCH   2   4
ATOM      4  C   UNL     1       6.645   5.568  16.873  0.00  0.00    +0.000 A 
ATOM      5  C   UNL     1       6.362   6.922  16.633  0.00  0.00    +0.000 A 
ATOM      6  C   UNL     1       7.036   7.937  17.321  0.00  0.00    +0.000 A 
ATOM      7  C   UNL     1       7.965   7.614  18.302  0.00  0.00    +0.000 A 
ATOM      8  C   UNL     1       8.217   6.277  18.604  0.00  0.00    +0.000 A 
ATOM      9  C   UNL     1       7.564   5.260  17.892  0.00  0.00    +0.000 A 
BRANCH   9  10
ATOM     10  O   UNL     1       7.852   3.966  18.224  0.00  0.00    +0.000 OA
ATOM     11  H   UNL     1       8.374   3.948  19.043  0.00  0.00    +0.000 HD
ENDBRANCH   9  10
ENDBRANCH   2   4
BRANCH   3  12
ATOM     12  N   UNL     1       4.757   3.506  17.848  0.00  0.00    +0.000 N 
ATOM     13  H   UNL     1       5.356   3.031  18.506  0.00  0.00    +0.000 HD
BRANCH  12  14
ATOM     14  C   UNL     1       3.510   3.989  18.242  0.00  0.00    +0.000 C 
ATOM     15  S   UNL     1       3.015   5.562  17.869  0.00  0.00    +0.000 S 
BRANCH  14  16
ATOM     16  N   UNL     1       2.713   3.050  18.935  0.00  0.00    +0.000 N 
ATOM     17  C   UNL     1       1.243   3.143  18.965  0.00  0.00    +0.000 C 
ATOM     18  C   UNL     1       0.769   3.697  20.309  0.00  0.00    +0.000 C 
ATOM     19  C   UNL     1       1.297   2.838  21.459  0.00  0.00    +0.000 C 
ATOM     20  C   UNL     1       2.814   2.670  21.366  0.00  0.00    +0.000 C 
ATOM     21  C   UNL     1       3.234   2.164  19.986  0.00  0.00    +0.000 C 
ENDBRANCH  14  16
ENDBRANCH  12  14
ENDBRANCH   3  12
TORSDOF 5
ENDMDL
MODEL 3
REMARK VINA RESULT:      -6.9      2.198      3.598
REMARK  Name = 
REMARK  6 active torsions:
REMARK  status: ('A' for Active; 'I' for Inactive)
REMARK    1  A    between atoms: C_1  and  C_2
REMARK    2  A    between atoms: C_2  and  C_13
REMARK    3  A    between atoms: N_3  and  N_4
REMARK    4  A    between atoms: N_4  and  C_5
REMARK    5  A    between atoms: C_5  and  N_7
REMARK    6  A    between atoms: C_18  and  O_19
REMARK                            x       y       z     vdW  Elec       q    Type
REMARK                         _______ _______ _______ _____ _____    ______ ____
ROOT
ATOM      1  C   UNL     1       7.986   6.830  18.853  0.00  0.00    +0.000 C 
ATOM      2  C   UNL     1       6.888   5.821  18.569  0.00  0.00    +0.000 C 
ATOM      3  N   UNL     1       6.339   5.318  19.635  0.00  0.00    +0.000 NA
ENDROOT
BRANCH   2   4
ATOM      4  C   UNL     1       6.523   5.563  17.131  0.00  0.00    +0.000 A 
ATOM      5  C   UNL     1       5.519   6.338  16.528  0.00  0.00    +0.000 A 
ATOM      6  C   UNL     1       5.131   6.117  15.201  0.00  0.00    +0.000 A 
ATOM      7  C   UNL     1       5.782   5.156  14.438  0.00  0.00    +0.000 A 
ATOM      8  C   UNL     1       6.826   4.419  14.994  0.00  0.00    +0.000 A 
ATOM      9  C   UNL     1       7.191   4.619  16.333  0.00  0.00    +0.000 A 
BRANCH   9  10
ATOM     10  O   UNL     1       8.217   3.865  16.831  0.00  0.00    +0.000 OA
ATOM     11  H   UNL     1       8.114   2.943  16.540  0.00  0.00    +0.000 HD
ENDBRANCH   9  10
ENDBRANCH   2   4
BRANCH   3  12
ATOM     12  N   UNL     1       5.454   4.289  19.580  0.00  0.00    +0.000 N 
ATOM     13  H   UNL     1       5.818   3.368  19.392  0.00  0.00    +0.000 HD
BRANCH  12  14
ATOM     14  C   UNL     1       4.079   4.506  19.662  0.00  0.00    +0.000 C 
ATOM     15  S   UNL     1       3.420   6.056  19.515  0.00  0.00    +0.000 S 
BRANCH  14  16
ATOM     16  N   UNL     1       3.312   3.333  19.841  0.00  0.00    +0.000 N 
ATOM     17  C   UNL     1       3.342   2.222  18.873  0.00  0.00    +0.000 C 
ATOM     18  C   UNL     1       2.086   2.238  18.002  0.00  0.00    +0.000 C 
ATOM     19  C   UNL     1       0.829   2.185  18.872  0.00  0.00    +0.000 C 
ATOM     20  C   UNL     1       0.851   3.284  19.933  0.00  0.00    +0.000 C 
ATOM     21  C   UNL     1       2.151   3.254  20.739  0.00  0.00    +0.000 C 
ENDBRANCH  14  16
ENDBRANCH  12  14
ENDBRANCH   3  12
TORSDOF 5
ENDMDL
MODEL 4
REMARK VINA RESULT:      -6.9      2.190      5.538
REMARK  Name = 
REMARK  6 active torsions:
REMARK  status: ('A' for Active; 'I' for Inactive)
REMARK    1  A    between atoms: C_1  and  C_2
REMARK    2  A    between atoms: C_2  and  C_13
REMARK    3  A    between atoms: N_3  and  N_4
REMARK    4  A    between atoms: N_4  and  C_5
REMARK    5  A    between atoms: C_5  and  N_7
REMARK    6  A    between atoms: C_18  and  O_19
REMARK                            x       y       z     vdW  Elec       q    Type
REMARK                         _______ _______ _______ _____ _____    ______ ____
ROOT
ATOM      1  C   UNL     1       2.212   7.436  18.048  0.00  0.00    +0.000 C 
ATOM      2  C   UNL     1       2.886   6.077  18.028  0.00  0.00    +0.000 C 
ATOM      3  N   UNL     1       4.006   6.048  17.366  0.00  0.00    +0.000 NA
ENDROOT
BRANCH   2   4
ATOM      4  C   UNL     1       2.239   4.957  18.799  0.00  0.00    +0.000 A 
ATOM      5  C   UNL     1       1.959   5.136  20.163  0.00  0.00    +0.000 A 
ATOM      6  C   UNL     1       1.379   4.114  20.925  0.00  0.00    +0.000 A 
ATOM      7  C   UNL     1       1.017   2.917  20.320  0.00  0.00    +0.000 A 
ATOM      8  C   UNL     1       1.225   2.740  18.954  0.00  0.00    +0.000 A 
ATOM      9  C   UNL     1       1.835   3.752  18.199  0.00  0.00    +0.000 A 
BRANCH   9  10
ATOM     10  O   UNL     1       2.022   3.524  16.864  0.00  0.00    +0.000 OA
ATOM     11  H   UNL     1       2.255   4.357  16.421  0.00  0.00    +0.000 HD
ENDBRANCH   9  10
ENDBRANCH   2   4
BRANCH   3  12
ATOM     12  N   UNL     1       4.667   4.890  17.107  0.00  0.00    +0.000 N 
ATOM     13  H   UNL     1       4.462   4.093  17.689  0.00  0.00    +0.000 HD
BRANCH  12  14
ATOM     14  C   UNL     1       5.679   4.829  16.149  0.00  0.00    +0.000 C 
ATOM     15  S   UNL     1       5.370   4.313  14.569  0.00  0.00    +0.000 S 
BRANCH  14  16
ATOM     16  N   UNL     1       6.944   5.260  16.608  0.00  0.00    +0.000 N 
ATOM     17  C   UNL     1       7.627   4.614  17.743  0.00  0.00    +0.000 C 
ATOM     18  C   UNL     1       7.501   5.473  19.002  0.00  0.00    +0.000 C 
ATOM     19  C   UNL     1       8.049   6.878  18.749  0.00  0.00    +0.000 C 
ATOM     20  C   UNL     1       7.401   7.504  17.514  0.00  0.00    +0.000 C 
ATOM     21  C   UNL     1       7.510   6.581  16.300  0.00  0.00    +0.000 C 
ENDBRANCH  14  16
ENDBRANCH  12  14
ENDBRANCH   3  12
TORSDOF 5
ENDMDL
MODEL 5
REMARK VINA RESULT:      -6.9      1.246      1.655
REMARK  Name = 
REMARK  6 active torsions:
REMARK  status: ('A' for Active; 'I' for Inactive)
REMARK    1  A    between atoms: C_1  and  C_2
REMARK    2  A    between atoms: C_2  and  C_13
REMARK    3  A    between atoms: N_3  and  N_4
REMARK    4  A    between atoms: N_4  and  C_5
REMARK    5  A    between atoms: C_5  and  N_7
REMARK    6  A    between atoms: C_18  and  O_19
REMARK                            x       y       z     vdW  Elec       q    Type
REMARK                         _______ _______ _______ _____ _____    ______ ____
ROOT
ATOM      1  C   UNL     1       5.564   4.415  14.512  0.00  0.00    +0.000 C 
ATOM      2  C   UNL     1       5.623   4.352  16.027  0.00  0.00    +0.000 C 
ATOM      3  N   UNL     1       5.072   3.290  16.537  0.00  0.00    +0.000 NA
ENDROOT
BRANCH   2   4
ATOM      4  C   UNL     1       6.341   5.460  16.751  0.00  0.00    +0.000 A 
ATOM      5  C   UNL     1       5.897   6.783  16.595  0.00  0.00    +0.000 A 
ATOM      6  C   UNL     1       6.548   7.846  17.231  0.00  0.00    +0.000 A 
ATOM      7  C   UNL     1       7.619   7.598  18.080  0.00  0.00    +0.000 A 
ATOM      8  C   UNL     1       8.038   6.287  18.302  0.00  0.00    +0.000 A 
ATOM      9  C   UNL     1       7.405   5.226  17.639  0.00  0.00    +0.000 A 
BRANCH   9  10
ATOM     10  O   UNL     1       7.860   3.961  17.887  0.00  0.00    +0.000 OA
ATOM     11  H   UNL     1       7.323   3.553  18.587  0.00  0.00    +0.000 HD
ENDBRANCH   9  10
ENDBRANCH   2   4
BRANCH   3  12
ATOM     12  N   UNL     1       4.888   3.138  17.875  0.00  0.00    +0.000 N 
ATOM     13  H   UNL     1       5.695   2.911  18.435  0.00  0.00    +0.000 HD
BRANCH  12  14
ATOM     14  C   UNL     1       3.615   3.177  18.443  0.00  0.00    +0.000 C 
ATOM     15  S   UNL     1       2.349   2.236  17.836  0.00  0.00    +0.000 S 
BRANCH  14  16
ATOM     16  N   UNL     1       3.502   4.030  19.564  0.00  0.00    +0.000 N 
ATOM     17  C   UNL     1       2.559   3.758  20.663  0.00  0.00    +0.000 C 
ATOM     18  C   UNL     1       1.333   4.665  20.553  0.00  0.00    +0.000 C 
ATOM     19  C   UNL     1       1.754   6.135  20.531  0.00  0.00    +0.000 C 
ATOM     20  C   UNL     1       2.802   6.388  19.448  0.00  0.00    +0.000 C 
ATOM     21  C   UNL     1       3.979   5.421  19.574  0.00  0.00    +0.000 C 
ENDBRANCH  14  16
ENDBRANCH  12  14
ENDBRANCH   3  12
TORSDOF 5
ENDMDL
MODEL 6
REMARK VINA RESULT:      -6.8      2.668      5.871
REMARK  Name = 
REMARK  6 active torsions:
REMARK  status: ('A' for Active; 'I' for Inactive)
REMARK    1  A    between atoms: C_1  and  C_2
REMARK    2  A    between atoms: C_2  and  C_13
REMARK    3  A    between atoms: N_3  and  N_4
REMARK    4  A    between atoms: N_4  and  C_5
REMARK    5  A    between atoms: C_5  and  N_7
REMARK    6  A    between atoms: C_18  and  O_19
REMARK                            x       y       z     vdW  Elec       q    Type
REMARK                         _______ _______ _______ _____ _____    ______ ____
ROOT
ATOM      1  C   UNL     1       2.314   7.489  17.967  0.00  0.00    +0.000 C 
ATOM      2  C   UNL     1       3.037   6.292  18.558  0.00  0.00    +0.000 C 
ATOM      3  N   UNL     1       4.318   6.463  18.704  0.00  0.00    +0.000 NA
ENDROOT
BRANCH   2   4
ATOM      4  C   UNL     1       2.212   5.096  18.956  0.00  0.00    +0.000 A 
ATOM      5  C   UNL     1       1.747   4.222  17.960  0.00  0.00    +0.000 A 
ATOM      6  C   UNL     1       0.959   3.111  18.282  0.00  0.00    +0.000 A 
ATOM      7  C   UNL     1       0.672   2.823  19.610  0.00  0.00    +0.000 A 
ATOM      8  C   UNL     1       1.177   3.639  20.621  0.00  0.00    +0.000 A 
ATOM      9  C   UNL     1       1.939   4.770  20.295  0.00  0.00    +0.000 A 
BRANCH   9  10
ATOM     10  O   UNL     1       2.404   5.540  21.324  0.00  0.00    +0.000 OA
ATOM     11  H   UNL     1       1.661   5.816  21.886  0.00  0.00    +0.000 HD
ENDBRANCH   9  10
ENDBRANCH   2   4
BRANCH   3  12
ATOM     12  N   UNL     1       5.149   5.452  19.067  0.00  0.00    +0.000 N 
ATOM     13  H   UNL     1       4.882   4.888  19.858  0.00  0.00    +0.000 HD
BRANCH  12  14
ATOM     14  C   UNL     1       6.385   5.269  18.447  0.00  0.00    +0.000 C 
ATOM     15  S   UNL     1       7.781   6.030  19.019  0.00  0.00    +0.000 S 
BRANCH  14  16
ATOM     16  N   UNL     1       6.360   4.383  17.346  0.00  0.00    +0.000 N 
ATOM     17  C   UNL     1       7.432   4.361  16.334  0.00  0.00    +0.000 C 
ATOM     18  C   UNL     1       6.977   5.070  15.058  0.00  0.00    +0.000 C 
ATOM     19  C   UNL     1       5.692   4.437  14.522  0.00  0.00    +0.000 C 
ATOM     20  C   UNL     1       4.616   4.380  15.607  0.00  0.00    +0.000 C 
ATOM     21  C   UNL     1       5.141   3.709  16.877  0.00  0.00    +0.000 C 
ENDBRANCH  14  16
ENDBRANCH  12  14
ENDBRANCH   3  12
TORSDOF 5
ENDMDL
MODEL 7
REMARK VINA RESULT:      -6.8      1.983      5.436
REMARK  Name = 
REMARK  6 active torsions:
REMARK  status: ('A' for Active; 'I' for Inactive)
REMARK    1  A    between atoms: C_1  and  C_2
REMARK    2  A    between atoms: C_2  and  C_13
REMARK    3  A    between atoms: N_3  and  N_4
REMARK    4  A    between atoms: N_4  and  C_5
REMARK    5  A    between atoms: C_5  and  N_7
REMARK    6  A    between atoms: C_18  and  O_19
REMARK                            x       y       z     vdW  Elec       q    Type
REMARK                         _______ _______ _______ _____ _____    ______ ____
ROOT
ATOM      1  C   UNL     1       2.233   7.663  18.874  0.00  0.00    +0.000 C 
ATOM      2  C   UNL     1       2.746   6.282  18.509  0.00  0.00    +0.000 C 
ATOM      3  N   UNL     1       3.667   6.283  17.590  0.00  0.00    +0.000 NA
ENDROOT
BRANCH   2   4
ATOM      4  C   UNL     1       2.197   5.102  19.267  0.00  0.00    +0.000 A 
ATOM      5  C   UNL     1       2.411   5.017  20.652  0.00  0.00    +0.000 A 
ATOM      6  C   UNL     1       1.938   3.927  21.393  0.00  0.00    +0.000 A 
ATOM      7  C   UNL     1       1.193   2.934  20.769  0.00  0.00    +0.000 A 
ATOM      8  C   UNL     1       0.913   3.029  19.407  0.00  0.00    +0.000 A 
ATOM      9  C   UNL     1       1.415   4.105  18.661  0.00  0.00    +0.000 A 
BRANCH   9  10
ATOM     10  O   UNL     1       1.116   4.147  17.328  0.00  0.00    +0.000 OA
ATOM     11  H   UNL     1       1.890   3.868  16.811  0.00  0.00    +0.000 HD
ENDBRANCH   9  10
ENDBRANCH   2   4
BRANCH   3  12
ATOM     12  N   UNL     1       4.130   5.138  17.025  0.00  0.00    +0.000 N 
ATOM     13  H   UNL     1       3.641   4.783  16.217  0.00  0.00    +0.000 HD
BRANCH  12  14
ATOM     14  C   UNL     1       5.169   4.410  17.603  0.00  0.00    +0.000 C 
ATOM     15  S   UNL     1       4.875   2.990  18.473  0.00  0.00    +0.000 S 
BRANCH  14  16
ATOM     16  N   UNL     1       6.457   4.943  17.370  0.00  0.00    +0.000 N 
ATOM     17  C   UNL     1       7.590   4.678  18.274  0.00  0.00    +0.000 C 
ATOM     18  C   UNL     1       7.860   5.893  19.161  0.00  0.00    +0.000 C 
ATOM     19  C   UNL     1       8.108   7.137  18.308  0.00  0.00    +0.000 C 
ATOM     20  C   UNL     1       6.971   7.351  17.308  0.00  0.00    +0.000 C 
ATOM     21  C   UNL     1       6.710   6.089  16.485  0.00  0.00    +0.000 C 
ENDBRANCH  14  16
ENDBRANCH  12  14
ENDBRANCH   3  12
TORSDOF 5
ENDMDL
MODEL 8
REMARK VINA RESULT:      -6.6      2.387      5.686
REMARK  Name = 
REMARK  6 active torsions:
REMARK  status: ('A' for Active; 'I' for Inactive)
REMARK    1  A    between atoms: C_1  and  C_2
REMARK    2  A    between atoms: C_2  and  C_13
REMARK    3  A    between atoms: N_3  and  N_4
REMARK    4  A    between atoms: N_4  and  C_5
REMARK    5  A    between atoms: C_5  and  N_7
REMARK    6  A    between atoms: C_18  and  O_19
REMARK                            x       y       z     vdW  Elec       q    Type
REMARK                         _______ _______ _______ _____ _____    ______ ____
ROOT
ATOM      1  C   UNL     1       2.422   7.439  18.455  0.00  0.00    +0.000 C 
ATOM      2  C   UNL     1       2.994   6.040  18.313  0.00  0.00    +0.000 C 
ATOM      3  N   UNL     1       4.169   6.000  17.757  0.00  0.00    +0.000 NA
ENDROOT
BRANCH   2   4
ATOM      4  C   UNL     1       2.192   4.891  18.866  0.00  0.00    +0.000 A 
ATOM      5  C   UNL     1       1.652   3.944  17.982  0.00  0.00    +0.000 A 
ATOM      6  C   UNL     1       0.881   2.873  18.451  0.00  0.00    +0.000 A 
ATOM      7  C   UNL     1       0.688   2.700  19.815  0.00  0.00    +0.000 A 
ATOM      8  C   UNL     1       1.269   3.590  20.716  0.00  0.00    +0.000 A 
ATOM      9  C   UNL     1       2.013   4.681  20.244  0.00  0.00    +0.000 A 
BRANCH   9  10
ATOM     10  O   UNL     1       2.556   5.528  21.170  0.00  0.00    +0.000 OA
ATOM     11  H   UNL     1       3.359   5.130  21.545  0.00  0.00    +0.000 HD
ENDBRANCH   9  10
ENDBRANCH   2   4
BRANCH   3  12
ATOM     12  N   UNL     1       4.766   4.831  17.404  0.00  0.00    +0.000 N 
ATOM     13  H   UNL     1       4.546   4.011  17.947  0.00  0.00    +0.000 HD
BRANCH  12  14
ATOM     14  C   UNL     1       5.737   4.784  16.405  0.00  0.00    +0.000 C 
ATOM     15  S   UNL     1       5.380   4.218  14.852  0.00  0.00    +0.000 S 
BRANCH  14  16
ATOM     16  N   UNL     1       7.004   5.271  16.798  0.00  0.00    +0.000 N 
ATOM     17  C   UNL     1       7.734   4.714  17.950  0.00  0.00    +0.000 C 
ATOM     18  C   UNL     1       7.624   5.648  19.155  0.00  0.00    +0.000 C 
ATOM     19  C   UNL     1       8.130   7.046  18.798  0.00  0.00    +0.000 C 
ATOM     20  C   UNL     1       7.433   7.578  17.546  0.00  0.00    +0.000 C 
ATOM     21  C   UNL     1       7.529   6.582  16.390  0.00  0.00    +0.000 C 
ENDBRANCH  14  16
ENDBRANCH  12  14
ENDBRANCH   3  12
TORSDOF 5
ENDMDL
MODEL 9
REMARK VINA RESULT:      -6.6      1.354      2.097
REMARK  Name = 
REMARK  6 active torsions:
REMARK  status: ('A' for Active; 'I' for Inactive)
REMARK    1  A    between atoms: C_1  and  C_2
REMARK    2  A    between atoms: C_2  and  C_13
REMARK    3  A    between atoms: N_3  and  N_4
REMARK    4  A    between atoms: N_4  and  C_5
REMARK    5  A    between atoms: C_5  and  N_7
REMARK    6  A    between atoms: C_18  and  O_19
REMARK                            x       y       z     vdW  Elec       q    Type
REMARK                         _______ _______ _______ _____ _____    ______ ____
ROOT
ATOM      1  C   UNL     1       5.929   4.483  14.644  0.00  0.00    +0.000 C 
ATOM      2  C   UNL     1       5.771   4.536  16.153  0.00  0.00    +0.000 C 
ATOM      3  N   UNL     1       4.995   3.612  16.639  0.00  0.00    +0.000 NA
ENDROOT
BRANCH   2   4
ATOM      4  C   UNL     1       6.550   5.580  16.907  0.00  0.00    +0.000 A 
ATOM      5  C   UNL     1       6.272   6.938  16.684  0.00  0.00    +0.000 A 
ATOM      6  C   UNL     1       6.987   7.943  17.346  0.00  0.00    +0.000 A 
ATOM      7  C   UNL     1       7.953   7.605  18.286  0.00  0.00    +0.000 A 
ATOM      8  C   UNL     1       8.202   6.264  18.573  0.00  0.00    +0.000 A 
ATOM      9  C   UNL     1       7.507   5.259  17.885  0.00  0.00    +0.000 A 
BRANCH   9  10
ATOM     10  O   UNL     1       7.794   3.960  18.199  0.00  0.00    +0.000 OA
ATOM     11  H   UNL     1       7.398   3.369  17.538  0.00  0.00    +0.000 HD
ENDBRANCH   9  10
ENDBRANCH   2   4
BRANCH   3  12
ATOM     12  N   UNL     1       4.611   3.597  17.942  0.00  0.00    +0.000 N 
ATOM     13  H   UNL     1       5.286   3.886  18.633  0.00  0.00    +0.000 HD
BRANCH  12  14
ATOM     14  C   UNL     1       3.370   3.093  18.329  0.00  0.00    +0.000 C 
ATOM     15  S   UNL     1       3.112   1.433  18.519  0.00  0.00    +0.000 S 
BRANCH  14  16
ATOM     16  N   UNL     1       2.387   4.080  18.570  0.00  0.00    +0.000 N 
ATOM     17  C   UNL     1       2.493   5.441  18.017  0.00  0.00    +0.000 C 
ATOM     18  C   UNL     1       2.943   6.424  19.098  0.00  0.00    +0.000 C 
ATOM     19  C   UNL     1       1.989   6.381  20.293  0.00  0.00    +0.000 C 
ATOM     20  C   UNL     1       1.813   4.950  20.801  0.00  0.00    +0.000 C 
ATOM     21  C   UNL     1       1.415   4.002  19.669  0.00  0.00    +0.000 C 
ENDBRANCH  14  16
ENDBRANCH  12  14
ENDBRANCH   3  12
TORSDOF 5
ENDMDL
