MODEL 1
REMARK VINA RESULT:      -6.7      0.000      0.000
REMARK  Name = 
REMARK  7 active torsions:
REMARK  status: ('A' for Active; 'I' for Inactive)
REMARK    1  A    between atoms: C_1  and  O_2
REMARK    2  A    between atoms: O_2  and  C_3
REMARK    3  A    between atoms: C_6  and  N_7
REMARK    4  A    between atoms: N_10  and  C_11
REMARK    5  A    between atoms: C_11  and  C_12
REMARK    6  A    between atoms: C_18  and  O_19
REMARK    7  A    between atoms: O_19  and  C_20
REMARK                            x       y       z     vdW  Elec       q    Type
REMARK                         _______ _______ _______ _____ _____    ______ ____
ROOT
ATOM      1  N   UNL     1       3.001   6.155  19.708  0.00  0.00    +0.000 N 
ATOM      2  C   UNL     1       2.408   7.369  19.455  0.00  0.00    +0.000 C 
ATOM      3  O   UNL     1       2.454   7.977  18.390  0.00  0.00    +0.000 OA
ATOM      4  N   UNL     1       1.745   7.910  20.534  0.00  0.00    +0.000 N 
ATOM      5  H   UNL     1       2.799   5.711  20.588  0.00  0.00    +0.000 HD
ATOM      6  H   UNL     1       1.323   7.287  21.204  0.00  0.00    +0.000 HD
ENDROOT
BRANCH   1  10
ATOM      7  C   UNL     1       5.556   4.158  16.955  0.00  0.00    +0.000 A 
ATOM      8  C   UNL     1       4.176   4.192  16.745  0.00  0.00    +0.000 A 
ATOM      9  C   UNL     1       3.332   4.850  17.637  0.00  0.00    +0.000 A 
ATOM     10  C   UNL     1       3.825   5.452  18.791  0.00  0.00    +0.000 A 
ATOM     11  C   UNL     1       5.201   5.364  19.037  0.00  0.00    +0.000 A 
ATOM     12  C   UNL     1       6.072   4.705  18.140  0.00  0.00    +0.000 A 
BRANCH   7  14
ATOM     13  C   UNL     1       6.139   3.957  14.671  0.00  0.00    +0.000 C 
ATOM     14  O   UNL     1       6.390   3.591  16.028  0.00  0.00    +0.000 OA
ENDBRANCH   7  14
BRANCH  12  15
ATOM     15  O   UNL     1       7.372   4.712  18.578  0.00  0.00    +0.000 OA
ATOM     16  C   UNL     1       7.840   5.831  19.318  0.00  0.00    +0.000 C 
ENDBRANCH  12  15
ENDBRANCH   1  10
BRANCH   4  17
ATOM     17  C   UNL     1       1.031   9.136  20.247  0.00  0.00    +0.000 C 
BRANCH  17  18
ATOM     18  C   UNL     1       0.226   9.637  21.380  0.00  0.00    +0.000 A 
ATOM     19  C   UNL     1       0.079   9.162  22.669  0.00  0.00    +0.000 A 
ATOM     20  C   UNL     1      -0.692  10.120  23.363  0.00  0.00    +0.000 A 
ATOM     21  C   UNL     1      -0.982  11.108  22.452  0.00  0.00    +0.000 A 
ATOM     22  O   UNL     1      -0.427  10.828  21.242  0.00  0.00    +0.000 OA
ENDBRANCH  17  18
ENDBRANCH   4  17
TORSDOF 5
ENDMDL
MODEL 2
REMARK VINA RESULT:      -6.6      1.316      1.322
REMARK  Name = 
REMARK  7 active torsions:
REMARK  status: ('A' for Active; 'I' for Inactive)
REMARK    1  A    between atoms: C_1  and  O_2
REMARK    2  A    between atoms: O_2  and  C_3
REMARK    3  A    between atoms: C_6  and  N_7
REMARK    4  A    between atoms: N_10  and  C_11
REMARK    5  A    between atoms: C_11  and  C_12
REMARK    6  A    between atoms: C_18  and  O_19
REMARK    7  A    between atoms: O_19  and  C_20
REMARK                            x       y       z     vdW  Elec       q    Type
REMARK                         _______ _______ _______ _____ _____    ______ ____
ROOT
ATOM      1  N   UNL     1       3.373   6.319  18.840  0.00  0.00    +0.000 N 
ATOM      2  C   UNL     1       2.675   7.494  18.691  0.00  0.00    +0.000 C 
ATOM      3  O   UNL     1       2.680   8.205  17.691  0.00  0.00    +0.000 OA
ATOM      4  N   UNL     1       1.949   7.864  19.801  0.00  0.00    +0.000 N 
ATOM      5  H   UNL     1       3.200   5.775  19.668  0.00  0.00    +0.000 HD
ATOM      6  H   UNL     1       1.577   7.143  20.399  0.00  0.00    +0.000 HD
ENDROOT
BRANCH   1  10
ATOM      7  C   UNL     1       6.072   4.847  15.900  0.00  0.00    +0.000 A 
ATOM      8  C   UNL     1       4.896   4.153  16.193  0.00  0.00    +0.000 A 
ATOM      9  C   UNL     1       4.002   4.632  17.150  0.00  0.00    +0.000 A 
ATOM     10  C   UNL     1       4.272   5.786  17.879  0.00  0.00    +0.000 A 
ATOM     11  C   UNL     1       5.480   6.448  17.633  0.00  0.00    +0.000 A 
ATOM     12  C   UNL     1       6.396   5.980  16.662  0.00  0.00    +0.000 A 
BRANCH   7  14
ATOM     13  C   UNL     1       6.247   3.871  13.752  0.00  0.00    +0.000 C 
ATOM     14  O   UNL     1       6.901   4.423  14.895  0.00  0.00    +0.000 OA
ENDBRANCH   7  14
BRANCH  12  15
ATOM     15  O   UNL     1       7.524   6.757  16.595  0.00  0.00    +0.000 OA
ATOM     16  C   UNL     1       7.755   7.721  17.614  0.00  0.00    +0.000 C 
ENDBRANCH  12  15
ENDBRANCH   1  10
BRANCH   4  17
ATOM     17  C   UNL     1       1.130   9.043  19.617  0.00  0.00    +0.000 C 
BRANCH  17  18
ATOM     18  C   UNL     1       0.404   9.462  20.834  0.00  0.00    +0.000 A 
ATOM     19  C   UNL     1      -0.016   8.739  21.934  0.00  0.00    +0.000 A 
ATOM     20  C   UNL     1      -0.523   9.678  22.859  0.00  0.00    +0.000 A 
ATOM     21  C   UNL     1      -0.399  10.909  22.260  0.00  0.00    +0.000 A 
ATOM     22  O   UNL     1       0.166  10.792  21.028  0.00  0.00    +0.000 OA
ENDBRANCH  17  18
ENDBRANCH   4  17
TORSDOF 5
ENDMDL
MODEL 3
REMARK VINA RESULT:      -6.5      5.821      9.259
REMARK  Name = 
REMARK  7 active torsions:
REMARK  status: ('A' for Active; 'I' for Inactive)
REMARK    1  A    between atoms: C_1  and  O_2
REMARK    2  A    between atoms: O_2  and  C_3
REMARK    3  A    between atoms: C_6  and  N_7
REMARK    4  A    between atoms: N_10  and  C_11
REMARK    5  A    between atoms: C_11  and  C_12
REMARK    6  A    between atoms: C_18  and  O_19
REMARK    7  A    between atoms: O_19  and  C_20
REMARK                            x       y       z     vdW  Elec       q    Type
REMARK                         _______ _______ _______ _____ _____    ______ ____
ROOT
ATOM      1  N   UNL     1       8.143   9.682  17.748  0.00  0.00    +0.000 N 
ATOM      2  C   UNL     1       7.986   8.334  17.967  0.00  0.00    +0.000 C 
ATOM      3  O   UNL     1       8.649   7.656  18.745  0.00  0.00    +0.000 OA
ATOM      4  N   UNL     1       7.005   7.748  17.199  0.00  0.00    +0.000 N 
ATOM      5  H   UNL     1       7.465  10.142  17.164  0.00  0.00    +0.000 HD
ATOM      6  H   UNL     1       6.204   8.299  16.933  0.00  0.00    +0.000 HD
ENDROOT
BRANCH   1  10
ATOM      7  C   UNL     1      11.072  12.169  19.571  0.00  0.00    +0.000 A 
ATOM      8  C   UNL     1      11.193  11.798  18.231  0.00  0.00    +0.000 A 
ATOM      9  C   UNL     1      10.235  10.989  17.623  0.00  0.00    +0.000 A 
ATOM     10  C   UNL     1       9.154  10.484  18.339  0.00  0.00    +0.000 A 
ATOM     11  C   UNL     1       9.065  10.802  19.700  0.00  0.00    +0.000 A 
ATOM     12  C   UNL     1      10.025  11.626  20.331  0.00  0.00    +0.000 A 
BRANCH   7  14
ATOM     13  C   UNL     1      12.331  14.158  19.331  0.00  0.00    +0.000 C 
ATOM     14  O   UNL     1      11.966  13.038  20.139  0.00  0.00    +0.000 OA
ENDBRANCH   7  14
BRANCH  12  15
ATOM     15  O   UNL     1       9.767  11.794  21.668  0.00  0.00    +0.000 OA
ATOM     16  C   UNL     1       8.944  12.878  22.076  0.00  0.00    +0.000 C 
ENDBRANCH  12  15
ENDBRANCH   1  10
BRANCH   4  17
ATOM     17  C   UNL     1       6.762   6.352  17.497  0.00  0.00    +0.000 C 
BRANCH  17  18
ATOM     18  C   UNL     1       6.538   5.516  16.300  0.00  0.00    +0.000 A 
ATOM     19  C   UNL     1       5.471   4.719  15.936  0.00  0.00    +0.000 A 
ATOM     20  C   UNL     1       5.732   4.275  14.621  0.00  0.00    +0.000 A 
ATOM     21  C   UNL     1       6.950   4.811  14.273  0.00  0.00    +0.000 A 
ATOM     22  O   UNL     1       7.450   5.570  15.285  0.00  0.00    +0.000 OA
ENDBRANCH  17  18
ENDBRANCH   4  17
TORSDOF 5
ENDMDL
MODEL 4
REMARK VINA RESULT:      -6.4      5.096      7.006
REMARK  Name = 
REMARK  7 active torsions:
REMARK  status: ('A' for Active; 'I' for Inactive)
REMARK    1  A    between atoms: C_1  and  O_2
REMARK    2  A    between atoms: O_2  and  C_3
REMARK    3  A    between atoms: C_6  and  N_7
REMARK    4  A    between atoms: N_10  and  C_11
REMARK    5  A    between atoms: C_11  and  C_12
REMARK    6  A    between atoms: C_18  and  O_19
REMARK    7  A    between atoms: O_19  and  C_20
REMARK                            x       y       z     vdW  Elec       q    Type
REMARK                         _______ _______ _______ _____ _____    ______ ____
ROOT
ATOM      1  N   UNL     1       6.670   7.732  17.059  0.00  0.00    +0.000 N 
ATOM      2  C   UNL     1       7.700   8.137  17.874  0.00  0.00    +0.000 C 
ATOM      3  O   UNL     1       8.280   7.433  18.694  0.00  0.00    +0.000 OA
ATOM      4  N   UNL     1       8.047   9.463  17.731  0.00  0.00    +0.000 N 
ATOM      5  H   UNL     1       6.352   8.376  16.354  0.00  0.00    +0.000 HD
ATOM      6  H   UNL     1       7.934   9.897  16.829  0.00  0.00    +0.000 HD
ENDROOT
BRANCH   1  10
ATOM      7  C   UNL     1       4.825   3.900  17.038  0.00  0.00    +0.000 A 
ATOM      8  C   UNL     1       4.568   4.805  18.070  0.00  0.00    +0.000 A 
ATOM      9  C   UNL     1       5.162   6.065  18.082  0.00  0.00    +0.000 A 
ATOM     10  C   UNL     1       6.067   6.448  17.097  0.00  0.00    +0.000 A 
ATOM     11  C   UNL     1       6.376   5.519  16.096  0.00  0.00    +0.000 A 
ATOM     12  C   UNL     1       5.778   4.238  16.065  0.00  0.00    +0.000 A 
BRANCH   7  14
ATOM     13  C   UNL     1       3.506   2.305  18.184  0.00  0.00    +0.000 C 
ATOM     14  O   UNL     1       4.168   2.699  16.981  0.00  0.00    +0.000 OA
ENDBRANCH   7  14
BRANCH  12  15
ATOM     15  O   UNL     1       6.234   3.477  15.019  0.00  0.00    +0.000 OA
ATOM     16  C   UNL     1       6.029   3.942  13.692  0.00  0.00    +0.000 C 
ENDBRANCH  12  15
ENDBRANCH   1  10
BRANCH   4  17
ATOM     17  C   UNL     1       9.197   9.870  18.509  0.00  0.00    +0.000 C 
BRANCH  17  18
ATOM     18  C   UNL     1       9.692  11.223  18.178  0.00  0.00    +0.000 A 
ATOM     19  C   UNL     1      10.902  11.646  17.664  0.00  0.00    +0.000 A 
ATOM     20  C   UNL     1      10.767  13.029  17.410  0.00  0.00    +0.000 A 
ATOM     21  C   UNL     1       9.493  13.365  17.801  0.00  0.00    +0.000 A 
ATOM     22  O   UNL     1       8.827  12.275  18.269  0.00  0.00    +0.000 OA
ENDBRANCH  17  18
ENDBRANCH   4  17
TORSDOF 5
ENDMDL
MODEL 5
REMARK VINA RESULT:      -6.3      2.188      8.492
REMARK  Name = 
REMARK  7 active torsions:
REMARK  status: ('A' for Active; 'I' for Inactive)
REMARK    1  A    between atoms: C_1  and  O_2
REMARK    2  A    between atoms: O_2  and  C_3
REMARK    3  A    between atoms: C_6  and  N_7
REMARK    4  A    between atoms: N_10  and  C_11
REMARK    5  A    between atoms: C_11  and  C_12
REMARK    6  A    between atoms: C_18  and  O_19
REMARK    7  A    between atoms: O_19  and  C_20
REMARK                            x       y       z     vdW  Elec       q    Type
REMARK                         _______ _______ _______ _____ _____    ______ ____
ROOT
ATOM      1  N   UNL     1       3.409   5.481  17.627  0.00  0.00    +0.000 N 
ATOM      2  C   UNL     1       4.731   5.590  17.270  0.00  0.00    +0.000 C 
ATOM      3  O   UNL     1       5.534   6.390  17.741  0.00  0.00    +0.000 OA
ATOM      4  N   UNL     1       5.122   4.719  16.277  0.00  0.00    +0.000 N 
ATOM      5  H   UNL     1       2.884   4.712  17.244  0.00  0.00    +0.000 HD
ATOM      6  H   UNL     1       4.669   3.821  16.215  0.00  0.00    +0.000 HD
ENDROOT
BRANCH   1  10
ATOM      7  C   UNL     1       1.523   8.138  20.361  0.00  0.00    +0.000 A 
ATOM      8  C   UNL     1       1.787   6.816  20.725  0.00  0.00    +0.000 A 
ATOM      9  C   UNL     1       2.411   5.940  19.839  0.00  0.00    +0.000 A 
ATOM     10  C   UNL     1       2.747   6.335  18.548  0.00  0.00    +0.000 A 
ATOM     11  C   UNL     1       2.425   7.641  18.158  0.00  0.00    +0.000 A 
ATOM     12  C   UNL     1       1.798   8.544  19.046  0.00  0.00    +0.000 A 
BRANCH   7  14
ATOM     13  C   UNL     1      -0.309   8.695  21.752  0.00  0.00    +0.000 C 
ATOM     14  O   UNL     1       0.995   9.020  21.266  0.00  0.00    +0.000 OA
ENDBRANCH   7  14
BRANCH  12  15
ATOM     15  O   UNL     1       1.549   9.760  18.461  0.00  0.00    +0.000 OA
ATOM     16  C   UNL     1       0.208  10.109  18.148  0.00  0.00    +0.000 C 
ENDBRANCH  12  15
ENDBRANCH   1  10
BRANCH   4  17
ATOM     17  C   UNL     1       6.537   4.755  15.969  0.00  0.00    +0.000 C 
BRANCH  17  18
ATOM     18  C   UNL     1       6.838   4.604  14.531  0.00  0.00    +0.000 A 
ATOM     19  C   UNL     1       6.208   3.872  13.544  0.00  0.00    +0.000 A 
ATOM     20  C   UNL     1       6.834   4.219  12.326  0.00  0.00    +0.000 A 
ATOM     21  C   UNL     1       7.817   5.125  12.649  0.00  0.00    +0.000 A 
ATOM     22  O   UNL     1       7.829   5.369  13.987  0.00  0.00    +0.000 OA
ENDBRANCH  17  18
ENDBRANCH   4  17
TORSDOF 5
ENDMDL
MODEL 6
REMARK VINA RESULT:      -6.3      4.510      7.194
REMARK  Name = 
REMARK  7 active torsions:
REMARK  status: ('A' for Active; 'I' for Inactive)
REMARK    1  A    between atoms: C_1  and  O_2
REMARK    2  A    between atoms: O_2  and  C_3
REMARK    3  A    between atoms: C_6  and  N_7
REMARK    4  A    between atoms: N_10  and  C_11
REMARK    5  A    between atoms: C_11  and  C_12
REMARK    6  A    between atoms: C_18  and  O_19
REMARK    7  A    between atoms: O_19  and  C_20
REMARK                            x       y       z     vdW  Elec       q    Type
REMARK                         _______ _______ _______ _____ _____    ______ ____
ROOT
ATOM      1  N   UNL     1       6.823   7.928  17.007  0.00  0.00    +0.000 N 
ATOM      2  C   UNL     1       7.814   8.270  17.896  0.00  0.00    +0.000 C 
ATOM      3  O   UNL     1       8.302   7.525  18.741  0.00  0.00    +0.000 OA
ATOM      4  N   UNL     1       8.233   9.578  17.800  0.00  0.00    +0.000 N 
ATOM      5  H   UNL     1       6.585   8.596  16.294  0.00  0.00    +0.000 HD
ATOM      6  H   UNL     1       8.203  10.031  16.901  0.00  0.00    +0.000 HD
ENDROOT
BRANCH   1  10
ATOM      7  C   UNL     1       4.790   4.192  17.062  0.00  0.00    +0.000 A 
ATOM      8  C   UNL     1       6.099   4.280  16.583  0.00  0.00    +0.000 A 
ATOM      9  C   UNL     1       6.776   5.498  16.568  0.00  0.00    +0.000 A 
ATOM     10  C   UNL     1       6.158   6.674  16.981  0.00  0.00    +0.000 A 
ATOM     11  C   UNL     1       4.824   6.600  17.401  0.00  0.00    +0.000 A 
ATOM     12  C   UNL     1       4.125   5.372  17.429  0.00  0.00    +0.000 A 
BRANCH   7  14
ATOM     13  C   UNL     1       3.935   2.513  18.492  0.00  0.00    +0.000 C 
ATOM     14  O   UNL     1       4.162   2.979  17.162  0.00  0.00    +0.000 OA
ENDBRANCH   7  14
BRANCH  12  15
ATOM     15  O   UNL     1       2.827   5.522  17.848  0.00  0.00    +0.000 OA
ATOM     16  C   UNL     1       2.549   6.434  18.902  0.00  0.00    +0.000 C 
ENDBRANCH  12  15
ENDBRANCH   1  10
BRANCH   4  17
ATOM     17  C   UNL     1       9.346   9.917  18.661  0.00  0.00    +0.000 C 
BRANCH  17  18
ATOM     18  C   UNL     1      10.001  11.196  18.314  0.00  0.00    +0.000 A 
ATOM     19  C   UNL     1      11.332  11.563  18.315  0.00  0.00    +0.000 A 
ATOM     20  C   UNL     1      11.390  12.856  17.749  0.00  0.00    +0.000 A 
ATOM     21  C   UNL     1      10.092  13.203  17.457  0.00  0.00    +0.000 A 
ATOM     22  O   UNL     1       9.237  12.200  17.794  0.00  0.00    +0.000 OA
ENDBRANCH  17  18
ENDBRANCH   4  17
TORSDOF 5
ENDMDL
MODEL 7
REMARK VINA RESULT:      -6.3      2.871      8.198
REMARK  Name = 
REMARK  7 active torsions:
REMARK  status: ('A' for Active; 'I' for Inactive)
REMARK    1  A    between atoms: C_1  and  O_2
REMARK    2  A    between atoms: O_2  and  C_3
REMARK    3  A    between atoms: C_6  and  N_7
REMARK    4  A    between atoms: N_10  and  C_11
REMARK    5  A    between atoms: C_11  and  C_12
REMARK    6  A    between atoms: C_18  and  O_19
REMARK    7  A    between atoms: O_19  and  C_20
REMARK                            x       y       z     vdW  Elec       q    Type
REMARK                         _______ _______ _______ _____ _____    ______ ____
ROOT
ATOM      1  N   UNL     1       4.034   5.760  16.994  0.00  0.00    +0.000 N 
ATOM      2  C   UNL     1       5.246   5.229  16.622  0.00  0.00    +0.000 C 
ATOM      3  O   UNL     1       5.691   4.145  16.984  0.00  0.00    +0.000 OA
ATOM      4  N   UNL     1       5.989   6.042  15.794  0.00  0.00    +0.000 N 
ATOM      5  H   UNL     1       3.738   6.609  16.543  0.00  0.00    +0.000 HD
ATOM      6  H   UNL     1       5.505   6.656  15.158  0.00  0.00    +0.000 HD
ENDROOT
BRANCH   1  10
ATOM      7  C   UNL     1       1.444   4.001  19.873  0.00  0.00    +0.000 A 
ATOM      8  C   UNL     1       1.791   3.305  18.713  0.00  0.00    +0.000 A 
ATOM      9  C   UNL     1       2.644   3.870  17.768  0.00  0.00    +0.000 A 
ATOM     10  C   UNL     1       3.140   5.162  17.920  0.00  0.00    +0.000 A 
ATOM     11  C   UNL     1       2.743   5.885  19.051  0.00  0.00    +0.000 A 
ATOM     12  C   UNL     1       1.882   5.325  20.023  0.00  0.00    +0.000 A 
BRANCH   7  14
ATOM     13  C   UNL     1       1.395   2.594  21.775  0.00  0.00    +0.000 C 
ATOM     14  O   UNL     1       0.680   3.406  20.843  0.00  0.00    +0.000 OA
ENDBRANCH   7  14
BRANCH  12  15
ATOM     15  O   UNL     1       1.599   6.207  21.035  0.00  0.00    +0.000 OA
ATOM     16  C   UNL     1       1.611   7.600  20.755  0.00  0.00    +0.000 C 
ENDBRANCH  12  15
ENDBRANCH   1  10
BRANCH   4  17
ATOM     17  C   UNL     1       7.218   5.448  15.314  0.00  0.00    +0.000 C 
BRANCH  17  18
ATOM     18  C   UNL     1       7.089   4.790  13.998  0.00  0.00    +0.000 A 
ATOM     19  C   UNL     1       6.293   3.740  13.582  0.00  0.00    +0.000 A 
ATOM     20  C   UNL     1       6.470   3.632  12.185  0.00  0.00    +0.000 A 
ATOM     21  C   UNL     1       7.375   4.608  11.840  0.00  0.00    +0.000 A 
ATOM     22  O   UNL     1       7.757   5.321  12.933  0.00  0.00    +0.000 OA
ENDBRANCH  17  18
ENDBRANCH   4  17
TORSDOF 5
ENDMDL
MODEL 8
REMARK VINA RESULT:      -6.3      2.483      2.811
REMARK  Name = 
REMARK  7 active torsions:
REMARK  status: ('A' for Active; 'I' for Inactive)
REMARK    1  A    between atoms: C_1  and  O_2
REMARK    2  A    between atoms: O_2  and  C_3
REMARK    3  A    between atoms: C_6  and  N_7
REMARK    4  A    between atoms: N_10  and  C_11
REMARK    5  A    between atoms: C_11  and  C_12
REMARK    6  A    between atoms: C_18  and  O_19
REMARK    7  A    between atoms: O_19  and  C_20
REMARK                            x       y       z     vdW  Elec       q    Type
REMARK                         _______ _______ _______ _____ _____    ______ ____
ROOT
ATOM      1  N   UNL     1       2.224   7.408  18.754  0.00  0.00    +0.000 N 
ATOM      2  C   UNL     1       1.882   8.667  18.324  0.00  0.00    +0.000 C 
ATOM      3  O   UNL     1       2.253   9.189  17.276  0.00  0.00    +0.000 OA
ATOM      4  N   UNL     1       1.077   9.364  19.197  0.00  0.00    +0.000 N 
ATOM      5  H   UNL     1       1.768   7.056  19.579  0.00  0.00    +0.000 HD
ATOM      6  H   UNL     1       0.430   8.849  19.774  0.00  0.00    +0.000 HD
ENDROOT
BRANCH   1  10
ATOM      7  C   UNL     1       4.929   4.902  16.633  0.00  0.00    +0.000 A 
ATOM      8  C   UNL     1       3.759   4.376  17.184  0.00  0.00    +0.000 A 
ATOM      9  C   UNL     1       2.863   5.190  17.874  0.00  0.00    +0.000 A 
ATOM     10  C   UNL     1       3.125   6.541  18.081  0.00  0.00    +0.000 A 
ATOM     11  C   UNL     1       4.328   7.058  17.586  0.00  0.00    +0.000 A 
ATOM     12  C   UNL     1       5.246   6.247  16.878  0.00  0.00    +0.000 A 
BRANCH   7  14
ATOM     13  C   UNL     1       5.644   4.287  14.463  0.00  0.00    +0.000 C 
ATOM     14  O   UNL     1       5.760   4.118  15.877  0.00  0.00    +0.000 OA
ENDBRANCH   7  14
BRANCH  12  15
ATOM     15  O   UNL     1       6.368   6.940  16.502  0.00  0.00    +0.000 OA
ATOM     16  C   UNL     1       7.418   7.110  17.445  0.00  0.00    +0.000 C 
ENDBRANCH  12  15
ENDBRANCH   1  10
BRANCH   4  17
ATOM     17  C   UNL     1       0.627  10.649  18.705  0.00  0.00    +0.000 C 
BRANCH  17  18
ATOM     18  C   UNL     1      -0.788  10.664  18.282  0.00  0.00    +0.000 A 
ATOM     19  C   UNL     1      -1.487   9.840  17.422  0.00  0.00    +0.000 A 
ATOM     20  C   UNL     1      -2.842  10.227  17.510  0.00  0.00    +0.000 A 
ATOM     21  C   UNL     1      -2.883  11.273  18.402  0.00  0.00    +0.000 A 
ATOM     22  O   UNL     1      -1.640  11.547  18.881  0.00  0.00    +0.000 OA
ENDBRANCH  17  18
ENDBRANCH   4  17
TORSDOF 5
ENDMDL
MODEL 9
REMARK VINA RESULT:      -6.3      2.735      3.129
REMARK  Name = 
REMARK  7 active torsions:
REMARK  status: ('A' for Active; 'I' for Inactive)
REMARK    1  A    between atoms: C_1  and  O_2
REMARK    2  A    between atoms: O_2  and  C_3
REMARK    3  A    between atoms: C_6  and  N_7
REMARK    4  A    between atoms: N_10  and  C_11
REMARK    5  A    between atoms: C_11  and  C_12
REMARK    6  A    between atoms: C_18  and  O_19
REMARK    7  A    between atoms: O_19  and  C_20
REMARK                            x       y       z     vdW  Elec       q    Type
REMARK                         _______ _______ _______ _____ _____    ______ ____
ROOT
ATOM      1  N   UNL     1       2.648   7.605  17.660  0.00  0.00    +0.000 N 
ATOM      2  C   UNL     1       1.978   8.502  18.458  0.00  0.00    +0.000 C 
ATOM      3  O   UNL     1       1.692   8.331  19.639  0.00  0.00    +0.000 OA
ATOM      4  N   UNL     1       1.599   9.658  17.813  0.00  0.00    +0.000 N 
ATOM      5  H   UNL     1       2.916   7.909  16.739  0.00  0.00    +0.000 HD
ATOM      6  H   UNL     1       2.174  10.004  17.062  0.00  0.00    +0.000 HD
ENDROOT
BRANCH   1  10
ATOM      7  C   UNL     1       3.957   3.719  18.789  0.00  0.00    +0.000 A 
ATOM      8  C   UNL     1       2.636   3.934  18.390  0.00  0.00    +0.000 A 
ATOM      9  C   UNL     1       2.200   5.202  18.011  0.00  0.00    +0.000 A 
ATOM     10  C   UNL     1       3.047   6.305  18.065  0.00  0.00    +0.000 A 
ATOM     11  C   UNL     1       4.354   6.104  18.526  0.00  0.00    +0.000 A 
ATOM     12  C   UNL     1       4.814   4.823  18.909  0.00  0.00    +0.000 A 
BRANCH   7  14
ATOM     13  C   UNL     1       4.305   2.060  20.440  0.00  0.00    +0.000 C 
ATOM     14  O   UNL     1       4.405   2.456  19.071  0.00  0.00    +0.000 OA
ENDBRANCH   7  14
BRANCH  12  15
ATOM     15  O   UNL     1       6.112   4.849  19.352  0.00  0.00    +0.000 OA
ATOM     16  C   UNL     1       7.049   5.683  18.683  0.00  0.00    +0.000 C 
ENDBRANCH  12  15
ENDBRANCH   1  10
BRANCH   4  17
ATOM     17  C   UNL     1       0.986  10.651  18.671  0.00  0.00    +0.000 C 
BRANCH  17  18
ATOM     18  C   UNL     1      -0.462  10.830  18.436  0.00  0.00    +0.000 A 
ATOM     19  C   UNL     1      -1.365  10.073  17.716  0.00  0.00    +0.000 A 
ATOM     20  C   UNL     1      -2.639  10.630  17.962  0.00  0.00    +0.000 A 
ATOM     21  C   UNL     1      -2.432  11.700  18.799  0.00  0.00    +0.000 A 
ATOM     22  O   UNL     1      -1.112  11.832  19.098  0.00  0.00    +0.000 OA
ENDBRANCH  17  18
ENDBRANCH   4  17
TORSDOF 5
ENDMDL
