MODEL 1
REMARK VINA RESULT:      -8.0      0.000      0.000
REMARK  Name = 
REMARK  10 active torsions:
REMARK  status: ('A' for Active; 'I' for Inactive)
REMARK    1  A    between atoms: C_1  and  C_2
REMARK    2  A    between atoms: C_2  and  C_3
REMARK    3  A    between atoms: C_2  and  C_4
REMARK    4  A    between atoms: C_4  and  C_5
REMARK    5  A    between atoms: C_5  and  C_7
REMARK    6  A    between atoms: N_9  and  C_10
REMARK    7  A    between atoms: C_10  and  C_11
REMARK    8  A    between atoms: C_11  and  C_12
REMARK    9  A    between atoms: N_14  and  C_15
REMARK   10  A    between atoms: C_15  and  C_16
REMARK                            x       y       z     vdW  Elec       q    Type
REMARK                         _______ _______ _______ _____ _____    ______ ____
ROOT
ATOM      1  C   UNL     1       2.201   6.466  19.617  0.00  0.00    +0.000 A 
ATOM      2  C   UNL     1       3.130   6.644  18.613  0.00  0.00    +0.000 A 
ATOM      3  N   UNL     1       3.502   5.419  18.128  0.00  0.00    +0.000 N 
ATOM      4  C   UNL     1       2.795   4.424  18.769  0.00  0.00    +0.000 A 
ATOM      5  C   UNL     1       2.812   3.029  18.609  0.00  0.00    +0.000 A 
ATOM      6  C   UNL     1       1.980   2.258  19.425  0.00  0.00    +0.000 A 
ATOM      7  C   UNL     1       1.156   2.857  20.371  0.00  0.00    +0.000 A 
ATOM      8  C   UNL     1       1.142   4.249  20.524  0.00  0.00    +0.000 A 
ATOM      9  C   UNL     1       1.971   5.053  19.712  0.00  0.00    +0.000 A 
ENDROOT
BRANCH   1  10
ATOM     10  C   UNL     1       1.601   7.552  20.459  0.00  0.00    +0.000 C 
BRANCH  10  11
ATOM     11  C   UNL     1       1.226   8.800  19.648  0.00  0.00    +0.000 C 
BRANCH  11  14
ATOM     12  C   UNL     1       0.750  11.197  19.969  0.00  0.00    +0.000 C 
ATOM     13  O   UNL     1       0.967  11.528  18.819  0.00  0.00    +0.000 OA
ATOM     14  N   UNL     1       0.865   9.924  20.480  0.00  0.00    +0.000 N 
ATOM     15  H   UNL     1       0.634   9.791  21.461  0.00  0.00    +0.000 HD
BRANCH  12  16
ATOM     16  C   UNL     1       0.308  12.227  21.012  0.00  0.00    +0.000 C 
ATOM     17  O   UNL     1       1.154  12.968  21.505  0.00  0.00    +0.000 OA
BRANCH  16  18
ATOM     18  C   UNL     1      -1.156  12.220  21.384  0.00  0.00    +0.000 C 
BRANCH  18  20
ATOM     19  C   UNL     1      -2.828  12.292  23.283  0.00  0.00    +0.000 C 
ATOM     20  C   UNL     1      -1.381  11.993  22.885  0.00  0.00    +0.000 C 
ATOM     21  C   UNL     1      -1.033  10.550  23.255  0.00  0.00    +0.000 C 
ENDBRANCH  18  20
ENDBRANCH  16  18
ENDBRANCH  12  16
ENDBRANCH  11  14
ENDBRANCH  10  11
ENDBRANCH   1  10
BRANCH   3  22
ATOM     22  C   UNL     1       4.545   5.241  17.121  0.00  0.00    +0.000 C 
BRANCH  22  23
ATOM     23  C   UNL     1       5.863   5.797  17.594  0.00  0.00    +0.000 A 
ATOM     24  C   UNL     1       6.569   5.185  18.642  0.00  0.00    +0.000 A 
ATOM     25  C   UNL     1       7.727   5.770  19.154  0.00  0.00    +0.000 A 
ATOM     26  C   UNL     1       8.204   6.957  18.607  0.00  0.00    +0.000 A 
ATOM     27  C   UNL     1       7.545   7.543  17.527  0.00  0.00    +0.000 A 
ATOM     28  C   UNL     1       6.383   6.963  17.019  0.00  0.00    +0.000 A 
ENDBRANCH  22  23
ENDBRANCH   3  22
TORSDOF 8
ENDMDL
MODEL 2
REMARK VINA RESULT:      -7.9      3.748      8.546
REMARK  Name = 
REMARK  10 active torsions:
REMARK  status: ('A' for Active; 'I' for Inactive)
REMARK    1  A    between atoms: C_1  and  C_2
REMARK    2  A    between atoms: C_2  and  C_3
REMARK    3  A    between atoms: C_2  and  C_4
REMARK    4  A    between atoms: C_4  and  C_5
REMARK    5  A    between atoms: C_5  and  C_7
REMARK    6  A    between atoms: N_9  and  C_10
REMARK    7  A    between atoms: C_10  and  C_11
REMARK    8  A    between atoms: C_11  and  C_12
REMARK    9  A    between atoms: N_14  and  C_15
REMARK   10  A    between atoms: C_15  and  C_16
REMARK                            x       y       z     vdW  Elec       q    Type
REMARK                         _______ _______ _______ _____ _____    ______ ____
ROOT
ATOM      1  C   UNL     1       5.360   5.412  18.947  0.00  0.00    +0.000 A 
ATOM      2  C   UNL     1       4.764   6.594  18.561  0.00  0.00    +0.000 A 
ATOM      3  N   UNL     1       3.460   6.346  18.223  0.00  0.00    +0.000 N 
ATOM      4  C   UNL     1       3.167   5.014  18.423  0.00  0.00    +0.000 A 
ATOM      5  C   UNL     1       1.977   4.292  18.238  0.00  0.00    +0.000 A 
ATOM      6  C   UNL     1       1.982   2.923  18.516  0.00  0.00    +0.000 A 
ATOM      7  C   UNL     1       3.137   2.291  18.963  0.00  0.00    +0.000 A 
ATOM      8  C   UNL     1       4.320   3.016  19.147  0.00  0.00    +0.000 A 
ATOM      9  C   UNL     1       4.344   4.402  18.877  0.00  0.00    +0.000 A 
ENDROOT
BRANCH   1  10
ATOM     10  C   UNL     1       6.803   5.238  19.319  0.00  0.00    +0.000 C 
BRANCH  10  11
ATOM     11  C   UNL     1       7.693   4.893  18.119  0.00  0.00    +0.000 C 
BRANCH  11  14
ATOM     12  C   UNL     1       7.012   4.721  15.757  0.00  0.00    +0.000 C 
ATOM     13  O   UNL     1       7.598   5.716  15.379  0.00  0.00    +0.000 OA
ATOM     14  N   UNL     1       6.971   4.247  17.049  0.00  0.00    +0.000 N 
ATOM     15  H   UNL     1       6.452   3.389  17.216  0.00  0.00    +0.000 HD
BRANCH  12  16
ATOM     16  C   UNL     1       6.217   3.857  14.773  0.00  0.00    +0.000 C 
ATOM     17  O   UNL     1       5.494   2.969  15.218  0.00  0.00    +0.000 OA
BRANCH  16  18
ATOM     18  C   UNL     1       6.422   4.149  13.306  0.00  0.00    +0.000 C 
BRANCH  18  20
ATOM     19  C   UNL     1       4.633   3.468  11.649  0.00  0.00    +0.000 C 
ATOM     20  C   UNL     1       5.890   3.026  12.403  0.00  0.00    +0.000 C 
ATOM     21  C   UNL     1       6.968   2.602  11.403  0.00  0.00    +0.000 C 
ENDBRANCH  18  20
ENDBRANCH  16  18
ENDBRANCH  12  16
ENDBRANCH  11  14
ENDBRANCH  10  11
ENDBRANCH   1  10
BRANCH   3  22
ATOM     22  C   UNL     1       2.569   7.365  17.676  0.00  0.00    +0.000 C 
BRANCH  22  23
ATOM     23  C   UNL     1       1.897   8.150  18.773  0.00  0.00    +0.000 A 
ATOM     24  C   UNL     1       1.325   9.406  18.513  0.00  0.00    +0.000 A 
ATOM     25  C   UNL     1       0.812  10.180  19.554  0.00  0.00    +0.000 A 
ATOM     26  C   UNL     1       0.840   9.695  20.858  0.00  0.00    +0.000 A 
ATOM     27  C   UNL     1       1.351   8.424  21.120  0.00  0.00    +0.000 A 
ATOM     28  C   UNL     1       1.872   7.653  20.081  0.00  0.00    +0.000 A 
ENDBRANCH  22  23
ENDBRANCH   3  22
TORSDOF 8
ENDMDL
MODEL 3
REMARK VINA RESULT:      -7.8      4.084      8.712
REMARK  Name = 
REMARK  10 active torsions:
REMARK  status: ('A' for Active; 'I' for Inactive)
REMARK    1  A    between atoms: C_1  and  C_2
REMARK    2  A    between atoms: C_2  and  C_3
REMARK    3  A    between atoms: C_2  and  C_4
REMARK    4  A    between atoms: C_4  and  C_5
REMARK    5  A    between atoms: C_5  and  C_7
REMARK    6  A    between atoms: N_9  and  C_10
REMARK    7  A    between atoms: C_10  and  C_11
REMARK    8  A    between atoms: C_11  and  C_12
REMARK    9  A    between atoms: N_14  and  C_15
REMARK   10  A    between atoms: C_15  and  C_16
REMARK                            x       y       z     vdW  Elec       q    Type
REMARK                         _______ _______ _______ _____ _____    ______ ____
ROOT
ATOM      1  C   UNL     1       4.318   5.401  18.229  0.00  0.00    +0.000 A 
ATOM      2  C   UNL     1       3.868   6.372  19.098  0.00  0.00    +0.000 A 
ATOM      3  N   UNL     1       2.664   5.982  19.620  0.00  0.00    +0.000 N 
ATOM      4  C   UNL     1       2.325   4.735  19.140  0.00  0.00    +0.000 A 
ATOM      5  C   UNL     1       1.211   3.918  19.394  0.00  0.00    +0.000 A 
ATOM      6  C   UNL     1       1.129   2.686  18.741  0.00  0.00    +0.000 A 
ATOM      7  C   UNL     1       2.126   2.278  17.862  0.00  0.00    +0.000 A 
ATOM      8  C   UNL     1       3.236   3.096  17.614  0.00  0.00    +0.000 A 
ATOM      9  C   UNL     1       3.346   4.345  18.262  0.00  0.00    +0.000 A 
ENDROOT
BRANCH   1  10
ATOM     10  C   UNL     1       5.559   5.479  17.392  0.00  0.00    +0.000 C 
BRANCH  10  11
ATOM     11  C   UNL     1       5.386   6.354  16.144  0.00  0.00    +0.000 C 
BRANCH  11  14
ATOM     12  C   UNL     1       6.758   5.234  14.430  0.00  0.00    +0.000 C 
ATOM     13  O   UNL     1       7.834   5.497  14.932  0.00  0.00    +0.000 OA
ATOM     14  N   UNL     1       5.526   5.613  14.913  0.00  0.00    +0.000 N 
ATOM     15  H   UNL     1       4.706   5.306  14.395  0.00  0.00    +0.000 HD
BRANCH  12  16
ATOM     16  C   UNL     1       6.673   4.414  13.140  0.00  0.00    +0.000 C 
ATOM     17  O   UNL     1       7.577   4.517  12.314  0.00  0.00    +0.000 OA
BRANCH  16  18
ATOM     18  C   UNL     1       5.441   3.557  12.968  0.00  0.00    +0.000 C 
BRANCH  18  20
ATOM     19  C   UNL     1       5.803   1.612  11.389  0.00  0.00    +0.000 C 
ATOM     20  C   UNL     1       5.277   3.043  11.531  0.00  0.00    +0.000 C 
ATOM     21  C   UNL     1       3.805   3.093  11.120  0.00  0.00    +0.000 C 
ENDBRANCH  18  20
ENDBRANCH  16  18
ENDBRANCH  12  16
ENDBRANCH  11  14
ENDBRANCH  10  11
ENDBRANCH   1  10
BRANCH   3  22
ATOM     22  C   UNL     1       1.864   6.826  20.504  0.00  0.00    +0.000 C 
BRANCH  22  23
ATOM     23  C   UNL     1       1.530   8.141  19.849  0.00  0.00    +0.000 A 
ATOM     24  C   UNL     1       1.777   8.350  18.482  0.00  0.00    +0.000 A 
ATOM     25  C   UNL     1       1.576   9.605  17.909  0.00  0.00    +0.000 A 
ATOM     26  C   UNL     1       1.102  10.656  18.688  0.00  0.00    +0.000 A 
ATOM     27  C   UNL     1       0.797  10.446  20.033  0.00  0.00    +0.000 A 
ATOM     28  C   UNL     1       1.004   9.193  20.609  0.00  0.00    +0.000 A 
ENDBRANCH  22  23
ENDBRANCH   3  22
TORSDOF 8
ENDMDL
MODEL 4
REMARK VINA RESULT:      -7.8      1.232      1.506
REMARK  Name = 
REMARK  10 active torsions:
REMARK  status: ('A' for Active; 'I' for Inactive)
REMARK    1  A    between atoms: C_1  and  C_2
REMARK    2  A    between atoms: C_2  and  C_3
REMARK    3  A    between atoms: C_2  and  C_4
REMARK    4  A    between atoms: C_4  and  C_5
REMARK    5  A    between atoms: C_5  and  C_7
REMARK    6  A    between atoms: N_9  and  C_10
REMARK    7  A    between atoms: C_10  and  C_11
REMARK    8  A    between atoms: C_11  and  C_12
REMARK    9  A    between atoms: N_14  and  C_15
REMARK   10  A    between atoms: C_15  and  C_16
REMARK                            x       y       z     vdW  Elec       q    Type
REMARK                         _______ _______ _______ _____ _____    ______ ____
ROOT
ATOM      1  C   UNL     1       2.027   6.300  19.967  0.00  0.00    +0.000 A 
ATOM      2  C   UNL     1       2.855   6.695  18.937  0.00  0.00    +0.000 A 
ATOM      3  N   UNL     1       3.236   5.592  18.222  0.00  0.00    +0.000 N 
ATOM      4  C   UNL     1       2.634   4.465  18.739  0.00  0.00    +0.000 A 
ATOM      5  C   UNL     1       2.698   3.119  18.344  0.00  0.00    +0.000 A 
ATOM      6  C   UNL     1       1.977   2.176  19.080  0.00  0.00    +0.000 A 
ATOM      7  C   UNL     1       1.214   2.561  20.177  0.00  0.00    +0.000 A 
ATOM      8  C   UNL     1       1.152   3.905  20.565  0.00  0.00    +0.000 A 
ATOM      9  C   UNL     1       1.869   4.880  19.838  0.00  0.00    +0.000 A 
ENDROOT
BRANCH   1  10
ATOM     10  C   UNL     1       1.457   7.195  21.026  0.00  0.00    +0.000 C 
BRANCH  10  11
ATOM     11  C   UNL     1       1.154   8.609  20.516  0.00  0.00    +0.000 C 
BRANCH  11  14
ATOM     12  C   UNL     1       0.430  10.687  21.627  0.00  0.00    +0.000 C 
ATOM     13  O   UNL     1       1.327  11.385  21.196  0.00  0.00    +0.000 OA
ATOM     14  N   UNL     1       0.263   9.342  21.384  0.00  0.00    +0.000 N 
ATOM     15  H   UNL     1      -0.547   8.889  21.800  0.00  0.00    +0.000 HD
BRANCH  12  16
ATOM     16  C   UNL     1      -0.655  11.275  22.533  0.00  0.00    +0.000 C 
ATOM     17  O   UNL     1      -1.045  10.614  23.492  0.00  0.00    +0.000 OA
BRANCH  16  18
ATOM     18  C   UNL     1      -1.195  12.630  22.143  0.00  0.00    +0.000 C 
BRANCH  18  20
ATOM     19  C   UNL     1      -0.630  14.961  22.954  0.00  0.00    +0.000 C 
ATOM     20  C   UNL     1      -1.242  13.608  23.326  0.00  0.00    +0.000 C 
ATOM     21  C   UNL     1      -2.688  13.805  23.786  0.00  0.00    +0.000 C 
ENDBRANCH  18  20
ENDBRANCH  16  18
ENDBRANCH  12  16
ENDBRANCH  11  14
ENDBRANCH  10  11
ENDBRANCH   1  10
BRANCH   3  22
ATOM     22  C   UNL     1       4.192   5.644  17.119  0.00  0.00    +0.000 C 
BRANCH  22  23
ATOM     23  C   UNL     1       5.577   5.981  17.611  0.00  0.00    +0.000 A 
ATOM     24  C   UNL     1       6.161   5.263  18.667  0.00  0.00    +0.000 A 
ATOM     25  C   UNL     1       7.391   5.655  19.195  0.00  0.00    +0.000 A 
ATOM     26  C   UNL     1       8.061   6.750  18.657  0.00  0.00    +0.000 A 
ATOM     27  C   UNL     1       7.519   7.434  17.569  0.00  0.00    +0.000 A 
ATOM     28  C   UNL     1       6.285   7.048  17.044  0.00  0.00    +0.000 A 
ENDBRANCH  22  23
ENDBRANCH   3  22
TORSDOF 8
ENDMDL
MODEL 5
REMARK VINA RESULT:      -7.8      1.964      2.519
REMARK  Name = 
REMARK  10 active torsions:
REMARK  status: ('A' for Active; 'I' for Inactive)
REMARK    1  A    between atoms: C_1  and  C_2
REMARK    2  A    between atoms: C_2  and  C_3
REMARK    3  A    between atoms: C_2  and  C_4
REMARK    4  A    between atoms: C_4  and  C_5
REMARK    5  A    between atoms: C_5  and  C_7
REMARK    6  A    between atoms: N_9  and  C_10
REMARK    7  A    between atoms: C_10  and  C_11
REMARK    8  A    between atoms: C_11  and  C_12
REMARK    9  A    between atoms: N_14  and  C_15
REMARK   10  A    between atoms: C_15  and  C_16
REMARK                            x       y       z     vdW  Elec       q    Type
REMARK                         _______ _______ _______ _____ _____    ______ ____
ROOT
ATOM      1  C   UNL     1       1.856   6.441  19.923  0.00  0.00    +0.000 A 
ATOM      2  C   UNL     1       2.704   6.773  18.887  0.00  0.00    +0.000 A 
ATOM      3  N   UNL     1       3.207   5.624  18.336  0.00  0.00    +0.000 N 
ATOM      4  C   UNL     1       2.667   4.524  18.967  0.00  0.00    +0.000 A 
ATOM      5  C   UNL     1       2.857   3.149  18.751  0.00  0.00    +0.000 A 
ATOM      6  C   UNL     1       2.172   2.249  19.571  0.00  0.00    +0.000 A 
ATOM      7  C   UNL     1       1.325   2.702  20.576  0.00  0.00    +0.000 A 
ATOM      8  C   UNL     1       1.139   4.074  20.785  0.00  0.00    +0.000 A 
ATOM      9  C   UNL     1       1.815   5.008  19.970  0.00  0.00    +0.000 A 
ENDROOT
BRANCH   1  10
ATOM     10  C   UNL     1       1.163   7.409  20.833  0.00  0.00    +0.000 C 
BRANCH  10  11
ATOM     11  C   UNL     1       1.647   8.854  20.651  0.00  0.00    +0.000 C 
BRANCH  11  14
ATOM     12  C   UNL     1       0.092  10.127  19.224  0.00  0.00    +0.000 C 
ATOM     13  O   UNL     1       0.531   9.727  18.163  0.00  0.00    +0.000 OA
ATOM     14  N   UNL     1       0.564   9.792  20.473  0.00  0.00    +0.000 N 
ATOM     15  H   UNL     1       0.086  10.192  21.277  0.00  0.00    +0.000 HD
BRANCH  12  16
ATOM     16  C   UNL     1      -1.092  11.097  19.268  0.00  0.00    +0.000 C 
ATOM     17  O   UNL     1      -1.433  11.564  20.352  0.00  0.00    +0.000 OA
BRANCH  16  18
ATOM     18  C   UNL     1      -1.780  11.377  17.953  0.00  0.00    +0.000 C 
BRANCH  18  20
ATOM     19  C   UNL     1      -4.032  11.569  16.811  0.00  0.00    +0.000 C 
ATOM     20  C   UNL     1      -3.241  10.905  17.942  0.00  0.00    +0.000 C 
ATOM     21  C   UNL     1      -3.300   9.384  17.786  0.00  0.00    +0.000 C 
ENDBRANCH  18  20
ENDBRANCH  16  18
ENDBRANCH  12  16
ENDBRANCH  11  14
ENDBRANCH  10  11
ENDBRANCH   1  10
BRANCH   3  22
ATOM     22  C   UNL     1       4.213   5.619  17.278  0.00  0.00    +0.000 C 
BRANCH  22  23
ATOM     23  C   UNL     1       5.560   6.050  17.800  0.00  0.00    +0.000 A 
ATOM     24  C   UNL     1       6.279   7.082  17.175  0.00  0.00    +0.000 A 
ATOM     25  C   UNL     1       7.572   7.396  17.590  0.00  0.00    +0.000 A 
ATOM     26  C   UNL     1       8.150   6.702  18.649  0.00  0.00    +0.000 A 
ATOM     27  C   UNL     1       7.423   5.716  19.316  0.00  0.00    +0.000 A 
ATOM     28  C   UNL     1       6.132   5.395  18.898  0.00  0.00    +0.000 A 
ENDBRANCH  22  23
ENDBRANCH   3  22
TORSDOF 8
ENDMDL
MODEL 6
REMARK VINA RESULT:      -7.8      1.235      1.555
REMARK  Name = 
REMARK  10 active torsions:
REMARK  status: ('A' for Active; 'I' for Inactive)
REMARK    1  A    between atoms: C_1  and  C_2
REMARK    2  A    between atoms: C_2  and  C_3
REMARK    3  A    between atoms: C_2  and  C_4
REMARK    4  A    between atoms: C_4  and  C_5
REMARK    5  A    between atoms: C_5  and  C_7
REMARK    6  A    between atoms: N_9  and  C_10
REMARK    7  A    between atoms: C_10  and  C_11
REMARK    8  A    between atoms: C_11  and  C_12
REMARK    9  A    between atoms: N_14  and  C_15
REMARK   10  A    between atoms: C_15  and  C_16
REMARK                            x       y       z     vdW  Elec       q    Type
REMARK                         _______ _______ _______ _____ _____    ______ ____
ROOT
ATOM      1  C   UNL     1       2.158   5.881  19.464  0.00  0.00    +0.000 A 
ATOM      2  C   UNL     1       3.069   6.384  18.559  0.00  0.00    +0.000 A 
ATOM      3  N   UNL     1       3.530   5.361  17.774  0.00  0.00    +0.000 N 
ATOM      4  C   UNL     1       2.899   4.183  18.117  0.00  0.00    +0.000 A 
ATOM      5  C   UNL     1       3.019   2.885  17.596  0.00  0.00    +0.000 A 
ATOM      6  C   UNL     1       2.248   1.869  18.164  0.00  0.00    +0.000 A 
ATOM      7  C   UNL     1       1.383   2.136  19.220  0.00  0.00    +0.000 A 
ATOM      8  C   UNL     1       1.267   3.433  19.734  0.00  0.00    +0.000 A 
ATOM      9  C   UNL     1       2.032   4.481  19.178  0.00  0.00    +0.000 A 
ENDROOT
BRANCH   1  10
ATOM     10  C   UNL     1       1.481   6.660  20.551  0.00  0.00    +0.000 C 
BRANCH  10  11
ATOM     11  C   UNL     1       1.934   8.124  20.610  0.00  0.00    +0.000 C 
BRANCH  11  14
ATOM     12  C   UNL     1       0.559   9.778  21.814  0.00  0.00    +0.000 C 
ATOM     13  O   UNL     1       1.157   9.702  22.869  0.00  0.00    +0.000 OA
ATOM     14  N   UNL     1       0.831   9.054  20.675  0.00  0.00    +0.000 N 
ATOM     15  H   UNL     1       0.255   9.234  19.857  0.00  0.00    +0.000 HD
BRANCH  12  16
ATOM     16  C   UNL     1      -0.621  10.740  21.648  0.00  0.00    +0.000 C 
ATOM     17  O   UNL     1      -1.032  10.981  20.516  0.00  0.00    +0.000 OA
BRANCH  16  18
ATOM     18  C   UNL     1      -1.169  11.355  22.914  0.00  0.00    +0.000 C 
BRANCH  18  20
ATOM     19  C   UNL     1      -3.457  12.439  22.910  0.00  0.00    +0.000 C 
ATOM     20  C   UNL     1      -1.962  12.642  22.647  0.00  0.00    +0.000 C 
ATOM     21  C   UNL     1      -1.434  13.776  23.527  0.00  0.00    +0.000 C 
ENDBRANCH  18  20
ENDBRANCH  16  18
ENDBRANCH  12  16
ENDBRANCH  11  14
ENDBRANCH  10  11
ENDBRANCH   1  10
BRANCH   3  22
ATOM     22  C   UNL     1       4.581   5.530  16.775  0.00  0.00    +0.000 C 
BRANCH  22  23
ATOM     23  C   UNL     1       5.881   5.946  17.413  0.00  0.00    +0.000 A 
ATOM     24  C   UNL     1       6.434   5.205  18.470  0.00  0.00    +0.000 A 
ATOM     25  C   UNL     1       7.573   5.659  19.134  0.00  0.00    +0.000 A 
ATOM     26  C   UNL     1       8.186   6.842  18.732  0.00  0.00    +0.000 A 
ATOM     27  C   UNL     1       7.681   7.555  17.645  0.00  0.00    +0.000 A 
ATOM     28  C   UNL     1       6.537   7.106  16.985  0.00  0.00    +0.000 A 
ENDBRANCH  22  23
ENDBRANCH   3  22
TORSDOF 8
ENDMDL
MODEL 7
REMARK VINA RESULT:      -7.7      1.916      2.444
REMARK  Name = 
REMARK  10 active torsions:
REMARK  status: ('A' for Active; 'I' for Inactive)
REMARK    1  A    between atoms: C_1  and  C_2
REMARK    2  A    between atoms: C_2  and  C_3
REMARK    3  A    between atoms: C_2  and  C_4
REMARK    4  A    between atoms: C_4  and  C_5
REMARK    5  A    between atoms: C_5  and  C_7
REMARK    6  A    between atoms: N_9  and  C_10
REMARK    7  A    between atoms: C_10  and  C_11
REMARK    8  A    between atoms: C_11  and  C_12
REMARK    9  A    between atoms: N_14  and  C_15
REMARK   10  A    between atoms: C_15  and  C_16
REMARK                            x       y       z     vdW  Elec       q    Type
REMARK                         _______ _______ _______ _____ _____    ______ ____
ROOT
ATOM      1  C   UNL     1       2.047   6.106  19.426  0.00  0.00    +0.000 A 
ATOM      2  C   UNL     1       3.001   6.477  18.502  0.00  0.00    +0.000 A 
ATOM      3  N   UNL     1       3.412   5.367  17.815  0.00  0.00    +0.000 N 
ATOM      4  C   UNL     1       2.708   4.261  18.241  0.00  0.00    +0.000 A 
ATOM      5  C   UNL     1       2.759   2.919  17.832  0.00  0.00    +0.000 A 
ATOM      6  C   UNL     1       1.919   2.000  18.467  0.00  0.00    +0.000 A 
ATOM      7  C   UNL     1       1.055   2.405  19.478  0.00  0.00    +0.000 A 
ATOM      8  C   UNL     1       1.008   3.745  19.880  0.00  0.00    +0.000 A 
ATOM      9  C   UNL     1       1.843   4.696  19.255  0.00  0.00    +0.000 A 
ENDROOT
BRANCH   1  10
ATOM     10  C   UNL     1       1.399   7.012  20.430  0.00  0.00    +0.000 C 
BRANCH  10  11
ATOM     11  C   UNL     1       2.006   8.421  20.444  0.00  0.00    +0.000 C 
BRANCH  11  14
ATOM     12  C   UNL     1       0.948   9.992  18.867  0.00  0.00    +0.000 C 
ATOM     13  O   UNL     1       1.652   9.714  17.915  0.00  0.00    +0.000 OA
ATOM     14  N   UNL     1       1.045   9.451  20.129  0.00  0.00    +0.000 N 
ATOM     15  H   UNL     1       0.375   9.768  20.826  0.00  0.00    +0.000 HD
BRANCH  12  16
ATOM     16  C   UNL     1      -0.170  11.030  18.740  0.00  0.00    +0.000 C 
ATOM     17  O   UNL     1       0.134  12.210  18.588  0.00  0.00    +0.000 OA
BRANCH  16  18
ATOM     18  C   UNL     1      -1.584  10.511  18.853  0.00  0.00    +0.000 C 
BRANCH  18  20
ATOM     19  C   UNL     1      -3.510   9.361  17.678  0.00  0.00    +0.000 C 
ATOM     20  C   UNL     1      -2.147  10.038  17.505  0.00  0.00    +0.000 C 
ATOM     21  C   UNL     1      -2.279  11.223  16.547  0.00  0.00    +0.000 C 
ENDBRANCH  18  20
ENDBRANCH  16  18
ENDBRANCH  12  16
ENDBRANCH  11  14
ENDBRANCH  10  11
ENDBRANCH   1  10
BRANCH   3  22
ATOM     22  C   UNL     1       4.488   5.391  16.827  0.00  0.00    +0.000 C 
BRANCH  22  23
ATOM     23  C   UNL     1       5.788   5.836  17.445  0.00  0.00    +0.000 A 
ATOM     24  C   UNL     1       6.363   5.123  18.509  0.00  0.00    +0.000 A 
ATOM     25  C   UNL     1       7.502   5.606  19.153  0.00  0.00    +0.000 A 
ATOM     26  C   UNL     1       8.093   6.790  18.724  0.00  0.00    +0.000 A 
ATOM     27  C   UNL     1       7.566   7.477  17.630  0.00  0.00    +0.000 A 
ATOM     28  C   UNL     1       6.422   6.999  16.990  0.00  0.00    +0.000 A 
ENDBRANCH  22  23
ENDBRANCH   3  22
TORSDOF 8
ENDMDL
MODEL 8
REMARK VINA RESULT:      -7.7      1.725      2.246
REMARK  Name = 
REMARK  10 active torsions:
REMARK  status: ('A' for Active; 'I' for Inactive)
REMARK    1  A    between atoms: C_1  and  C_2
REMARK    2  A    between atoms: C_2  and  C_3
REMARK    3  A    between atoms: C_2  and  C_4
REMARK    4  A    between atoms: C_4  and  C_5
REMARK    5  A    between atoms: C_5  and  C_7
REMARK    6  A    between atoms: N_9  and  C_10
REMARK    7  A    between atoms: C_10  and  C_11
REMARK    8  A    between atoms: C_11  and  C_12
REMARK    9  A    between atoms: N_14  and  C_15
REMARK   10  A    between atoms: C_15  and  C_16
REMARK                            x       y       z     vdW  Elec       q    Type
REMARK                         _______ _______ _______ _____ _____    ______ ____
ROOT
ATOM      1  C   UNL     1       2.008   6.165  19.796  0.00  0.00    +0.000 A 
ATOM      2  C   UNL     1       2.952   6.565  18.874  0.00  0.00    +0.000 A 
ATOM      3  N   UNL     1       3.305   5.492  18.101  0.00  0.00    +0.000 N 
ATOM      4  C   UNL     1       2.570   4.385  18.469  0.00  0.00    +0.000 A 
ATOM      5  C   UNL     1       2.560   3.074  17.967  0.00  0.00    +0.000 A 
ATOM      6  C   UNL     1       1.703   2.143  18.559  0.00  0.00    +0.000 A 
ATOM      7  C   UNL     1       0.879   2.507  19.619  0.00  0.00    +0.000 A 
ATOM      8  C   UNL     1       0.893   3.816  20.114  0.00  0.00    +0.000 A 
ATOM      9  C   UNL     1       1.747   4.779  19.534  0.00  0.00    +0.000 A 
ENDROOT
BRANCH   1  10
ATOM     10  C   UNL     1       1.420   7.020  20.878  0.00  0.00    +0.000 C 
BRANCH  10  11
ATOM     11  C   UNL     1       1.744   8.510  20.706  0.00  0.00    +0.000 C 
BRANCH  11  14
ATOM     12  C   UNL     1       0.543   9.777  18.968  0.00  0.00    +0.000 C 
ATOM     13  O   UNL     1       1.398   9.666  18.111  0.00  0.00    +0.000 OA
ATOM     14  N   UNL     1       0.614   9.283  20.250  0.00  0.00    +0.000 N 
ATOM     15  H   UNL     1      -0.188   9.439  20.857  0.00  0.00    +0.000 HD
BRANCH  12  16
ATOM     16  C   UNL     1      -0.763  10.523  18.681  0.00  0.00    +0.000 C 
ATOM     17  O   UNL     1      -1.349  10.303  17.624  0.00  0.00    +0.000 OA
BRANCH  16  18
ATOM     18  C   UNL     1      -1.213  11.516  19.726  0.00  0.00    +0.000 C 
BRANCH  18  20
ATOM     19  C   UNL     1      -1.640  13.947  20.290  0.00  0.00    +0.000 C 
ATOM     20  C   UNL     1      -1.268  12.953  19.187  0.00  0.00    +0.000 C 
ATOM     21  C   UNL     1       0.083  13.338  18.582  0.00  0.00    +0.000 C 
ENDBRANCH  18  20
ENDBRANCH  16  18
ENDBRANCH  12  16
ENDBRANCH  11  14
ENDBRANCH  10  11
ENDBRANCH   1  10
BRANCH   3  22
ATOM     22  C   UNL     1       4.356   5.546  17.089  0.00  0.00    +0.000 C 
BRANCH  22  23
ATOM     23  C   UNL     1       5.656   6.034  17.675  0.00  0.00    +0.000 A 
ATOM     24  C   UNL     1       6.314   7.152  17.138  0.00  0.00    +0.000 A 
ATOM     25  C   UNL     1       7.572   7.527  17.607  0.00  0.00    +0.000 A 
ATOM     26  C   UNL     1       8.173   6.806  18.634  0.00  0.00    +0.000 A 
ATOM     27  C   UNL     1       7.503   5.730  19.216  0.00  0.00    +0.000 A 
ATOM     28  C   UNL     1       6.248   5.349  18.743  0.00  0.00    +0.000 A 
ENDBRANCH  22  23
ENDBRANCH   3  22
TORSDOF 8
ENDMDL
MODEL 9
REMARK VINA RESULT:      -7.7      0.955      1.624
REMARK  Name = 
REMARK  10 active torsions:
REMARK  status: ('A' for Active; 'I' for Inactive)
REMARK    1  A    between atoms: C_1  and  C_2
REMARK    2  A    between atoms: C_2  and  C_3
REMARK    3  A    between atoms: C_2  and  C_4
REMARK    4  A    between atoms: C_4  and  C_5
REMARK    5  A    between atoms: C_5  and  C_7
REMARK    6  A    between atoms: N_9  and  C_10
REMARK    7  A    between atoms: C_10  and  C_11
REMARK    8  A    between atoms: C_11  and  C_12
REMARK    9  A    between atoms: N_14  and  C_15
REMARK   10  A    between atoms: C_15  and  C_16
REMARK                            x       y       z     vdW  Elec       q    Type
REMARK                         _______ _______ _______ _____ _____    ______ ____
ROOT
ATOM      1  C   UNL     1       1.962   6.260  19.959  0.00  0.00    +0.000 A 
ATOM      2  C   UNL     1       2.840   6.625  18.960  0.00  0.00    +0.000 A 
ATOM      3  N   UNL     1       3.260   5.501  18.301  0.00  0.00    +0.000 N 
ATOM      4  C   UNL     1       2.635   4.388  18.823  0.00  0.00    +0.000 A 
ATOM      5  C   UNL     1       2.723   3.031  18.476  0.00  0.00    +0.000 A 
ATOM      6  C   UNL     1       1.967   2.109  19.205  0.00  0.00    +0.000 A 
ATOM      7  C   UNL     1       1.148   2.527  20.248  0.00  0.00    +0.000 A 
ATOM      8  C   UNL     1       1.064   3.882  20.589  0.00  0.00    +0.000 A 
ATOM      9  C   UNL     1       1.814   4.836  19.868  0.00  0.00    +0.000 A 
ENDROOT
BRANCH   1  10
ATOM     10  C   UNL     1       1.336   7.186  20.958  0.00  0.00    +0.000 C 
BRANCH  10  11
ATOM     11  C   UNL     1       1.637   8.664  20.675  0.00  0.00    +0.000 C 
BRANCH  11  14
ATOM     12  C   UNL     1       0.324  10.750  20.663  0.00  0.00    +0.000 C 
ATOM     13  O   UNL     1       1.123  11.410  21.299  0.00  0.00    +0.000 OA
ATOM     14  N   UNL     1       0.458   9.422  20.327  0.00  0.00    +0.000 N 
ATOM     15  H   UNL     1      -0.286   9.001  19.775  0.00  0.00    +0.000 HD
BRANCH  12  16
ATOM     16  C   UNL     1      -0.978  11.372  20.152  0.00  0.00    +0.000 C 
ATOM     17  O   UNL     1      -1.559  10.837  19.211  0.00  0.00    +0.000 OA
BRANCH  16  18
ATOM     18  C   UNL     1      -1.431  12.640  20.837  0.00  0.00    +0.000 C 
BRANCH  18  20
ATOM     19  C   UNL     1      -1.441  13.199  23.306  0.00  0.00    +0.000 C 
ATOM     20  C   UNL     1      -2.093  12.371  22.196  0.00  0.00    +0.000 C 
ATOM     21  C   UNL     1      -3.587  12.691  22.125  0.00  0.00    +0.000 C 
ENDBRANCH  18  20
ENDBRANCH  16  18
ENDBRANCH  12  16
ENDBRANCH  11  14
ENDBRANCH  10  11
ENDBRANCH   1  10
BRANCH   3  22
ATOM     22  C   UNL     1       4.271   5.522  17.248  0.00  0.00    +0.000 C 
BRANCH  22  23
ATOM     23  C   UNL     1       5.597   6.012  17.771  0.00  0.00    +0.000 A 
ATOM     24  C   UNL     1       6.251   7.099  17.169  0.00  0.00    +0.000 A 
ATOM     25  C   UNL     1       7.530   7.472  17.582  0.00  0.00    +0.000 A 
ATOM     26  C   UNL     1       8.156   6.782  18.615  0.00  0.00    +0.000 A 
ATOM     27  C   UNL     1       7.491   5.739  19.260  0.00  0.00    +0.000 A 
ATOM     28  C   UNL     1       6.216   5.359  18.844  0.00  0.00    +0.000 A 
ENDBRANCH  22  23
ENDBRANCH   3  22
TORSDOF 8
ENDMDL
