MODEL 1
REMARK VINA RESULT:      -8.6      0.000      0.000
REMARK  Name = 
REMARK  4 active torsions:
REMARK  status: ('A' for Active; 'I' for Inactive)
REMARK    1  A    between atoms: C_2  and  C_17
REMARK    2  A    between atoms: N_3  and  C_4
REMARK    3  A    between atoms: C_4  and  C_5
REMARK    4  A    between atoms: C_5  and  C_7
REMARK                            x       y       z     vdW  Elec       q    Type
REMARK                         _______ _______ _______ _____ _____    ______ ____
ROOT
ATOM      1  C   UNL     1       7.905   4.666  17.916  0.00  0.00    +0.000 C 
ENDROOT
BRANCH   1   4
ATOM      2  O   UNL     1       7.743   6.270  15.628  0.00  0.00    +0.000 OA
ATOM      3  C   UNL     1       7.322   5.126  15.550  0.00  0.00    +0.000 C 
ATOM      4  N   UNL     1       7.364   4.253  16.627  0.00  0.00    +0.000 N 
ATOM      5  H   UNL     1       7.085   3.288  16.507  0.00  0.00    +0.000 HD
BRANCH   3   6
ATOM      6  C   UNL     1       6.766   4.604  14.288  0.00  0.00    +0.000 A 
ATOM      7  C   UNL     1       5.518   3.990  14.250  0.00  0.00    +0.000 A 
ATOM      8  F   UNL     1       4.775   3.870  15.360  0.00  0.00    +0.000 F 
ATOM      9  C   UNL     1       4.995   3.475  13.063  0.00  0.00    +0.000 A 
ATOM     10  C   UNL     1       5.731   3.571  11.884  0.00  0.00    +0.000 A 
ATOM     11  C   UNL     1       6.985   4.181  11.902  0.00  0.00    +0.000 A 
ATOM     12  C   UNL     1       7.498   4.692  13.100  0.00  0.00    +0.000 A 
ATOM     13  F   UNL     1       8.701   5.281  13.060  0.00  0.00    +0.000 F 
ENDBRANCH   3   6
ENDBRANCH   1   4
BRANCH   1  14
ATOM     14  C   UNL     1       6.963   5.572  18.733  0.00  0.00    +0.000 C 
ATOM     15 CL   UNL     1       7.175   7.295  18.257  0.00  0.00    +0.000 Cl
BRANCH  14  16
ATOM     16  C   UNL     1       5.506   5.171  18.589  0.00  0.00    +0.000 A 
ATOM     17  C   UNL     1       4.611   6.034  17.942  0.00  0.00    +0.000 A 
ATOM     18  C   UNL     1       3.264   5.693  17.791  0.00  0.00    +0.000 A 
ATOM     19  C   UNL     1       2.775   4.468  18.265  0.00  0.00    +0.000 A 
ATOM     20  C   UNL     1       1.436   4.087  18.080  0.00  0.00    +0.000 A 
ATOM     21  C   UNL     1       0.973   2.853  18.544  0.00  0.00    +0.000 A 
ATOM     22  C   UNL     1       1.839   1.993  19.212  0.00  0.00    +0.000 A 
ATOM     23  C   UNL     1       3.171   2.362  19.412  0.00  0.00    +0.000 A 
ATOM     24  C   UNL     1       3.657   3.591  18.936  0.00  0.00    +0.000 A 
ATOM     25  C   UNL     1       5.006   3.960  19.101  0.00  0.00    +0.000 A 
ENDBRANCH  14  16
ENDBRANCH   1  14
TORSDOF 4
ENDMDL
MODEL 2
REMARK VINA RESULT:      -8.6      0.055      1.690
REMARK  Name = 
REMARK  4 active torsions:
REMARK  status: ('A' for Active; 'I' for Inactive)
REMARK    1  A    between atoms: C_2  and  C_17
REMARK    2  A    between atoms: N_3  and  C_4
REMARK    3  A    between atoms: C_4  and  C_5
REMARK    4  A    between atoms: C_5  and  C_7
REMARK                            x       y       z     vdW  Elec       q    Type
REMARK                         _______ _______ _______ _____ _____    ______ ____
ROOT
ATOM      1  C   UNL     1       7.854   4.712  17.944  0.00  0.00    +0.000 C 
ENDROOT
BRANCH   1   4
ATOM      2  O   UNL     1       7.744   6.260  15.615  0.00  0.00    +0.000 OA
ATOM      3  C   UNL     1       7.314   5.118  15.558  0.00  0.00    +0.000 C 
ATOM      4  N   UNL     1       7.329   4.272  16.656  0.00  0.00    +0.000 N 
ATOM      5  H   UNL     1       7.043   3.307  16.556  0.00  0.00    +0.000 HD
BRANCH   3   6
ATOM      6  C   UNL     1       6.773   4.571  14.301  0.00  0.00    +0.000 A 
ATOM      7  C   UNL     1       7.492   4.648  13.112  0.00  0.00    +0.000 A 
ATOM      8  F   UNL     1       8.711   5.208  13.079  0.00  0.00    +0.000 F 
ATOM      9  C   UNL     1       6.976   4.152  11.914  0.00  0.00    +0.000 A 
ATOM     10  C   UNL     1       5.712   3.565  11.896  0.00  0.00    +0.000 A 
ATOM     11  C   UNL     1       4.974   3.481  13.076  0.00  0.00    +0.000 A 
ATOM     12  C   UNL     1       5.503   3.985  14.270  0.00  0.00    +0.000 A 
ATOM     13  F   UNL     1       4.759   3.866  15.379  0.00  0.00    +0.000 F 
ENDBRANCH   3   6
ENDBRANCH   1   4
BRANCH   1  14
ATOM     14  C   UNL     1       6.896   5.627  18.734  0.00  0.00    +0.000 C 
ATOM     15 CL   UNL     1       7.097   7.341  18.222  0.00  0.00    +0.000 Cl
BRANCH  14  16
ATOM     16  C   UNL     1       5.444   5.210  18.587  0.00  0.00    +0.000 A 
ATOM     17  C   UNL     1       4.545   6.054  17.920  0.00  0.00    +0.000 A 
ATOM     18  C   UNL     1       3.202   5.698  17.766  0.00  0.00    +0.000 A 
ATOM     19  C   UNL     1       2.723   4.475  18.256  0.00  0.00    +0.000 A 
ATOM     20  C   UNL     1       1.388   4.079  18.069  0.00  0.00    +0.000 A 
ATOM     21  C   UNL     1       0.933   2.849  18.550  0.00  0.00    +0.000 A 
ATOM     22  C   UNL     1       1.803   2.008  19.237  0.00  0.00    +0.000 A 
ATOM     23  C   UNL     1       3.130   2.392  19.439  0.00  0.00    +0.000 A 
ATOM     24  C   UNL     1       3.608   3.618  18.947  0.00  0.00    +0.000 A 
ATOM     25  C   UNL     1       4.952   4.002  19.114  0.00  0.00    +0.000 A 
ENDBRANCH  14  16
ENDBRANCH   1  14
TORSDOF 4
ENDMDL
MODEL 3
REMARK VINA RESULT:      -7.8      3.328      5.078
REMARK  Name = 
REMARK  4 active torsions:
REMARK  status: ('A' for Active; 'I' for Inactive)
REMARK    1  A    between atoms: C_2  and  C_17
REMARK    2  A    between atoms: N_3  and  C_4
REMARK    3  A    between atoms: C_4  and  C_5
REMARK    4  A    between atoms: C_5  and  C_7
REMARK                            x       y       z     vdW  Elec       q    Type
REMARK                         _______ _______ _______ _____ _____    ______ ____
ROOT
ATOM      1  C   UNL     1       4.139   2.700  18.244  0.00  0.00    +0.000 C 
ENDROOT
BRANCH   1   4
ATOM      2  O   UNL     1       5.513   3.973  16.164  0.00  0.00    +0.000 OA
ATOM      3  C   UNL     1       5.609   4.451  17.284  0.00  0.00    +0.000 C 
ATOM      4  N   UNL     1       4.962   3.896  18.377  0.00  0.00    +0.000 N 
ATOM      5  H   UNL     1       4.994   4.362  19.275  0.00  0.00    +0.000 HD
BRANCH   3   6
ATOM      6  C   UNL     1       6.407   5.666  17.525  0.00  0.00    +0.000 A 
ATOM      7  C   UNL     1       7.552   5.633  18.315  0.00  0.00    +0.000 A 
ATOM      8  F   UNL     1       7.975   4.485  18.866  0.00  0.00    +0.000 F 
ATOM      9  C   UNL     1       8.300   6.784  18.565  0.00  0.00    +0.000 A 
ATOM     10  C   UNL     1       7.899   8.001  18.019  0.00  0.00    +0.000 A 
ATOM     11  C   UNL     1       6.752   8.057  17.227  0.00  0.00    +0.000 A 
ATOM     12  C   UNL     1       6.011   6.894  16.985  0.00  0.00    +0.000 A 
ATOM     13  F   UNL     1       4.926   7.000  16.206  0.00  0.00    +0.000 F 
ENDBRANCH   3   6
ENDBRANCH   1   4
BRANCH   1  14
ATOM     14  C   UNL     1       2.624   2.965  18.352  0.00  0.00    +0.000 C 
ATOM     15 CL   UNL     1       1.841   1.732  19.405  0.00  0.00    +0.000 Cl
BRANCH  14  16
ATOM     16  C   UNL     1       2.315   4.358  18.870  0.00  0.00    +0.000 A 
ATOM     17  C   UNL     1       1.998   4.540  20.223  0.00  0.00    +0.000 A 
ATOM     18  C   UNL     1       1.712   5.810  20.731  0.00  0.00    +0.000 A 
ATOM     19  C   UNL     1       1.754   6.941  19.903  0.00  0.00    +0.000 A 
ATOM     20  C   UNL     1       1.516   8.231  20.406  0.00  0.00    +0.000 A 
ATOM     21  C   UNL     1       1.579   9.347  19.569  0.00  0.00    +0.000 A 
ATOM     22  C   UNL     1       1.866   9.185  18.217  0.00  0.00    +0.000 A 
ATOM     23  C   UNL     1       2.096   7.908  17.701  0.00  0.00    +0.000 A 
ATOM     24  C   UNL     1       2.053   6.777  18.532  0.00  0.00    +0.000 A 
ATOM     25  C   UNL     1       2.316   5.488  18.031  0.00  0.00    +0.000 A 
ENDBRANCH  14  16
ENDBRANCH   1  14
TORSDOF 4
ENDMDL
MODEL 4
REMARK VINA RESULT:      -7.8      1.071      1.978
REMARK  Name = 
REMARK  4 active torsions:
REMARK  status: ('A' for Active; 'I' for Inactive)
REMARK    1  A    between atoms: C_2  and  C_17
REMARK    2  A    between atoms: N_3  and  C_4
REMARK    3  A    between atoms: C_4  and  C_5
REMARK    4  A    between atoms: C_5  and  C_7
REMARK                            x       y       z     vdW  Elec       q    Type
REMARK                         _______ _______ _______ _____ _____    ______ ____
ROOT
ATOM      1  C   UNL     1       7.466   5.860  17.514  0.00  0.00    +0.000 C 
ENDROOT
BRANCH   1   4
ATOM      2  O   UNL     1       5.668   6.447  15.451  0.00  0.00    +0.000 OA
ATOM      3  C   UNL     1       6.458   5.533  15.272  0.00  0.00    +0.000 C 
ATOM      4  N   UNL     1       7.390   5.169  16.232  0.00  0.00    +0.000 N 
ATOM      5  H   UNL     1       8.084   4.464  16.023  0.00  0.00    +0.000 HD
BRANCH   3   6
ATOM      6  C   UNL     1       6.473   4.777  14.006  0.00  0.00    +0.000 A 
ATOM      7  C   UNL     1       7.492   4.951  13.075  0.00  0.00    +0.000 A 
ATOM      8  F   UNL     1       8.504   5.800  13.312  0.00  0.00    +0.000 F 
ATOM      9  C   UNL     1       7.501   4.255  11.866  0.00  0.00    +0.000 A 
ATOM     10  C   UNL     1       6.470   3.365  11.572  0.00  0.00    +0.000 A 
ATOM     11  C   UNL     1       5.437   3.180  12.491  0.00  0.00    +0.000 A 
ATOM     12  C   UNL     1       5.440   3.885  13.700  0.00  0.00    +0.000 A 
ATOM     13  F   UNL     1       4.433   3.659  14.554  0.00  0.00    +0.000 F 
ENDBRANCH   3   6
ENDBRANCH   1   4
BRANCH   1  14
ATOM     14  C   UNL     1       7.145   4.967  18.730  0.00  0.00    +0.000 C 
ATOM     15 CL   UNL     1       7.863   5.660  20.228  0.00  0.00    +0.000 Cl
BRANCH  14  16
ATOM     16  C   UNL     1       5.653   4.760  18.919  0.00  0.00    +0.000 A 
ATOM     17  C   UNL     1       4.840   5.852  19.253  0.00  0.00    +0.000 A 
ATOM     18  C   UNL     1       3.462   5.695  19.431  0.00  0.00    +0.000 A 
ATOM     19  C   UNL     1       2.854   4.444  19.259  0.00  0.00    +0.000 A 
ATOM     20  C   UNL     1       1.464   4.277  19.387  0.00  0.00    +0.000 A 
ATOM     21  C   UNL     1       0.875   3.025  19.195  0.00  0.00    +0.000 A 
ATOM     22  C   UNL     1       1.668   1.924  18.887  0.00  0.00    +0.000 A 
ATOM     23  C   UNL     1       3.051   2.072  18.767  0.00  0.00    +0.000 A 
ATOM     24  C   UNL     1       3.658   3.327  18.940  0.00  0.00    +0.000 A 
ATOM     25  C   UNL     1       5.047   3.498  18.787  0.00  0.00    +0.000 A 
ENDBRANCH  14  16
ENDBRANCH   1  14
TORSDOF 4
ENDMDL
MODEL 5
REMARK VINA RESULT:      -7.8      1.272      2.122
REMARK  Name = 
REMARK  4 active torsions:
REMARK  status: ('A' for Active; 'I' for Inactive)
REMARK    1  A    between atoms: C_2  and  C_17
REMARK    2  A    between atoms: N_3  and  C_4
REMARK    3  A    between atoms: C_4  and  C_5
REMARK    4  A    between atoms: C_5  and  C_7
REMARK                            x       y       z     vdW  Elec       q    Type
REMARK                         _______ _______ _______ _____ _____    ______ ____
ROOT
ATOM      1  C   UNL     1       6.702   6.669  17.301  0.00  0.00    +0.000 C 
ENDROOT
BRANCH   1   4
ATOM      2  O   UNL     1       7.932   4.426  16.165  0.00  0.00    +0.000 OA
ATOM      3  C   UNL     1       7.139   5.048  15.476  0.00  0.00    +0.000 C 
ATOM      4  N   UNL     1       6.475   6.169  15.950  0.00  0.00    +0.000 N 
ATOM      5  H   UNL     1       5.762   6.612  15.385  0.00  0.00    +0.000 HD
BRANCH   3   6
ATOM      6  C   UNL     1       6.827   4.619  14.100  0.00  0.00    +0.000 A 
ATOM      7  C   UNL     1       7.645   4.974  13.031  0.00  0.00    +0.000 A 
ATOM      8  F   UNL     1       8.754   5.703  13.225  0.00  0.00    +0.000 F 
ATOM      9  C   UNL     1       7.344   4.589  11.724  0.00  0.00    +0.000 A 
ATOM     10  C   UNL     1       6.200   3.835  11.471  0.00  0.00    +0.000 A 
ATOM     11  C   UNL     1       5.366   3.472  12.528  0.00  0.00    +0.000 A 
ATOM     12  C   UNL     1       5.679   3.865  13.834  0.00  0.00    +0.000 A 
ATOM     13  F   UNL     1       4.853   3.478  14.815  0.00  0.00    +0.000 F 
ENDBRANCH   3   6
ENDBRANCH   1   4
BRANCH   1  14
ATOM     14  C   UNL     1       6.647   5.581  18.392  0.00  0.00    +0.000 C 
ATOM     15 CL   UNL     1       7.698   6.029  19.783  0.00  0.00    +0.000 Cl
BRANCH  14  16
ATOM     16  C   UNL     1       5.233   5.318  18.876  0.00  0.00    +0.000 A 
ATOM     17  C   UNL     1       4.259   6.318  18.747  0.00  0.00    +0.000 A 
ATOM     18  C   UNL     1       2.947   6.105  19.181  0.00  0.00    +0.000 A 
ATOM     19  C   UNL     1       2.565   4.877  19.739  0.00  0.00    +0.000 A 
ATOM     20  C   UNL     1       1.240   4.629  20.136  0.00  0.00    +0.000 A 
ATOM     21  C   UNL     1       0.876   3.392  20.674  0.00  0.00    +0.000 A 
ATOM     22  C   UNL     1       1.833   2.395  20.834  0.00  0.00    +0.000 A 
ATOM     23  C   UNL     1       3.155   2.631  20.452  0.00  0.00    +0.000 A 
ATOM     24  C   UNL     1       3.536   3.862  19.894  0.00  0.00    +0.000 A 
ATOM     25  C   UNL     1       4.858   4.100  19.474  0.00  0.00    +0.000 A 
ENDBRANCH  14  16
ENDBRANCH   1  14
TORSDOF 4
ENDMDL
MODEL 6
REMARK VINA RESULT:      -7.8      3.592      5.317
REMARK  Name = 
REMARK  4 active torsions:
REMARK  status: ('A' for Active; 'I' for Inactive)
REMARK    1  A    between atoms: C_2  and  C_17
REMARK    2  A    between atoms: N_3  and  C_4
REMARK    3  A    between atoms: C_4  and  C_5
REMARK    4  A    between atoms: C_5  and  C_7
REMARK                            x       y       z     vdW  Elec       q    Type
REMARK                         _______ _______ _______ _____ _____    ______ ____
ROOT
ATOM      1  C   UNL     1       4.143   3.407  19.582  0.00  0.00    +0.000 C 
ENDROOT
BRANCH   1   4
ATOM      2  O   UNL     1       5.705   3.934  17.321  0.00  0.00    +0.000 OA
ATOM      3  C   UNL     1       5.729   4.750  18.230  0.00  0.00    +0.000 C 
ATOM      4  N   UNL     1       4.986   4.580  19.388  0.00  0.00    +0.000 N 
ATOM      5  H   UNL     1       4.962   5.312  20.086  0.00  0.00    +0.000 HD
BRANCH   3   6
ATOM      6  C   UNL     1       6.540   5.977  18.130  0.00  0.00    +0.000 A 
ATOM      7  C   UNL     1       6.223   6.979  17.218  0.00  0.00    +0.000 A 
ATOM      8  F   UNL     1       5.155   6.865  16.414  0.00  0.00    +0.000 F 
ATOM      9  C   UNL     1       6.999   8.133  17.103  0.00  0.00    +0.000 A 
ATOM     10  C   UNL     1       8.120   8.296  17.914  0.00  0.00    +0.000 A 
ATOM     11  C   UNL     1       8.457   7.301  18.832  0.00  0.00    +0.000 A 
ATOM     12  C   UNL     1       7.671   6.148  18.935  0.00  0.00    +0.000 A 
ATOM     13  F   UNL     1       8.030   5.230  19.843  0.00  0.00    +0.000 F 
ENDBRANCH   3   6
ENDBRANCH   1   4
BRANCH   1  14
ATOM     14  C   UNL     1       2.639   3.727  19.706  0.00  0.00    +0.000 C 
ATOM     15 CL   UNL     1       2.015   3.210  21.314  0.00  0.00    +0.000 Cl
BRANCH  14  16
ATOM     16  C   UNL     1       2.340   5.198  19.484  0.00  0.00    +0.000 A 
ATOM     17  C   UNL     1       2.463   5.744  18.198  0.00  0.00    +0.000 A 
ATOM     18  C   UNL     1       2.193   7.094  17.961  0.00  0.00    +0.000 A 
ATOM     19  C   UNL     1       1.770   7.936  18.999  0.00  0.00    +0.000 A 
ATOM     20  C   UNL     1       1.447   9.284  18.769  0.00  0.00    +0.000 A 
ATOM     21  C   UNL     1       1.011  10.102  19.815  0.00  0.00    +0.000 A 
ATOM     22  C   UNL     1       0.907   9.586  21.103  0.00  0.00    +0.000 A 
ATOM     23  C   UNL     1       1.233   8.251  21.348  0.00  0.00    +0.000 A 
ATOM     24  C   UNL     1       1.657   7.410  20.305  0.00  0.00    +0.000 A 
ATOM     25  C   UNL     1       1.956   6.053  20.533  0.00  0.00    +0.000 A 
ENDBRANCH  14  16
ENDBRANCH   1  14
TORSDOF 4
ENDMDL
MODEL 7
REMARK VINA RESULT:      -7.8      1.098      1.113
REMARK  Name = 
REMARK  4 active torsions:
REMARK  status: ('A' for Active; 'I' for Inactive)
REMARK    1  A    between atoms: C_2  and  C_17
REMARK    2  A    between atoms: N_3  and  C_4
REMARK    3  A    between atoms: C_4  and  C_5
REMARK    4  A    between atoms: C_5  and  C_7
REMARK                            x       y       z     vdW  Elec       q    Type
REMARK                         _______ _______ _______ _____ _____    ______ ____
ROOT
ATOM      1  C   UNL     1       7.477   5.864  17.437  0.00  0.00    +0.000 C 
ENDROOT
BRANCH   1   4
ATOM      2  O   UNL     1       5.611   6.403  15.422  0.00  0.00    +0.000 OA
ATOM      3  C   UNL     1       6.424   5.514  15.219  0.00  0.00    +0.000 C 
ATOM      4  N   UNL     1       7.390   5.176  16.154  0.00  0.00    +0.000 N 
ATOM      5  H   UNL     1       8.100   4.494  15.924  0.00  0.00    +0.000 HD
BRANCH   3   6
ATOM      6  C   UNL     1       6.431   4.765  13.950  0.00  0.00    +0.000 A 
ATOM      7  C   UNL     1       5.415   3.867  13.637  0.00  0.00    +0.000 A 
ATOM      8  F   UNL     1       4.387   3.670  14.475  0.00  0.00    +0.000 F 
ATOM      9  C   UNL     1       5.428   3.138  12.447  0.00  0.00    +0.000 A 
ATOM     10  C   UNL     1       6.477   3.304  11.545  0.00  0.00    +0.000 A 
ATOM     11  C   UNL     1       7.506   4.198  11.842  0.00  0.00    +0.000 A 
ATOM     12  C   UNL     1       7.482   4.921  13.040  0.00  0.00    +0.000 A 
ATOM     13  F   UNL     1       8.487   5.776  13.270  0.00  0.00    +0.000 F 
ENDBRANCH   3   6
ENDBRANCH   1   4
BRANCH   1  14
ATOM     14  C   UNL     1       7.160   4.970  18.653  0.00  0.00    +0.000 C 
ATOM     15 CL   UNL     1       7.864   5.672  20.153  0.00  0.00    +0.000 Cl
BRANCH  14  16
ATOM     16  C   UNL     1       5.670   4.748  18.836  0.00  0.00    +0.000 A 
ATOM     17  C   UNL     1       4.871   5.788  19.333  0.00  0.00    +0.000 A 
ATOM     18  C   UNL     1       3.495   5.616  19.510  0.00  0.00    +0.000 A 
ATOM     19  C   UNL     1       2.873   4.405  19.176  0.00  0.00    +0.000 A 
ATOM     20  C   UNL     1       1.484   4.231  19.302  0.00  0.00    +0.000 A 
ATOM     21  C   UNL     1       0.881   3.022  18.947  0.00  0.00    +0.000 A 
ATOM     22  C   UNL     1       1.660   1.969  18.476  0.00  0.00    +0.000 A 
ATOM     23  C   UNL     1       3.042   2.125  18.354  0.00  0.00    +0.000 A 
ATOM     24  C   UNL     1       3.663   3.339  18.690  0.00  0.00    +0.000 A 
ATOM     25  C   UNL     1       5.051   3.520  18.539  0.00  0.00    +0.000 A 
ENDBRANCH  14  16
ENDBRANCH   1  14
TORSDOF 4
ENDMDL
MODEL 8
REMARK VINA RESULT:      -7.7      3.654      6.970
REMARK  Name = 
REMARK  4 active torsions:
REMARK  status: ('A' for Active; 'I' for Inactive)
REMARK    1  A    between atoms: C_2  and  C_17
REMARK    2  A    between atoms: N_3  and  C_4
REMARK    3  A    between atoms: C_4  and  C_5
REMARK    4  A    between atoms: C_5  and  C_7
REMARK                            x       y       z     vdW  Elec       q    Type
REMARK                         _______ _______ _______ _____ _____    ______ ____
ROOT
ATOM      1  C   UNL     1       4.462   4.664  19.264  0.00  0.00    +0.000 C 
ENDROOT
BRANCH   1   4
ATOM      2  O   UNL     1       2.009   5.499  20.323  0.00  0.00    +0.000 OA
ATOM      3  C   UNL     1       2.632   6.296  19.638  0.00  0.00    +0.000 C 
ATOM      4  N   UNL     1       3.858   5.977  19.074  0.00  0.00    +0.000 N 
ATOM      5  H   UNL     1       4.389   6.685  18.582  0.00  0.00    +0.000 HD
BRANCH   3   6
ATOM      6  C   UNL     1       2.117   7.655  19.393  0.00  0.00    +0.000 A 
ATOM      7  C   UNL     1       1.433   8.356  20.382  0.00  0.00    +0.000 A 
ATOM      8  F   UNL     1       1.237   7.820  21.596  0.00  0.00    +0.000 F 
ATOM      9  C   UNL     1       0.924   9.634  20.149  0.00  0.00    +0.000 A 
ATOM     10  C   UNL     1       1.098  10.232  18.903  0.00  0.00    +0.000 A 
ATOM     11  C   UNL     1       1.778   9.545  17.898  0.00  0.00    +0.000 A 
ATOM     12  C   UNL     1       2.282   8.262  18.144  0.00  0.00    +0.000 A 
ATOM     13  F   UNL     1       2.940   7.652  17.150  0.00  0.00    +0.000 F 
ENDBRANCH   3   6
ENDBRANCH   1   4
BRANCH   1  14
ATOM     14  C   UNL     1       4.324   3.726  18.047  0.00  0.00    +0.000 C 
ATOM     15 CL   UNL     1       2.610   3.645  17.505  0.00  0.00    +0.000 Cl
BRANCH  14  16
ATOM     16  C   UNL     1       5.213   4.146  16.890  0.00  0.00    +0.000 A 
ATOM     17  C   UNL     1       6.272   5.036  17.117  0.00  0.00    +0.000 A 
ATOM     18  C   UNL     1       7.110   5.439  16.073  0.00  0.00    +0.000 A 
ATOM     19  C   UNL     1       6.926   4.946  14.774  0.00  0.00    +0.000 A 
ATOM     20  C   UNL     1       7.788   5.303  13.723  0.00  0.00    +0.000 A 
ATOM     21  C   UNL     1       7.599   4.787  12.438  0.00  0.00    +0.000 A 
ATOM     22  C   UNL     1       6.538   3.922  12.187  0.00  0.00    +0.000 A 
ATOM     23  C   UNL     1       5.668   3.566  13.219  0.00  0.00    +0.000 A 
ATOM     24  C   UNL     1       5.854   4.062  14.521  0.00  0.00    +0.000 A 
ATOM     25  C   UNL     1       5.005   3.684  15.578  0.00  0.00    +0.000 A 
ENDBRANCH  14  16
ENDBRANCH   1  14
TORSDOF 4
ENDMDL
MODEL 9
REMARK VINA RESULT:      -7.7      6.666      8.808
REMARK  Name = 
REMARK  4 active torsions:
REMARK  status: ('A' for Active; 'I' for Inactive)
REMARK    1  A    between atoms: C_2  and  C_17
REMARK    2  A    between atoms: N_3  and  C_4
REMARK    3  A    between atoms: C_4  and  C_5
REMARK    4  A    between atoms: C_5  and  C_7
REMARK                            x       y       z     vdW  Elec       q    Type
REMARK                         _______ _______ _______ _____ _____    ______ ____
ROOT
ATOM      1  C   UNL     1       1.197   9.713  19.794  0.00  0.00    +0.000 C 
ENDROOT
BRANCH   1   4
ATOM      2  O   UNL     1       0.167  12.030  18.610  0.00  0.00    +0.000 OA
ATOM      3  C   UNL     1      -0.598  11.093  18.782  0.00  0.00    +0.000 C 
ATOM      4  N   UNL     1      -0.181   9.902  19.356  0.00  0.00    +0.000 N 
ATOM      5  H   UNL     1      -0.816   9.116  19.410  0.00  0.00    +0.000 HD
BRANCH   3   6
ATOM      6  C   UNL     1      -2.009  11.176  18.364  0.00  0.00    +0.000 A 
ATOM      7  C   UNL     1      -2.940  11.896  19.106  0.00  0.00    +0.000 A 
ATOM      8  F   UNL     1      -2.576  12.553  20.218  0.00  0.00    +0.000 F 
ATOM      9  C   UNL     1      -4.281  11.960  18.727  0.00  0.00    +0.000 A 
ATOM     10  C   UNL     1      -4.710  11.291  17.583  0.00  0.00    +0.000 A 
ATOM     11  C   UNL     1      -3.792  10.561  16.827  0.00  0.00    +0.000 A 
ATOM     12  C   UNL     1      -2.450  10.504  17.219  0.00  0.00    +0.000 A 
ATOM     13  F   UNL     1      -1.607   9.802  16.451  0.00  0.00    +0.000 F 
ENDBRANCH   3   6
ENDBRANCH   1   4
BRANCH   1  14
ATOM     14  C   UNL     1       1.389   8.540  20.777  0.00  0.00    +0.000 C 
ATOM     15 CL   UNL     1      -0.079   8.327  21.799  0.00  0.00    +0.000 Cl
BRANCH  14  16
ATOM     16  C   UNL     1       1.719   7.239  20.070  0.00  0.00    +0.000 A 
ATOM     17  C   UNL     1       2.389   7.271  18.838  0.00  0.00    +0.000 A 
ATOM     18  C   UNL     1       2.710   6.090  18.163  0.00  0.00    +0.000 A 
ATOM     19  C   UNL     1       2.389   4.839  18.710  0.00  0.00    +0.000 A 
ATOM     20  C   UNL     1       2.746   3.642  18.069  0.00  0.00    +0.000 A 
ATOM     21  C   UNL     1       2.432   2.405  18.638  0.00  0.00    +0.000 A 
ATOM     22  C   UNL     1       1.745   2.352  19.847  0.00  0.00    +0.000 A 
ATOM     23  C   UNL     1       1.375   3.535  20.492  0.00  0.00    +0.000 A 
ATOM     24  C   UNL     1       1.698   4.786  19.941  0.00  0.00    +0.000 A 
ATOM     25  C   UNL     1       1.361   5.985  20.597  0.00  0.00    +0.000 A 
ENDBRANCH  14  16
ENDBRANCH   1  14
TORSDOF 4
ENDMDL
