MODEL 1
REMARK VINA RESULT:      -7.7      0.000      0.000
REMARK  Name = 
REMARK  3 active torsions:
REMARK  status: ('A' for Active; 'I' for Inactive)
REMARK    1  A    between atoms: S_2  and  C_4
REMARK    2  A    between atoms: S_2  and  N_7
REMARK    3  A    between atoms: C_11  and  C_12
REMARK                            x       y       z     vdW  Elec       q    Type
REMARK                         _______ _______ _______ _____ _____    ______ ____
ROOT
ATOM      1  C   UNL     1       3.300   6.615  18.532  0.00  0.00    +0.000 A 
ATOM      2  N   UNL     1       4.455   6.940  17.972  0.00  0.00    +0.000 NA
ATOM      3  N   UNL     1       5.331   5.881  18.100  0.00  0.00    +0.000 NA
ATOM      4  C   UNL     1       4.689   4.940  18.748  0.00  0.00    +0.000 A 
ATOM      5  C   UNL     1       5.158   3.632  19.137  0.00  0.00    +0.000 A 
ATOM      6  N   UNL     1       4.409   2.780  19.798  0.00  0.00    +0.000 NA
ATOM      7  C   UNL     1       3.160   3.248  20.081  0.00  0.00    +0.000 A 
ATOM      8  N   UNL     1       2.214   2.537  20.764  0.00  0.00    +0.000 N 
ATOM      9  C   UNL     1       1.073   3.301  20.883  0.00  0.00    +0.000 A 
ATOM     10  C   UNL     1       1.286   4.522  20.268  0.00  0.00    +0.000 A 
ATOM     11  C   UNL     1       2.594   4.469  19.767  0.00  0.00    +0.000 A 
ATOM     12  N   UNL     1       3.416   5.352  19.053  0.00  0.00    +0.000 N 
ATOM     13  H   UNL     1       2.352   1.601  21.121  0.00  0.00    +0.000 HD
ENDROOT
BRANCH   1  18
ATOM     14  N   UNL     1       0.688   8.890  20.129  0.00  0.00    +0.000 NA
ATOM     15  C   UNL     1       0.841  10.073  19.238  0.00  0.00    +0.000 C 
ATOM     16  C   UNL     1       1.032   9.622  17.795  0.00  0.00    +0.000 C 
ATOM     17  C   UNL     1       2.233   8.695  17.670  0.00  0.00    +0.000 C 
ATOM     18  C   UNL     1       2.082   7.481  18.600  0.00  0.00    +0.000 C 
ATOM     19  C   UNL     1       1.835   7.937  20.046  0.00  0.00    +0.000 C 
BRANCH  14  21
ATOM     20  O   UNL     1       1.401   9.723  22.461  0.00  0.00    +0.000 OA
ATOM     21  S   UNL     1       0.226   9.283  21.741  0.00  0.00    +0.000 S 
ATOM     22  O   UNL     1      -0.610   8.215  22.245  0.00  0.00    +0.000 OA
BRANCH  21  23
ATOM     23  C   UNL     1      -0.870  10.731  21.683  0.00  0.00    +0.000 C 
ATOM     24  C   UNL     1      -1.234  11.285  23.034  0.00  0.00    +0.000 C 
ATOM     25  C   UNL     1      -0.288  12.041  22.140  0.00  0.00    +0.000 C 
ENDBRANCH  21  23
ENDBRANCH  14  21
ENDBRANCH   1  18
TORSDOF 3
ENDMDL
MODEL 2
REMARK VINA RESULT:      -7.6      1.118      1.154
REMARK  Name = 
REMARK  3 active torsions:
REMARK  status: ('A' for Active; 'I' for Inactive)
REMARK    1  A    between atoms: S_2  and  C_4
REMARK    2  A    between atoms: S_2  and  N_7
REMARK    3  A    between atoms: C_11  and  C_12
REMARK                            x       y       z     vdW  Elec       q    Type
REMARK                         _______ _______ _______ _____ _____    ______ ____
ROOT
ATOM      1  C   UNL     1       3.560   5.881  19.019  0.00  0.00    +0.000 A 
ATOM      2  N   UNL     1       4.838   6.177  19.193  0.00  0.00    +0.000 NA
ATOM      3  N   UNL     1       5.560   5.006  19.316  0.00  0.00    +0.000 NA
ATOM      4  C   UNL     1       4.697   4.024  19.226  0.00  0.00    +0.000 A 
ATOM      5  C   UNL     1       4.939   2.603  19.293  0.00  0.00    +0.000 A 
ATOM      6  N   UNL     1       3.974   1.718  19.197  0.00  0.00    +0.000 NA
ATOM      7  C   UNL     1       2.736   2.265  19.034  0.00  0.00    +0.000 A 
ATOM      8  N   UNL     1       1.587   1.534  18.918  0.00  0.00    +0.000 N 
ATOM      9  C   UNL     1       0.518   2.393  18.774  0.00  0.00    +0.000 A 
ATOM     10  C   UNL     1       0.985   3.695  18.797  0.00  0.00    +0.000 A 
ATOM     11  C   UNL     1       2.375   3.597  18.955  0.00  0.00    +0.000 A 
ATOM     12  N   UNL     1       3.427   4.517  19.051  0.00  0.00    +0.000 N 
ATOM     13  H   UNL     1       1.549   0.525  18.942  0.00  0.00    +0.000 HD
ENDROOT
BRANCH   1  18
ATOM     14  N   UNL     1       1.009   8.532  20.022  0.00  0.00    +0.000 NA
ATOM     15  C   UNL     1       1.417   9.610  19.080  0.00  0.00    +0.000 C 
ATOM     16  C   UNL     1       1.765   9.015  17.721  0.00  0.00    +0.000 C 
ATOM     17  C   UNL     1       2.863   7.969  17.851  0.00  0.00    +0.000 C 
ATOM     18  C   UNL     1       2.447   6.863  18.835  0.00  0.00    +0.000 C 
ATOM     19  C   UNL     1       2.044   7.469  20.187  0.00  0.00    +0.000 C 
BRANCH  14  21
ATOM     20  O   UNL     1       1.463   9.518  22.360  0.00  0.00    +0.000 OA
ATOM     21  S   UNL     1       0.364   9.112  21.511  0.00  0.00    +0.000 S 
ATOM     22  O   UNL     1      -0.634   8.171  21.969  0.00  0.00    +0.000 OA
BRANCH  21  23
ATOM     23  C   UNL     1      -0.568  10.636  21.174  0.00  0.00    +0.000 C 
ATOM     24  C   UNL     1      -1.054  11.347  22.407  0.00  0.00    +0.000 C 
ATOM     25  C   UNL     1       0.073  11.930  21.598  0.00  0.00    +0.000 C 
ENDBRANCH  21  23
ENDBRANCH  14  21
ENDBRANCH   1  18
TORSDOF 3
ENDMDL
MODEL 3
REMARK VINA RESULT:      -7.3      4.455      7.448
REMARK  Name = 
REMARK  3 active torsions:
REMARK  status: ('A' for Active; 'I' for Inactive)
REMARK    1  A    between atoms: S_2  and  C_4
REMARK    2  A    between atoms: S_2  and  N_7
REMARK    3  A    between atoms: C_11  and  C_12
REMARK                            x       y       z     vdW  Elec       q    Type
REMARK                         _______ _______ _______ _____ _____    ______ ____
ROOT
ATOM      1  C   UNL     1       4.933   3.605  19.436  0.00  0.00    +0.000 A 
ATOM      2  N   UNL     1       4.864   2.398  19.975  0.00  0.00    +0.000 NA
ATOM      3  N   UNL     1       3.618   2.233  20.548  0.00  0.00    +0.000 NA
ATOM      4  C   UNL     1       2.965   3.352  20.353  0.00  0.00    +0.000 A 
ATOM      5  C   UNL     1       1.622   3.694  20.758  0.00  0.00    +0.000 A 
ATOM      6  N   UNL     1       1.086   4.865  20.505  0.00  0.00    +0.000 NA
ATOM      7  C   UNL     1       1.912   5.718  19.835  0.00  0.00    +0.000 A 
ATOM      8  N   UNL     1       1.566   6.989  19.474  0.00  0.00    +0.000 N 
ATOM      9  C   UNL     1       2.628   7.578  18.821  0.00  0.00    +0.000 A 
ATOM     10  C   UNL     1       3.673   6.673  18.761  0.00  0.00    +0.000 A 
ATOM     11  C   UNL     1       3.206   5.513  19.395  0.00  0.00    +0.000 A 
ATOM     12  N   UNL     1       3.747   4.250  19.671  0.00  0.00    +0.000 N 
ATOM     13  H   UNL     1       0.669   7.414  19.668  0.00  0.00    +0.000 HD
ENDROOT
BRANCH   1  18
ATOM     14  N   UNL     1       6.859   5.149  16.528  0.00  0.00    +0.000 NA
ATOM     15  C   UNL     1       7.334   6.389  17.201  0.00  0.00    +0.000 C 
ATOM     16  C   UNL     1       7.755   6.080  18.632  0.00  0.00    +0.000 C 
ATOM     17  C   UNL     1       6.610   5.449  19.412  0.00  0.00    +0.000 C 
ATOM     18  C   UNL     1       6.109   4.176  18.709  0.00  0.00    +0.000 C 
ATOM     19  C   UNL     1       5.737   4.479  17.249  0.00  0.00    +0.000 C 
BRANCH  14  21
ATOM     20  O   UNL     1       7.852   5.612  14.194  0.00  0.00    +0.000 OA
ATOM     21  S   UNL     1       6.586   5.333  14.836  0.00  0.00    +0.000 S 
ATOM     22  O   UNL     1       5.441   6.199  14.654  0.00  0.00    +0.000 OA
BRANCH  21  23
ATOM     23  C   UNL     1       6.053   3.729  14.167  0.00  0.00    +0.000 C 
ATOM     24  C   UNL     1       5.024   3.827  13.074  0.00  0.00    +0.000 C 
ATOM     25  C   UNL     1       6.437   3.427  12.745  0.00  0.00    +0.000 C 
ENDBRANCH  21  23
ENDBRANCH  14  21
ENDBRANCH   1  18
TORSDOF 3
ENDMDL
MODEL 4
REMARK VINA RESULT:      -7.0      2.664      4.286
REMARK  Name = 
REMARK  3 active torsions:
REMARK  status: ('A' for Active; 'I' for Inactive)
REMARK    1  A    between atoms: S_2  and  C_4
REMARK    2  A    between atoms: S_2  and  N_7
REMARK    3  A    between atoms: C_11  and  C_12
REMARK                            x       y       z     vdW  Elec       q    Type
REMARK                         _______ _______ _______ _____ _____    ______ ____
ROOT
ATOM      1  C   UNL     1       3.396   5.358  18.101  0.00  0.00    +0.000 A 
ATOM      2  N   UNL     1       2.646   4.306  17.811  0.00  0.00    +0.000 NA
ATOM      3  N   UNL     1       3.325   3.501  16.918  0.00  0.00    +0.000 NA
ATOM      4  C   UNL     1       4.470   4.093  16.677  0.00  0.00    +0.000 A 
ATOM      5  C   UNL     1       5.542   3.662  15.813  0.00  0.00    +0.000 A 
ATOM      6  N   UNL     1       6.643   4.360  15.652  0.00  0.00    +0.000 NA
ATOM      7  C   UNL     1       6.672   5.519  16.370  0.00  0.00    +0.000 A 
ATOM      8  N   UNL     1       7.713   6.403  16.352  0.00  0.00    +0.000 N 
ATOM      9  C   UNL     1       7.419   7.465  17.179  0.00  0.00    +0.000 A 
ATOM     10  C   UNL     1       6.170   7.263  17.739  0.00  0.00    +0.000 A 
ATOM     11  C   UNL     1       5.719   6.038  17.226  0.00  0.00    +0.000 A 
ATOM     12  N   UNL     1       4.561   5.266  17.384  0.00  0.00    +0.000 N 
ATOM     13  H   UNL     1       8.556   6.280  15.807  0.00  0.00    +0.000 HD
ENDROOT
BRANCH   1  18
ATOM     14  N   UNL     1       1.875   8.681  19.192  0.00  0.00    +0.000 NA
ATOM     15  C   UNL     1       0.977   8.178  20.268  0.00  0.00    +0.000 C 
ATOM     16  C   UNL     1       1.674   7.084  21.066  0.00  0.00    +0.000 C 
ATOM     17  C   UNL     1       2.115   5.945  20.156  0.00  0.00    +0.000 C 
ATOM     18  C   UNL     1       3.031   6.466  19.037  0.00  0.00    +0.000 C 
ATOM     19  C   UNL     1       2.347   7.607  18.268  0.00  0.00    +0.000 C 
BRANCH  14  21
ATOM     20  O   UNL     1       0.004   9.762  17.787  0.00  0.00    +0.000 OA
ATOM     21  S   UNL     1       1.282  10.082  18.384  0.00  0.00    +0.000 S 
ATOM     22  O   UNL     1       2.361  10.643  17.600  0.00  0.00    +0.000 OA
BRANCH  21  23
ATOM     23  C   UNL     1       0.921  11.352  19.633  0.00  0.00    +0.000 C 
ATOM     24  C   UNL     1       0.206  12.562  19.096  0.00  0.00    +0.000 C 
ATOM     25  C   UNL     1      -0.528  11.580  19.969  0.00  0.00    +0.000 C 
ENDBRANCH  21  23
ENDBRANCH  14  21
ENDBRANCH   1  18
TORSDOF 3
ENDMDL
MODEL 5
REMARK VINA RESULT:      -7.0      3.073      6.429
REMARK  Name = 
REMARK  3 active torsions:
REMARK  status: ('A' for Active; 'I' for Inactive)
REMARK    1  A    between atoms: S_2  and  C_4
REMARK    2  A    between atoms: S_2  and  N_7
REMARK    3  A    between atoms: C_11  and  C_12
REMARK                            x       y       z     vdW  Elec       q    Type
REMARK                         _______ _______ _______ _____ _____    ______ ____
ROOT
ATOM      1  C   UNL     1       2.527   8.101  18.386  0.00  0.00    +0.000 A 
ATOM      2  N   UNL     1       2.704   8.692  17.214  0.00  0.00    +0.000 NA
ATOM      3  N   UNL     1       1.937   9.840  17.168  0.00  0.00    +0.000 NA
ATOM      4  C   UNL     1       1.302   9.911  18.312  0.00  0.00    +0.000 A 
ATOM      5  C   UNL     1       0.374  10.919  18.767  0.00  0.00    +0.000 A 
ATOM      6  N   UNL     1      -0.205  10.866  19.943  0.00  0.00    +0.000 NA
ATOM      7  C   UNL     1       0.147   9.776  20.684  0.00  0.00    +0.000 A 
ATOM      8  N   UNL     1      -0.338   9.514  21.934  0.00  0.00    +0.000 N 
ATOM      9  C   UNL     1       0.214   8.338  22.394  0.00  0.00    +0.000 A 
ATOM     10  C   UNL     1       1.065   7.835  21.427  0.00  0.00    +0.000 A 
ATOM     11  C   UNL     1       1.016   8.750  20.366  0.00  0.00    +0.000 A 
ATOM     12  N   UNL     1       1.626   8.840  19.108  0.00  0.00    +0.000 N 
ATOM     13  H   UNL     1      -0.999  10.101  22.425  0.00  0.00    +0.000 HD
ENDROOT
BRANCH   1  18
ATOM     14  N   UNL     1       3.033   4.339  18.755  0.00  0.00    +0.000 NA
ATOM     15  C   UNL     1       4.409   4.238  18.197  0.00  0.00    +0.000 C 
ATOM     16  C   UNL     1       5.254   5.415  18.668  0.00  0.00    +0.000 C 
ATOM     17  C   UNL     1       4.610   6.738  18.276  0.00  0.00    +0.000 C 
ATOM     18  C   UNL     1       3.183   6.836  18.840  0.00  0.00    +0.000 C 
ATOM     19  C   UNL     1       2.348   5.620  18.409  0.00  0.00    +0.000 C 
BRANCH  14  21
ATOM     20  O   UNL     1       2.884   1.928  17.856  0.00  0.00    +0.000 OA
ATOM     21  S   UNL     1       2.064   2.940  18.486  0.00  0.00    +0.000 S 
ATOM     22  O   UNL     1       0.810   3.363  17.903  0.00  0.00    +0.000 OA
BRANCH  21  23
ATOM     23  C   UNL     1       1.604   2.245  20.101  0.00  0.00    +0.000 C 
ATOM     24  C   UNL     1       2.542   2.610  21.220  0.00  0.00    +0.000 C 
ATOM     25  C   UNL     1       1.168   3.222  21.159  0.00  0.00    +0.000 C 
ENDBRANCH  21  23
ENDBRANCH  14  21
ENDBRANCH   1  18
TORSDOF 3
ENDMDL
MODEL 6
REMARK VINA RESULT:      -6.9      3.024      7.537
REMARK  Name = 
REMARK  3 active torsions:
REMARK  status: ('A' for Active; 'I' for Inactive)
REMARK    1  A    between atoms: S_2  and  C_4
REMARK    2  A    between atoms: S_2  and  N_7
REMARK    3  A    between atoms: C_11  and  C_12
REMARK                            x       y       z     vdW  Elec       q    Type
REMARK                         _______ _______ _______ _____ _____    ______ ____
ROOT
ATOM      1  C   UNL     1       0.609   9.570  21.262  0.00  0.00    +0.000 A 
ATOM      2  N   UNL     1      -0.104   8.803  22.071  0.00  0.00    +0.000 NA
ATOM      3  N   UNL     1      -0.903   9.604  22.863  0.00  0.00    +0.000 NA
ATOM      4  C   UNL     1      -0.645  10.842  22.523  0.00  0.00    +0.000 A 
ATOM      5  C   UNL     1      -1.214  12.060  23.050  0.00  0.00    +0.000 A 
ATOM      6  N   UNL     1      -0.857  13.249  22.623  0.00  0.00    +0.000 NA
ATOM      7  C   UNL     1       0.095  13.222  21.647  0.00  0.00    +0.000 A 
ATOM      8  N   UNL     1       0.618  14.340  21.061  0.00  0.00    +0.000 N 
ATOM      9  C   UNL     1       1.556  13.961  20.125  0.00  0.00    +0.000 A 
ATOM     10  C   UNL     1       1.638  12.580  20.107  0.00  0.00    +0.000 A 
ATOM     11  C   UNL     1       0.713  12.134  21.062  0.00  0.00    +0.000 A 
ATOM     12  N   UNL     1       0.304  10.879  21.532  0.00  0.00    +0.000 N 
ATOM     13  H   UNL     1       0.350  15.286  21.295  0.00  0.00    +0.000 HD
ENDROOT
BRANCH   1  18
ATOM     14  N   UNL     1       2.662   7.054  19.261  0.00  0.00    +0.000 NA
ATOM     15  C   UNL     1       2.210   7.428  17.893  0.00  0.00    +0.000 C 
ATOM     16  C   UNL     1       2.088   8.942  17.776  0.00  0.00    +0.000 C 
ATOM     17  C   UNL     1       1.134   9.493  18.827  0.00  0.00    +0.000 C 
ATOM     18  C   UNL     1       1.592   9.094  20.240  0.00  0.00    +0.000 C 
ATOM     19  C   UNL     1       1.768   7.572  20.339  0.00  0.00    +0.000 C 
BRANCH  14  21
ATOM     20  O   UNL     1       4.475   5.286  19.742  0.00  0.00    +0.000 OA
ATOM     21  S   UNL     1       3.065   5.388  19.433  0.00  0.00    +0.000 S 
ATOM     22  O   UNL     1       2.483   4.664  18.325  0.00  0.00    +0.000 OA
BRANCH  21  23
ATOM     23  C   UNL     1       2.207   4.742  20.899  0.00  0.00    +0.000 C 
ATOM     24  C   UNL     1       1.107   3.763  20.590  0.00  0.00    +0.000 C 
ATOM     25  C   UNL     1       2.393   3.280  21.205  0.00  0.00    +0.000 C 
ENDBRANCH  21  23
ENDBRANCH  14  21
ENDBRANCH   1  18
TORSDOF 3
ENDMDL
MODEL 7
REMARK VINA RESULT:      -6.9      3.984      7.017
REMARK  Name = 
REMARK  3 active torsions:
REMARK  status: ('A' for Active; 'I' for Inactive)
REMARK    1  A    between atoms: S_2  and  C_4
REMARK    2  A    between atoms: S_2  and  N_7
REMARK    3  A    between atoms: C_11  and  C_12
REMARK                            x       y       z     vdW  Elec       q    Type
REMARK                         _______ _______ _______ _____ _____    ______ ____
ROOT
ATOM      1  C   UNL     1       2.436   5.681  19.296  0.00  0.00    +0.000 A 
ATOM      2  N   UNL     1       2.175   4.883  20.320  0.00  0.00    +0.000 NA
ATOM      3  N   UNL     1       1.495   5.598  21.286  0.00  0.00    +0.000 NA
ATOM      4  C   UNL     1       1.371   6.820  20.829  0.00  0.00    +0.000 A 
ATOM      5  C   UNL     1       0.739   7.956  21.455  0.00  0.00    +0.000 A 
ATOM      6  N   UNL     1       0.691   9.139  20.888  0.00  0.00    +0.000 NA
ATOM      7  C   UNL     1       1.294   9.190  19.666  0.00  0.00    +0.000 A 
ATOM      8  N   UNL     1       1.371  10.318  18.898  0.00  0.00    +0.000 N 
ATOM      9  C   UNL     1       2.048  10.026  17.733  0.00  0.00    +0.000 A 
ATOM     10  C   UNL     1       2.412   8.692  17.750  0.00  0.00    +0.000 A 
ATOM     11  C   UNL     1       1.928   8.182  18.964  0.00  0.00    +0.000 A 
ATOM     12  N   UNL     1       1.954   6.930  19.591  0.00  0.00    +0.000 N 
ATOM     13  H   UNL     1       0.988  11.215  19.163  0.00  0.00    +0.000 HD
ENDROOT
BRANCH   1  18
ATOM     14  N   UNL     1       5.399   5.182  16.947  0.00  0.00    +0.000 NA
ATOM     15  C   UNL     1       5.242   3.724  16.687  0.00  0.00    +0.000 C 
ATOM     16  C   UNL     1       3.767   3.375  16.531  0.00  0.00    +0.000 C 
ATOM     17  C   UNL     1       2.976   3.792  17.764  0.00  0.00    +0.000 C 
ATOM     18  C   UNL     1       3.150   5.294  18.040  0.00  0.00    +0.000 C 
ATOM     19  C   UNL     1       4.640   5.654  18.143  0.00  0.00    +0.000 C 
BRANCH  14  21
ATOM     20  O   UNL     1       7.380   6.019  15.526  0.00  0.00    +0.000 OA
ATOM     21  S   UNL     1       7.032   5.729  16.900  0.00  0.00    +0.000 S 
ATOM     22  O   UNL     1       7.832   4.834  17.707  0.00  0.00    +0.000 OA
BRANCH  21  23
ATOM     23  C   UNL     1       7.124   7.325  17.763  0.00  0.00    +0.000 C 
ATOM     24  C   UNL     1       8.331   7.480  18.648  0.00  0.00    +0.000 C 
ATOM     25  C   UNL     1       8.238   8.252  17.359  0.00  0.00    +0.000 C 
ENDBRANCH  21  23
ENDBRANCH  14  21
ENDBRANCH   1  18
TORSDOF 3
ENDMDL
MODEL 8
REMARK VINA RESULT:      -6.9      2.708      6.507
REMARK  Name = 
REMARK  3 active torsions:
REMARK  status: ('A' for Active; 'I' for Inactive)
REMARK    1  A    between atoms: S_2  and  C_4
REMARK    2  A    between atoms: S_2  and  N_7
REMARK    3  A    between atoms: C_11  and  C_12
REMARK                            x       y       z     vdW  Elec       q    Type
REMARK                         _______ _______ _______ _____ _____    ______ ____
ROOT
ATOM      1  C   UNL     1       2.316   8.040  18.704  0.00  0.00    +0.000 A 
ATOM      2  N   UNL     1       2.294   8.302  17.407  0.00  0.00    +0.000 NA
ATOM      3  N   UNL     1       1.433   9.357  17.175  0.00  0.00    +0.000 NA
ATOM      4  C   UNL     1       0.942   9.702  18.340  0.00  0.00    +0.000 A 
ATOM      5  C   UNL     1      -0.003  10.749  18.645  0.00  0.00    +0.000 A 
ATOM      6  N   UNL     1      -0.424  10.986  19.866  0.00  0.00    +0.000 NA
ATOM      7  C   UNL     1       0.109  10.154  20.805  0.00  0.00    +0.000 A 
ATOM      8  N   UNL     1      -0.191  10.214  22.137  0.00  0.00    +0.000 N 
ATOM      9  C   UNL     1       0.511   9.232  22.803  0.00  0.00    +0.000 A 
ATOM     10  C   UNL     1       1.274   8.529  21.887  0.00  0.00    +0.000 A 
ATOM     11  C   UNL     1       1.015   9.123  20.644  0.00  0.00    +0.000 A 
ATOM     12  N   UNL     1       1.453   8.901  19.331  0.00  0.00    +0.000 N 
ATOM     13  H   UNL     1      -0.833  10.878  22.548  0.00  0.00    +0.000 HD
ENDROOT
BRANCH   1  18
ATOM     14  N   UNL     1       3.061   4.629  20.241  0.00  0.00    +0.000 NA
ATOM     15  C   UNL     1       4.214   4.240  19.383  0.00  0.00    +0.000 C 
ATOM     16  C   UNL     1       5.111   5.444  19.131  0.00  0.00    +0.000 C 
ATOM     17  C   UNL     1       4.326   6.583  18.494  0.00  0.00    +0.000 C 
ATOM     18  C   UNL     1       3.128   6.976  19.373  0.00  0.00    +0.000 C 
ATOM     19  C   UNL     1       2.253   5.749  19.672  0.00  0.00    +0.000 C 
BRANCH  14  21
ATOM     20  O   UNL     1       0.755   3.752  20.988  0.00  0.00    +0.000 OA
ATOM     21  S   UNL     1       2.114   3.298  20.788  0.00  0.00    +0.000 S 
ATOM     22  O   UNL     1       2.846   2.624  21.838  0.00  0.00    +0.000 OA
BRANCH  21  23
ATOM     23  C   UNL     1       2.018   2.077  19.445  0.00  0.00    +0.000 C 
ATOM     24  C   UNL     1       0.699   2.059  18.720  0.00  0.00    +0.000 C 
ATOM     25  C   UNL     1       1.923   2.616  18.044  0.00  0.00    +0.000 C 
ENDBRANCH  21  23
ENDBRANCH  14  21
ENDBRANCH   1  18
TORSDOF 3
ENDMDL
MODEL 9
REMARK VINA RESULT:      -6.8      3.739      7.045
REMARK  Name = 
REMARK  3 active torsions:
REMARK  status: ('A' for Active; 'I' for Inactive)
REMARK    1  A    between atoms: S_2  and  C_4
REMARK    2  A    between atoms: S_2  and  N_7
REMARK    3  A    between atoms: C_11  and  C_12
REMARK                            x       y       z     vdW  Elec       q    Type
REMARK                         _______ _______ _______ _____ _____    ______ ____
ROOT
ATOM      1  C   UNL     1       2.320   5.932  19.298  0.00  0.00    +0.000 A 
ATOM      2  N   UNL     1       2.094   5.142  20.337  0.00  0.00    +0.000 NA
ATOM      3  N   UNL     1       1.469   5.871  21.329  0.00  0.00    +0.000 NA
ATOM      4  C   UNL     1       1.342   7.093  20.872  0.00  0.00    +0.000 A 
ATOM      5  C   UNL     1       0.755   8.241  21.520  0.00  0.00    +0.000 A 
ATOM      6  N   UNL     1       0.699   9.422  20.949  0.00  0.00    +0.000 NA
ATOM      7  C   UNL     1       1.247   9.458  19.701  0.00  0.00    +0.000 A 
ATOM      8  N   UNL     1       1.304  10.581  18.925  0.00  0.00    +0.000 N 
ATOM      9  C   UNL     1       1.923  10.275  17.732  0.00  0.00    +0.000 A 
ATOM     10  C   UNL     1       2.269   8.935  17.739  0.00  0.00    +0.000 A 
ATOM     11  C   UNL     1       1.833   8.439  18.976  0.00  0.00    +0.000 A 
ATOM     12  N   UNL     1       1.869   7.189  19.608  0.00  0.00    +0.000 N 
ATOM     13  H   UNL     1       0.948  11.486  19.203  0.00  0.00    +0.000 HD
ENDROOT
BRANCH   1  18
ATOM     14  N   UNL     1       5.155   5.437  16.796  0.00  0.00    +0.000 NA
ATOM     15  C   UNL     1       5.017   3.971  16.581  0.00  0.00    +0.000 C 
ATOM     16  C   UNL     1       3.544   3.586  16.518  0.00  0.00    +0.000 C 
ATOM     17  C   UNL     1       2.815   4.016  17.783  0.00  0.00    +0.000 C 
ATOM     18  C   UNL     1       2.970   5.529  18.013  0.00  0.00    +0.000 C 
ATOM     19  C   UNL     1       4.455   5.923  18.022  0.00  0.00    +0.000 C 
BRANCH  14  21
ATOM     20  O   UNL     1       6.760   7.455  16.807  0.00  0.00    +0.000 OA
ATOM     21  S   UNL     1       6.771   6.017  16.643  0.00  0.00    +0.000 S 
ATOM     22  O   UNL     1       7.366   5.396  15.480  0.00  0.00    +0.000 OA
BRANCH  21  23
ATOM     23  C   UNL     1       7.739   5.383  18.043  0.00  0.00    +0.000 C 
ATOM     24  C   UNL     1       8.156   6.436  19.034  0.00  0.00    +0.000 C 
ATOM     25  C   UNL     1       7.089   5.440  19.399  0.00  0.00    +0.000 C 
ENDBRANCH  21  23
ENDBRANCH  14  21
ENDBRANCH   1  18
TORSDOF 3
ENDMDL
