MODEL 1
REMARK VINA RESULT:      -9.3      0.000      0.000
REMARK  Name = 
REMARK  6 active torsions:
REMARK  status: ('A' for Active; 'I' for Inactive)
REMARK    1  A    between atoms: C_1  and  C_2
REMARK    2  A    between atoms: C_12  and  C_13
REMARK    3  A    between atoms: C_18  and  C_19
REMARK    4  A    between atoms: C_19  and  C_20
REMARK    5  A    between atoms: C_19  and  C_21
REMARK    6  A    between atoms: C_19  and  C_22
REMARK                            x       y       z     vdW  Elec       q    Type
REMARK                         _______ _______ _______ _____ _____    ______ ____
ROOT
ATOM      1  C   UNL     1       0.987   4.136  20.448  0.00  0.00    +0.000 C 
ATOM      2  C   UNL     1       1.056   3.651  19.000  0.00  0.00    +0.000 C 
ATOM      3  C   UNL     1       0.888   2.117  18.933  0.00  0.00    +0.000 C 
ATOM      4  N   UNL     1       2.129   1.377  19.041  0.00  0.00    +0.000 N 
ATOM      5  C   UNL     1       3.235   1.759  18.318  0.00  0.00    +0.000 C 
ATOM      6  O   UNL     1       4.104   0.943  18.033  0.00  0.00    +0.000 OA
ATOM      7  C   UNL     1       3.274   3.161  17.985  0.00  0.00    +0.000 A 
ATOM      8  C   UNL     1       4.271   3.870  17.345  0.00  0.00    +0.000 A 
ATOM      9  C   UNL     1       3.933   5.249  17.393  0.00  0.00    +0.000 A 
ATOM     10  C   UNL     1       4.607   6.427  17.011  0.00  0.00    +0.000 A 
ATOM     11  C   UNL     1       4.024   7.680  17.259  0.00  0.00    +0.000 A 
ATOM     12  C   UNL     1       2.758   7.764  17.844  0.00  0.00    +0.000 A 
ATOM     13  C   UNL     1       2.061   6.591  18.198  0.00  0.00    +0.000 A 
ATOM     14  C   UNL     1       2.675   5.346  17.993  0.00  0.00    +0.000 A 
ATOM     15  N   UNL     1       2.288   4.063  18.324  0.00  0.00    +0.000 N 
ATOM     16  H   UNL     1       2.103   0.380  19.213  0.00  0.00    +0.000 HD
ENDROOT
BRANCH  12  17
ATOM     17  C   UNL     1       2.114   9.065  18.211  0.00  0.00    +0.000 C 
ATOM     18  O   UNL     1       2.364  10.026  17.494  0.00  0.00    +0.000 OA
ATOM     19  N   UNL     1       1.313   9.069  19.336  0.00  0.00    +0.000 N 
ATOM     20  C   UNL     1       0.646  10.199  19.787  0.00  0.00    +0.000 A 
ATOM     21  C   UNL     1      -0.138  10.253  20.967  0.00  0.00    +0.000 A 
ATOM     22  C   UNL     1      -0.589  11.554  21.039  0.00  0.00    +0.000 A 
ATOM     23  O   UNL     1      -0.115  12.231  19.957  0.00  0.00    +0.000 OA
ATOM     24  N   UNL     1       0.647  11.390  19.184  0.00  0.00    +0.000 NA
ATOM     25  H   UNL     1       1.233   8.243  19.906  0.00  0.00    +0.000 HD
BRANCH  22  26
ATOM     26  C   UNL     1      -1.444  12.347  21.991  0.00  0.00    +0.000 C 
ATOM     27  C   UNL     1      -2.741  12.802  21.302  0.00  0.00    +0.000 C 
ATOM     28  C   UNL     1      -1.810  11.484  23.215  0.00  0.00    +0.000 C 
ATOM     29  C   UNL     1      -0.677  13.593  22.471  0.00  0.00    +0.000 C 
ENDBRANCH  22  26
ENDBRANCH  12  17
TORSDOF 2
ENDMDL
MODEL 2
REMARK VINA RESULT:      -8.1      2.327      2.707
REMARK  Name = 
REMARK  6 active torsions:
REMARK  status: ('A' for Active; 'I' for Inactive)
REMARK    1  A    between atoms: C_1  and  C_2
REMARK    2  A    between atoms: C_12  and  C_13
REMARK    3  A    between atoms: C_18  and  C_19
REMARK    4  A    between atoms: C_19  and  C_20
REMARK    5  A    between atoms: C_19  and  C_21
REMARK    6  A    between atoms: C_19  and  C_22
REMARK                            x       y       z     vdW  Elec       q    Type
REMARK                         _______ _______ _______ _____ _____    ______ ____
ROOT
ATOM      1  C   UNL     1       1.018   4.151  20.496  0.00  0.00    +0.000 C 
ATOM      2  C   UNL     1       1.038   3.753  19.020  0.00  0.00    +0.000 C 
ATOM      3  C   UNL     1       0.930   2.219  18.871  0.00  0.00    +0.000 C 
ATOM      4  N   UNL     1       2.205   1.530  18.878  0.00  0.00    +0.000 N 
ATOM      5  C   UNL     1       3.257   2.002  18.129  0.00  0.00    +0.000 C 
ATOM      6  O   UNL     1       4.145   1.243  17.755  0.00  0.00    +0.000 OA
ATOM      7  C   UNL     1       3.222   3.421  17.878  0.00  0.00    +0.000 A 
ATOM      8  C   UNL     1       4.156   4.209  17.236  0.00  0.00    +0.000 A 
ATOM      9  C   UNL     1       3.764   5.566  17.381  0.00  0.00    +0.000 A 
ATOM     10  C   UNL     1       4.369   6.794  17.039  0.00  0.00    +0.000 A 
ATOM     11  C   UNL     1       3.747   8.002  17.388  0.00  0.00    +0.000 A 
ATOM     12  C   UNL     1       2.509   7.996  18.034  0.00  0.00    +0.000 A 
ATOM     13  C   UNL     1       1.879   6.776  18.350  0.00  0.00    +0.000 A 
ATOM     14  C   UNL     1       2.534   5.573  18.042  0.00  0.00    +0.000 A 
ATOM     15  N   UNL     1       2.216   4.257  18.315  0.00  0.00    +0.000 N 
ATOM     16  H   UNL     1       2.229   0.524  18.991  0.00  0.00    +0.000 HD
ENDROOT
BRANCH  12  17
ATOM     17  C   UNL     1       1.829   9.245  18.507  0.00  0.00    +0.000 C 
ATOM     18  O   UNL     1       0.771   9.102  19.108  0.00  0.00    +0.000 OA
ATOM     19  N   UNL     1       2.445  10.443  18.205  0.00  0.00    +0.000 N 
ATOM     20  C   UNL     1       1.934  11.675  18.588  0.00  0.00    +0.000 A 
ATOM     21  C   UNL     1       2.509  12.925  18.248  0.00  0.00    +0.000 A 
ATOM     22  C   UNL     1       1.676  13.869  18.811  0.00  0.00    +0.000 A 
ATOM     23  O   UNL     1       0.672  13.218  19.462  0.00  0.00    +0.000 OA
ATOM     24  N   UNL     1       0.836  11.862  19.324  0.00  0.00    +0.000 NA
ATOM     25  H   UNL     1       3.274  10.458  17.636  0.00  0.00    +0.000 HD
BRANCH  22  26
ATOM     26  C   UNL     1       1.632  15.372  18.866  0.00  0.00    +0.000 C 
ATOM     27  C   UNL     1       2.607  15.979  17.843  0.00  0.00    +0.000 C 
ATOM     28  C   UNL     1       0.209  15.871  18.549  0.00  0.00    +0.000 C 
ATOM     29  C   UNL     1       2.028  15.857  20.273  0.00  0.00    +0.000 C 
ENDBRANCH  22  26
ENDBRANCH  12  17
TORSDOF 2
ENDMDL
MODEL 3
REMARK VINA RESULT:      -8.0      1.871      2.384
REMARK  Name = 
REMARK  6 active torsions:
REMARK  status: ('A' for Active; 'I' for Inactive)
REMARK    1  A    between atoms: C_1  and  C_2
REMARK    2  A    between atoms: C_12  and  C_13
REMARK    3  A    between atoms: C_18  and  C_19
REMARK    4  A    between atoms: C_19  and  C_20
REMARK    5  A    between atoms: C_19  and  C_21
REMARK    6  A    between atoms: C_19  and  C_22
REMARK                            x       y       z     vdW  Elec       q    Type
REMARK                         _______ _______ _______ _____ _____    ______ ____
ROOT
ATOM      1  C   UNL     1       2.186   3.462  21.610  0.00  0.00    +0.000 C 
ATOM      2  C   UNL     1       1.546   3.365  20.225  0.00  0.00    +0.000 C 
ATOM      3  C   UNL     1       1.634   1.920  19.688  0.00  0.00    +0.000 C 
ATOM      4  N   UNL     1       2.843   1.636  18.941  0.00  0.00    +0.000 N 
ATOM      5  C   UNL     1       3.300   2.518  17.991  0.00  0.00    +0.000 C 
ATOM      6  O   UNL     1       4.004   2.127  17.065  0.00  0.00    +0.000 OA
ATOM      7  C   UNL     1       2.914   3.889  18.215  0.00  0.00    +0.000 A 
ATOM      8  C   UNL     1       3.270   5.015  17.501  0.00  0.00    +0.000 A 
ATOM      9  C   UNL     1       2.781   6.152  18.196  0.00  0.00    +0.000 A 
ATOM     10  C   UNL     1       2.930   7.543  18.011  0.00  0.00    +0.000 A 
ATOM     11  C   UNL     1       2.368   8.437  18.935  0.00  0.00    +0.000 A 
ATOM     12  C   UNL     1       1.625   7.958  20.016  0.00  0.00    +0.000 A 
ATOM     13  C   UNL     1       1.441   6.572  20.192  0.00  0.00    +0.000 A 
ATOM     14  C   UNL     1       2.050   5.685  19.291  0.00  0.00    +0.000 A 
ATOM     15  N   UNL     1       2.128   4.306  19.268  0.00  0.00    +0.000 N 
ATOM     16  H   UNL     1       3.085   0.676  18.728  0.00  0.00    +0.000 HD
ENDROOT
BRANCH  12  17
ATOM     17  C   UNL     1       1.068   8.850  21.083  0.00  0.00    +0.000 C 
ATOM     18  O   UNL     1       1.461   8.654  22.227  0.00  0.00    +0.000 OA
ATOM     19  N   UNL     1       0.146   9.798  20.685  0.00  0.00    +0.000 N 
ATOM     20  C   UNL     1      -0.444  10.697  21.563  0.00  0.00    +0.000 A 
ATOM     21  C   UNL     1      -1.433  11.645  21.199  0.00  0.00    +0.000 A 
ATOM     22  C   UNL     1      -1.746  12.304  22.368  0.00  0.00    +0.000 A 
ATOM     23  O   UNL     1      -0.975  11.790  23.367  0.00  0.00    +0.000 OA
ATOM     24  N   UNL     1      -0.171  10.798  22.865  0.00  0.00    +0.000 NA
ATOM     25  H   UNL     1      -0.172   9.827  19.731  0.00  0.00    +0.000 HD
BRANCH  22  26
ATOM     26  C   UNL     1      -2.692  13.406  22.764  0.00  0.00    +0.000 C 
ATOM     27  C   UNL     1      -1.967  14.459  23.619  0.00  0.00    +0.000 C 
ATOM     28  C   UNL     1      -3.257  14.094  21.506  0.00  0.00    +0.000 C 
ATOM     29  C   UNL     1      -3.860  12.825  23.583  0.00  0.00    +0.000 C 
ENDBRANCH  22  26
ENDBRANCH  12  17
TORSDOF 2
ENDMDL
MODEL 4
REMARK VINA RESULT:      -8.0      2.847      9.229
REMARK  Name = 
REMARK  6 active torsions:
REMARK  status: ('A' for Active; 'I' for Inactive)
REMARK    1  A    between atoms: C_1  and  C_2
REMARK    2  A    between atoms: C_12  and  C_13
REMARK    3  A    between atoms: C_18  and  C_19
REMARK    4  A    between atoms: C_19  and  C_20
REMARK    5  A    between atoms: C_19  and  C_21
REMARK    6  A    between atoms: C_19  and  C_22
REMARK                            x       y       z     vdW  Elec       q    Type
REMARK                         _______ _______ _______ _____ _____    ______ ____
ROOT
ATOM      1  C   UNL     1      -3.235  11.190  16.343  0.00  0.00    +0.000 C 
ATOM      2  C   UNL     1      -3.799  10.799  17.709  0.00  0.00    +0.000 C 
ATOM      3  C   UNL     1      -5.297  11.161  17.801  0.00  0.00    +0.000 C 
ATOM      4  N   UNL     1      -5.556  12.501  18.289  0.00  0.00    +0.000 N 
ATOM      5  C   UNL     1      -4.888  12.984  19.389  0.00  0.00    +0.000 C 
ATOM      6  O   UNL     1      -5.381  13.872  20.076  0.00  0.00    +0.000 OA
ATOM      7  C   UNL     1      -3.594  12.389  19.610  0.00  0.00    +0.000 A 
ATOM      8  C   UNL     1      -2.649  12.703  20.567  0.00  0.00    +0.000 A 
ATOM      9  C   UNL     1      -1.471  11.964  20.284  0.00  0.00    +0.000 A 
ATOM     10  C   UNL     1      -0.173  11.956  20.837  0.00  0.00    +0.000 A 
ATOM     11  C   UNL     1       0.822  11.140  20.277  0.00  0.00    +0.000 A 
ATOM     12  C   UNL     1       0.523  10.303  19.200  0.00  0.00    +0.000 A 
ATOM     13  C   UNL     1      -0.779  10.278  18.661  0.00  0.00    +0.000 A 
ATOM     14  C   UNL     1      -1.754  11.135  19.196  0.00  0.00    +0.000 A 
ATOM     15  N   UNL     1      -3.056  11.397  18.819  0.00  0.00    +0.000 N 
ATOM     16  H   UNL     1      -6.482  12.898  18.191  0.00  0.00    +0.000 HD
ENDROOT
BRANCH  12  17
ATOM     17  C   UNL     1       1.554   9.469  18.503  0.00  0.00    +0.000 C 
ATOM     18  O   UNL     1       2.023   9.925  17.466  0.00  0.00    +0.000 OA
ATOM     19  N   UNL     1       1.868   8.254  19.079  0.00  0.00    +0.000 N 
ATOM     20  C   UNL     1       2.810   7.385  18.548  0.00  0.00    +0.000 A 
ATOM     21  C   UNL     1       3.116   6.108  19.082  0.00  0.00    +0.000 A 
ATOM     22  C   UNL     1       4.079   5.589  18.242  0.00  0.00    +0.000 A 
ATOM     23  O   UNL     1       4.343   6.511  17.275  0.00  0.00    +0.000 OA
ATOM     24  N   UNL     1       3.558   7.621  17.468  0.00  0.00    +0.000 NA
ATOM     25  H   UNL     1       1.367   7.934  19.891  0.00  0.00    +0.000 HD
BRANCH  22  26
ATOM     26  C   UNL     1       4.862   4.307  18.163  0.00  0.00    +0.000 C 
ATOM     27  C   UNL     1       4.512   3.385  19.343  0.00  0.00    +0.000 C 
ATOM     28  C   UNL     1       4.536   3.571  16.848  0.00  0.00    +0.000 C 
ATOM     29  C   UNL     1       6.371   4.610  18.203  0.00  0.00    +0.000 C 
ENDBRANCH  22  26
ENDBRANCH  12  17
TORSDOF 2
ENDMDL
MODEL 5
REMARK VINA RESULT:      -7.9      2.842      9.257
REMARK  Name = 
REMARK  6 active torsions:
REMARK  status: ('A' for Active; 'I' for Inactive)
REMARK    1  A    between atoms: C_1  and  C_2
REMARK    2  A    between atoms: C_12  and  C_13
REMARK    3  A    between atoms: C_18  and  C_19
REMARK    4  A    between atoms: C_19  and  C_20
REMARK    5  A    between atoms: C_19  and  C_21
REMARK    6  A    between atoms: C_19  and  C_22
REMARK                            x       y       z     vdW  Elec       q    Type
REMARK                         _______ _______ _______ _____ _____    ______ ____
ROOT
ATOM      1  C   UNL     1      -3.359  11.131  16.316  0.00  0.00    +0.000 C 
ATOM      2  C   UNL     1      -3.881  10.775  17.708  0.00  0.00    +0.000 C 
ATOM      3  C   UNL     1      -5.388  11.095  17.820  0.00  0.00    +0.000 C 
ATOM      4  N   UNL     1      -5.678  12.444  18.263  0.00  0.00    +0.000 N 
ATOM      5  C   UNL     1      -5.002  12.988  19.330  0.00  0.00    +0.000 C 
ATOM      6  O   UNL     1      -5.508  13.886  19.995  0.00  0.00    +0.000 OA
ATOM      7  C   UNL     1      -3.686  12.442  19.544  0.00  0.00    +0.000 A 
ATOM      8  C   UNL     1      -2.732  12.820  20.467  0.00  0.00    +0.000 A 
ATOM      9  C   UNL     1      -1.537  12.107  20.186  0.00  0.00    +0.000 A 
ATOM     10  C   UNL     1      -0.228  12.159  20.710  0.00  0.00    +0.000 A 
ATOM     11  C   UNL     1       0.780  11.353  20.159  0.00  0.00    +0.000 A 
ATOM     12  C   UNL     1       0.484  10.467  19.121  0.00  0.00    +0.000 A 
ATOM     13  C   UNL     1      -0.827  10.382  18.612  0.00  0.00    +0.000 A 
ATOM     14  C   UNL     1      -1.817  11.229  19.136  0.00  0.00    +0.000 A 
ATOM     15  N   UNL     1      -3.134  11.437  18.778  0.00  0.00    +0.000 N 
ATOM     16  H   UNL     1      -6.618  12.809  18.171  0.00  0.00    +0.000 HD
ENDROOT
BRANCH  12  17
ATOM     17  C   UNL     1       1.526   9.639  18.432  0.00  0.00    +0.000 C 
ATOM     18  O   UNL     1       2.193  10.198  17.569  0.00  0.00    +0.000 OA
ATOM     19  N   UNL     1       1.628   8.317  18.817  0.00  0.00    +0.000 N 
ATOM     20  C   UNL     1       2.553   7.438  18.273  0.00  0.00    +0.000 A 
ATOM     21  C   UNL     1       2.648   6.063  18.604  0.00  0.00    +0.000 A 
ATOM     22  C   UNL     1       3.675   5.576  17.825  0.00  0.00    +0.000 A 
ATOM     23  O   UNL     1       4.174   6.605  17.084  0.00  0.00    +0.000 OA
ATOM     24  N   UNL     1       3.479   7.755  17.365  0.00  0.00    +0.000 NA
ATOM     25  H   UNL     1       0.978   7.931  19.482  0.00  0.00    +0.000 HD
BRANCH  22  26
ATOM     26  C   UNL     1       4.333   4.238  17.623  0.00  0.00    +0.000 C 
ATOM     27  C   UNL     1       5.223   4.257  16.368  0.00  0.00    +0.000 C 
ATOM     28  C   UNL     1       5.208   3.891  18.844  0.00  0.00    +0.000 C 
ATOM     29  C   UNL     1       3.261   3.146  17.452  0.00  0.00    +0.000 C 
ENDBRANCH  22  26
ENDBRANCH  12  17
TORSDOF 2
ENDMDL
MODEL 6
REMARK VINA RESULT:      -7.9      5.187      6.775
REMARK  Name = 
REMARK  6 active torsions:
REMARK  status: ('A' for Active; 'I' for Inactive)
REMARK    1  A    between atoms: C_1  and  C_2
REMARK    2  A    between atoms: C_12  and  C_13
REMARK    3  A    between atoms: C_18  and  C_19
REMARK    4  A    between atoms: C_19  and  C_20
REMARK    5  A    between atoms: C_19  and  C_21
REMARK    6  A    between atoms: C_19  and  C_22
REMARK                            x       y       z     vdW  Elec       q    Type
REMARK                         _______ _______ _______ _____ _____    ______ ____
ROOT
ATOM      1  C   UNL     1       2.978   4.532  21.338  0.00  0.00    +0.000 C 
ATOM      2  C   UNL     1       2.103   4.879  20.133  0.00  0.00    +0.000 C 
ATOM      3  C   UNL     1       0.653   4.398  20.360  0.00  0.00    +0.000 C 
ATOM      4  N   UNL     1       0.399   3.042  19.915  0.00  0.00    +0.000 N 
ATOM      5  C   UNL     1       0.848   2.615  18.688  0.00  0.00    +0.000 C 
ATOM      6  O   UNL     1       0.288   1.692  18.107  0.00  0.00    +0.000 OA
ATOM      7  C   UNL     1       2.014   3.311  18.204  0.00  0.00    +0.000 A 
ATOM      8  C   UNL     1       2.750   3.074  17.060  0.00  0.00    +0.000 A 
ATOM      9  C   UNL     1       3.901   3.905  17.095  0.00  0.00    +0.000 A 
ATOM     10  C   UNL     1       5.043   4.016  16.275  0.00  0.00    +0.000 A 
ATOM     11  C   UNL     1       6.070   4.908  16.622  0.00  0.00    +0.000 A 
ATOM     12  C   UNL     1       5.947   5.718  17.753  0.00  0.00    +0.000 A 
ATOM     13  C   UNL     1       4.795   5.639  18.561  0.00  0.00    +0.000 A 
ATOM     14  C   UNL     1       3.797   4.708  18.233  0.00  0.00    +0.000 A 
ATOM     15  N   UNL     1       2.632   4.343  18.878  0.00  0.00    +0.000 N 
ATOM     16  H   UNL     1      -0.450   2.573  20.204  0.00  0.00    +0.000 HD
ENDROOT
BRANCH  12  17
ATOM     17  C   UNL     1       7.037   6.630  18.226  0.00  0.00    +0.000 C 
ATOM     18  O   UNL     1       7.842   6.161  19.023  0.00  0.00    +0.000 OA
ATOM     19  N   UNL     1       7.025   7.922  17.739  0.00  0.00    +0.000 N 
ATOM     20  C   UNL     1       7.977   8.870  18.083  0.00  0.00    +0.000 A 
ATOM     21  C   UNL     1       7.964  10.219  17.646  0.00  0.00    +0.000 A 
ATOM     22  C   UNL     1       9.067  10.799  18.236  0.00  0.00    +0.000 A 
ATOM     23  O   UNL     1       9.710   9.846  18.967  0.00  0.00    +0.000 OA
ATOM     24  N   UNL     1       9.034   8.655  18.869  0.00  0.00    +0.000 NA
ATOM     25  H   UNL     1       6.273   8.234  17.148  0.00  0.00    +0.000 HD
BRANCH  22  26
ATOM     26  C   UNL     1       9.687  12.170  18.247  0.00  0.00    +0.000 C 
ATOM     27  C   UNL     1       9.932  12.640  19.691  0.00  0.00    +0.000 C 
ATOM     28  C   UNL     1      11.035  12.145  17.501  0.00  0.00    +0.000 C 
ATOM     29  C   UNL     1       8.751  13.175  17.553  0.00  0.00    +0.000 C 
ENDBRANCH  22  26
ENDBRANCH  12  17
TORSDOF 2
ENDMDL
MODEL 7
REMARK VINA RESULT:      -7.8      2.576      9.560
REMARK  Name = 
REMARK  6 active torsions:
REMARK  status: ('A' for Active; 'I' for Inactive)
REMARK    1  A    between atoms: C_1  and  C_2
REMARK    2  A    between atoms: C_12  and  C_13
REMARK    3  A    between atoms: C_18  and  C_19
REMARK    4  A    between atoms: C_19  and  C_20
REMARK    5  A    between atoms: C_19  and  C_21
REMARK    6  A    between atoms: C_19  and  C_22
REMARK                            x       y       z     vdW  Elec       q    Type
REMARK                         _______ _______ _______ _____ _____    ______ ____
ROOT
ATOM      1  C   UNL     1      -1.205  13.735  19.592  0.00  0.00    +0.000 C 
ATOM      2  C   UNL     1      -2.340  12.898  20.181  0.00  0.00    +0.000 C 
ATOM      3  C   UNL     1      -3.542  13.796  20.549  0.00  0.00    +0.000 C 
ATOM      4  N   UNL     1      -3.493  14.333  21.894  0.00  0.00    +0.000 N 
ATOM      5  C   UNL     1      -3.171  13.523  22.957  0.00  0.00    +0.000 C 
ATOM      6  O   UNL     1      -3.554  13.800  24.089  0.00  0.00    +0.000 OA
ATOM      7  C   UNL     1      -2.343  12.393  22.617  0.00  0.00    +0.000 A 
ATOM      8  C   UNL     1      -1.785  11.447  23.453  0.00  0.00    +0.000 A 
ATOM      9  C   UNL     1      -0.915  10.632  22.681  0.00  0.00    +0.000 A 
ATOM     10  C   UNL     1      -0.011   9.600  23.004  0.00  0.00    +0.000 A 
ATOM     11  C   UNL     1       0.781   9.022  21.998  0.00  0.00    +0.000 A 
ATOM     12  C   UNL     1       0.646   9.436  20.671  0.00  0.00    +0.000 A 
ATOM     13  C   UNL     1      -0.279  10.443  20.332  0.00  0.00    +0.000 A 
ATOM     14  C   UNL     1      -1.029  11.049  21.352  0.00  0.00    +0.000 A 
ATOM     15  N   UNL     1      -1.918  12.106  21.337  0.00  0.00    +0.000 N 
ATOM     16  H   UNL     1      -4.118  15.086  22.154  0.00  0.00    +0.000 HD
ENDROOT
BRANCH  12  17
ATOM     17  C   UNL     1       1.514   8.921  19.564  0.00  0.00    +0.000 C 
ATOM     18  O   UNL     1       1.659   9.653  18.592  0.00  0.00    +0.000 OA
ATOM     19  N   UNL     1       2.055   7.662  19.729  0.00  0.00    +0.000 N 
ATOM     20  C   UNL     1       2.885   7.064  18.791  0.00  0.00    +0.000 A 
ATOM     21  C   UNL     1       3.412   5.753  18.903  0.00  0.00    +0.000 A 
ATOM     22  C   UNL     1       4.154   5.566  17.756  0.00  0.00    +0.000 A 
ATOM     23  O   UNL     1       4.086   6.705  17.012  0.00  0.00    +0.000 OA
ATOM     24  N   UNL     1       3.302   7.630  17.656  0.00  0.00    +0.000 NA
ATOM     25  H   UNL     1       1.812   7.106  20.532  0.00  0.00    +0.000 HD
BRANCH  22  26
ATOM     26  C   UNL     1       4.978   4.448  17.176  0.00  0.00    +0.000 C 
ATOM     27  C   UNL     1       4.259   3.100  17.348  0.00  0.00    +0.000 C 
ATOM     28  C   UNL     1       5.216   4.693  15.673  0.00  0.00    +0.000 C 
ATOM     29  C   UNL     1       6.340   4.375  17.891  0.00  0.00    +0.000 C 
ENDBRANCH  22  26
ENDBRANCH  12  17
TORSDOF 2
ENDMDL
MODEL 8
REMARK VINA RESULT:      -7.8      2.587      9.468
REMARK  Name = 
REMARK  6 active torsions:
REMARK  status: ('A' for Active; 'I' for Inactive)
REMARK    1  A    between atoms: C_1  and  C_2
REMARK    2  A    between atoms: C_12  and  C_13
REMARK    3  A    between atoms: C_18  and  C_19
REMARK    4  A    between atoms: C_19  and  C_20
REMARK    5  A    between atoms: C_19  and  C_21
REMARK    6  A    between atoms: C_19  and  C_22
REMARK                            x       y       z     vdW  Elec       q    Type
REMARK                         _______ _______ _______ _____ _____    ______ ____
ROOT
ATOM      1  C   UNL     1       1.903  12.809  18.816  0.00  0.00    +0.000 C 
ATOM      2  C   UNL     1       0.381  12.818  18.962  0.00  0.00    +0.000 C 
ATOM      3  C   UNL     1      -0.184  14.223  18.661  0.00  0.00    +0.000 C 
ATOM      4  N   UNL     1      -0.258  15.095  19.816  0.00  0.00    +0.000 N 
ATOM      5  C   UNL     1      -0.763  14.633  21.008  0.00  0.00    +0.000 C 
ATOM      6  O   UNL     1      -1.252  15.410  21.820  0.00  0.00    +0.000 OA
ATOM      7  C   UNL     1      -0.624  13.211  21.203  0.00  0.00    +0.000 A 
ATOM      8  C   UNL     1      -0.951  12.454  22.311  0.00  0.00    +0.000 A 
ATOM      9  C   UNL     1      -0.479  11.132  22.098  0.00  0.00    +0.000 A 
ATOM     10  C   UNL     1      -0.426   9.978  22.906  0.00  0.00    +0.000 A 
ATOM     11  C   UNL     1       0.182   8.810  22.421  0.00  0.00    +0.000 A 
ATOM     12  C   UNL     1       0.699   8.771  21.124  0.00  0.00    +0.000 A 
ATOM     13  C   UNL     1       0.621   9.909  20.295  0.00  0.00    +0.000 A 
ATOM     14  C   UNL     1       0.056  11.087  20.808  0.00  0.00    +0.000 A 
ATOM     15  N   UNL     1      -0.063  12.356  20.278  0.00  0.00    +0.000 N 
ATOM     16  H   UNL     1      -0.418  16.086  19.684  0.00  0.00    +0.000 HD
ENDROOT
BRANCH  12  17
ATOM     17  C   UNL     1       1.432   7.588  20.572  0.00  0.00    +0.000 C 
ATOM     18  O   UNL     1       1.267   6.519  21.149  0.00  0.00    +0.000 OA
ATOM     19  N   UNL     1       2.245   7.811  19.479  0.00  0.00    +0.000 N 
ATOM     20  C   UNL     1       2.974   6.807  18.859  0.00  0.00    +0.000 A 
ATOM     21  C   UNL     1       3.860   7.011  17.771  0.00  0.00    +0.000 A 
ATOM     22  C   UNL     1       4.377   5.764  17.490  0.00  0.00    +0.000 A 
ATOM     23  O   UNL     1       3.819   4.867  18.351  0.00  0.00    +0.000 OA
ATOM     24  N   UNL     1       2.951   5.515  19.194  0.00  0.00    +0.000 NA
ATOM     25  H   UNL     1       2.376   8.745  19.126  0.00  0.00    +0.000 HD
BRANCH  22  26
ATOM     26  C   UNL     1       5.361   5.203  16.500  0.00  0.00    +0.000 C 
ATOM     27  C   UNL     1       5.034   3.734  16.185  0.00  0.00    +0.000 C 
ATOM     28  C   UNL     1       5.310   6.013  15.189  0.00  0.00    +0.000 C 
ATOM     29  C   UNL     1       6.787   5.279  17.076  0.00  0.00    +0.000 C 
ENDBRANCH  22  26
ENDBRANCH  12  17
TORSDOF 2
ENDMDL
MODEL 9
REMARK VINA RESULT:      -7.8      2.461      9.219
REMARK  Name = 
REMARK  6 active torsions:
REMARK  status: ('A' for Active; 'I' for Inactive)
REMARK    1  A    between atoms: C_1  and  C_2
REMARK    2  A    between atoms: C_12  and  C_13
REMARK    3  A    between atoms: C_18  and  C_19
REMARK    4  A    between atoms: C_19  and  C_20
REMARK    5  A    between atoms: C_19  and  C_21
REMARK    6  A    between atoms: C_19  and  C_22
REMARK                            x       y       z     vdW  Elec       q    Type
REMARK                         _______ _______ _______ _____ _____    ______ ____
ROOT
ATOM      1  C   UNL     1      -0.721  10.766  23.009  0.00  0.00    +0.000 C 
ATOM      2  C   UNL     1      -0.986  12.128  22.369  0.00  0.00    +0.000 C 
ATOM      3  C   UNL     1      -1.723  13.058  23.358  0.00  0.00    +0.000 C 
ATOM      4  N   UNL     1      -3.168  12.961  23.301  0.00  0.00    +0.000 N 
ATOM      5  C   UNL     1      -3.819  12.954  22.090  0.00  0.00    +0.000 C 
ATOM      6  O   UNL     1      -4.984  13.327  22.008  0.00  0.00    +0.000 OA
ATOM      7  C   UNL     1      -3.033  12.449  20.993  0.00  0.00    +0.000 A 
ATOM      8  C   UNL     1      -3.412  12.238  19.682  0.00  0.00    +0.000 A 
ATOM      9  C   UNL     1      -2.349  11.573  19.016  0.00  0.00    +0.000 A 
ATOM     10  C   UNL     1      -2.207  11.015  17.728  0.00  0.00    +0.000 A 
ATOM     11  C   UNL     1      -1.025  10.344  17.381  0.00  0.00    +0.000 A 
ATOM     12  C   UNL     1       0.031  10.261  18.292  0.00  0.00    +0.000 A 
ATOM     13  C   UNL     1      -0.087  10.844  19.570  0.00  0.00    +0.000 A 
ATOM     14  C   UNL     1      -1.292  11.469  19.924  0.00  0.00    +0.000 A 
ATOM     15  N   UNL     1      -1.725  12.027  21.110  0.00  0.00    +0.000 N 
ATOM     16  H   UNL     1      -3.726  13.371  24.040  0.00  0.00    +0.000 HD
ENDROOT
BRANCH  12  17
ATOM     17  C   UNL     1       1.286   9.490  18.018  0.00  0.00    +0.000 C 
ATOM     18  O   UNL     1       2.258  10.135  17.642  0.00  0.00    +0.000 OA
ATOM     19  N   UNL     1       1.229   8.122  18.194  0.00  0.00    +0.000 N 
ATOM     20  C   UNL     1       2.317   7.286  17.987  0.00  0.00    +0.000 A 
ATOM     21  C   UNL     1       2.279   5.873  18.104  0.00  0.00    +0.000 A 
ATOM     22  C   UNL     1       3.556   5.453  17.797  0.00  0.00    +0.000 A 
ATOM     23  O   UNL     1       4.314   6.553  17.529  0.00  0.00    +0.000 OA
ATOM     24  N   UNL     1       3.545   7.684  17.649  0.00  0.00    +0.000 NA
ATOM     25  H   UNL     1       0.358   7.676  18.430  0.00  0.00    +0.000 HD
BRANCH  22  26
ATOM     26  C   UNL     1       4.260   4.127  17.701  0.00  0.00    +0.000 C 
ATOM     27  C   UNL     1       3.245   2.972  17.733  0.00  0.00    +0.000 C 
ATOM     28  C   UNL     1       5.058   4.047  16.384  0.00  0.00    +0.000 C 
ATOM     29  C   UNL     1       5.232   3.962  18.883  0.00  0.00    +0.000 C 
ENDBRANCH  22  26
ENDBRANCH  12  17
TORSDOF 2
ENDMDL
