MODEL 1
REMARK VINA RESULT:      -8.2      0.000      0.000
REMARK  Name = 
REMARK  5 active torsions:
REMARK  status: ('A' for Active; 'I' for Inactive)
REMARK    1  A    between atoms: C_1  and  O_2
REMARK    2  A    between atoms: O_2  and  C_3
REMARK    3  A    between atoms: C_8  and  C_9
REMARK    4  A    between atoms: N_12  and  C_13
REMARK    5  A    between atoms: C_13  and  C_14
REMARK                            x       y       z     vdW  Elec       q    Type
REMARK                         _______ _______ _______ _____ _____    ______ ____
ROOT
ATOM      1  C   UNL     1       3.743   3.722  18.249  0.00  0.00    +0.000 C 
ATOM      2  C   UNL     1       2.428   4.233  17.625  0.00  0.00    +0.000 C 
ATOM      3  C   UNL     1       2.260   5.749  17.789  0.00  0.00    +0.000 C 
ATOM      4  N   UNL     1       2.260   6.217  19.179  0.00  0.00    +0.000 NA
ATOM      5  C   UNL     1       3.227   5.499  20.054  0.00  0.00    +0.000 C 
ATOM      6  C   UNL     1       3.669   4.064  19.734  0.00  0.00    +0.000 C 
ENDROOT
BRANCH   1  12
ATOM      7  C   UNL     1       6.231   4.516  17.801  0.00  0.00    +0.000 A 
ATOM      8  C   UNL     1       7.219   4.825  16.838  0.00  0.00    +0.000 A 
ATOM      9  C   UNL     1       7.022   4.569  15.483  0.00  0.00    +0.000 A 
ATOM     10  C   UNL     1       5.832   4.004  15.069  0.00  0.00    +0.000 A 
ATOM     11  C   UNL     1       4.826   3.752  16.006  0.00  0.00    +0.000 A 
ATOM     12  C   UNL     1       4.974   4.037  17.388  0.00  0.00    +0.000 A 
BRANCH   7  14
ATOM     13  C   UNL     1       7.520   5.628  19.429  0.00  0.00    +0.000 C 
ATOM     14  O   UNL     1       6.476   4.703  19.136  0.00  0.00    +0.000 OA
ENDBRANCH   7  14
ENDBRANCH   1  12
BRANCH   4  15
ATOM     15  C   UNL     1       2.571   7.672  19.287  0.00  0.00    +0.000 C 
BRANCH  15  16
ATOM     16  C   UNL     1       1.623   8.741  19.915  0.00  0.00    +0.000 C 
ATOM     17  C   UNL     1       1.157   8.412  21.344  0.00  0.00    +0.000 C 
ATOM     18  C   UNL     1      -0.321   8.697  21.642  0.00  0.00    +0.000 C 
ATOM     19  C   UNL     1      -0.589  10.176  21.773  0.00  0.00    +0.000 A 
ATOM     20  C   UNL     1      -1.154  10.629  22.986  0.00  0.00    +0.000 A 
ATOM     21  C   UNL     1      -1.265  11.988  23.273  0.00  0.00    +0.000 A 
ATOM     22  C   UNL     1      -0.819  12.923  22.349  0.00  0.00    +0.000 A 
ATOM     23  C   UNL     1      -0.332  12.494  21.111  0.00  0.00    +0.000 A 
ATOM     24  C   UNL     1      -0.241  11.122  20.791  0.00  0.00    +0.000 A 
ATOM     25  C   UNL     1       0.237  10.767  19.407  0.00  0.00    +0.000 C 
ATOM     26  O   UNL     1       0.398  11.671  18.584  0.00  0.00    +0.000 OA
ATOM     27  C   UNL     1       0.525   9.315  19.015  0.00  0.00    +0.000 C 
ENDBRANCH  15  16
ENDBRANCH   4  15
TORSDOF 4
ENDMDL
MODEL 2
REMARK VINA RESULT:      -8.1      2.367      8.380
REMARK  Name = 
REMARK  5 active torsions:
REMARK  status: ('A' for Active; 'I' for Inactive)
REMARK    1  A    between atoms: C_1  and  O_2
REMARK    2  A    between atoms: O_2  and  C_3
REMARK    3  A    between atoms: C_8  and  C_9
REMARK    4  A    between atoms: N_12  and  C_13
REMARK    5  A    between atoms: C_13  and  C_14
REMARK                            x       y       z     vdW  Elec       q    Type
REMARK                         _______ _______ _______ _____ _____    ______ ____
ROOT
ATOM      1  C   UNL     1      -0.098  11.448  19.309  0.00  0.00    +0.000 C 
ATOM      2  C   UNL     1      -0.537  10.431  18.236  0.00  0.00    +0.000 C 
ATOM      3  C   UNL     1       0.520   9.343  18.002  0.00  0.00    +0.000 C 
ATOM      4  N   UNL     1       1.829   9.846  17.574  0.00  0.00    +0.000 NA
ATOM      5  C   UNL     1       2.233  11.113  18.242  0.00  0.00    +0.000 C 
ATOM      6  C   UNL     1       1.182  12.092  18.783  0.00  0.00    +0.000 C 
ENDROOT
BRANCH   1  12
ATOM      7  C   UNL     1      -1.152  11.256  21.732  0.00  0.00    +0.000 A 
ATOM      8  C   UNL     1      -1.052  10.692  23.024  0.00  0.00    +0.000 A 
ATOM      9  C   UNL     1      -0.114   9.705  23.319  0.00  0.00    +0.000 A 
ATOM     10  C   UNL     1       0.742   9.270  22.327  0.00  0.00    +0.000 A 
ATOM     11  C   UNL     1       0.691   9.865  21.063  0.00  0.00    +0.000 A 
ATOM     12  C   UNL     1      -0.222  10.901  20.737  0.00  0.00    +0.000 A 
BRANCH   7  14
ATOM     13  C   UNL     1      -2.968  12.518  22.545  0.00  0.00    +0.000 C 
ATOM     14  O   UNL     1      -2.133  12.168  21.444  0.00  0.00    +0.000 OA
ENDBRANCH   7  14
ENDBRANCH   1  12
BRANCH   4  15
ATOM     15  C   UNL     1       2.921   8.858  17.814  0.00  0.00    +0.000 C 
BRANCH  15  16
ATOM     16  C   UNL     1       2.699   7.357  18.182  0.00  0.00    +0.000 C 
ATOM     17  C   UNL     1       1.878   7.135  19.464  0.00  0.00    +0.000 C 
ATOM     18  C   UNL     1       2.387   6.027  20.396  0.00  0.00    +0.000 C 
ATOM     19  C   UNL     1       2.101   4.654  19.838  0.00  0.00    +0.000 A 
ATOM     20  C   UNL     1       1.334   3.776  20.636  0.00  0.00    +0.000 A 
ATOM     21  C   UNL     1       0.863   2.564  20.135  0.00  0.00    +0.000 A 
ATOM     22  C   UNL     1       1.156   2.202  18.827  0.00  0.00    +0.000 A 
ATOM     23  C   UNL     1       1.980   3.021  18.050  0.00  0.00    +0.000 A 
ATOM     24  C   UNL     1       2.491   4.238  18.552  0.00  0.00    +0.000 A 
ATOM     25  C   UNL     1       3.421   5.015  17.657  0.00  0.00    +0.000 C 
ATOM     26  O   UNL     1       3.796   4.502  16.600  0.00  0.00    +0.000 OA
ATOM     27  C   UNL     1       3.901   6.418  18.039  0.00  0.00    +0.000 C 
ENDBRANCH  15  16
ENDBRANCH   4  15
TORSDOF 4
ENDMDL
MODEL 3
REMARK VINA RESULT:      -8.1      2.310      3.484
REMARK  Name = 
REMARK  5 active torsions:
REMARK  status: ('A' for Active; 'I' for Inactive)
REMARK    1  A    between atoms: C_1  and  O_2
REMARK    2  A    between atoms: O_2  and  C_3
REMARK    3  A    between atoms: C_8  and  C_9
REMARK    4  A    between atoms: N_12  and  C_13
REMARK    5  A    between atoms: C_13  and  C_14
REMARK                            x       y       z     vdW  Elec       q    Type
REMARK                         _______ _______ _______ _____ _____    ______ ____
ROOT
ATOM      1  C   UNL     1       4.734   2.659  18.577  0.00  0.00    +0.000 C 
ATOM      2  C   UNL     1       3.510   1.980  17.928  0.00  0.00    +0.000 C 
ATOM      3  C   UNL     1       2.197   2.689  18.285  0.00  0.00    +0.000 C 
ATOM      4  N   UNL     1       1.910   2.756  19.721  0.00  0.00    +0.000 NA
ATOM      5  C   UNL     1       3.114   2.999  20.563  0.00  0.00    +0.000 C 
ATOM      6  C   UNL     1       4.511   2.580  20.084  0.00  0.00    +0.000 C 
ENDROOT
BRANCH   1  12
ATOM      7  C   UNL     1       5.900   5.029  18.373  0.00  0.00    +0.000 A 
ATOM      8  C   UNL     1       6.103   6.184  17.583  0.00  0.00    +0.000 A 
ATOM      9  C   UNL     1       5.660   6.253  16.265  0.00  0.00    +0.000 A 
ATOM     10  C   UNL     1       5.002   5.169  15.717  0.00  0.00    +0.000 A 
ATOM     11  C   UNL     1       4.743   4.047  16.509  0.00  0.00    +0.000 A 
ATOM     12  C   UNL     1       5.142   3.956  17.867  0.00  0.00    +0.000 A 
BRANCH   7  14
ATOM     13  C   UNL     1       7.715   5.513  19.795  0.00  0.00    +0.000 C 
ATOM     14  O   UNL     1       6.413   4.953  19.641  0.00  0.00    +0.000 OA
ENDBRANCH   7  14
ENDBRANCH   1  12
BRANCH   4  15
ATOM     15  C   UNL     1       0.924   3.825  20.053  0.00  0.00    +0.000 C 
BRANCH  15  16
ATOM     16  C   UNL     1       1.155   5.352  19.827  0.00  0.00    +0.000 C 
ATOM     17  C   UNL     1       1.683   5.712  18.427  0.00  0.00    +0.000 C 
ATOM     18  C   UNL     1       2.785   6.778  18.387  0.00  0.00    +0.000 C 
ATOM     19  C   UNL     1       2.237   8.158  18.659  0.00  0.00    +0.000 A 
ATOM     20  C   UNL     1       2.446   9.147  17.672  0.00  0.00    +0.000 A 
ATOM     21  C   UNL     1       1.823  10.391  17.746  0.00  0.00    +0.000 A 
ATOM     22  C   UNL     1       0.982  10.674  18.814  0.00  0.00    +0.000 A 
ATOM     23  C   UNL     1       0.827   9.738  19.841  0.00  0.00    +0.000 A 
ATOM     24  C   UNL     1       1.475   8.484  19.796  0.00  0.00    +0.000 A 
ATOM     25  C   UNL     1       1.293   7.573  20.982  0.00  0.00    +0.000 C 
ATOM     26  O   UNL     1       0.709   8.003  21.979  0.00  0.00    +0.000 OA
ATOM     27  C   UNL     1       1.818   6.134  20.965  0.00  0.00    +0.000 C 
ENDBRANCH  15  16
ENDBRANCH   4  15
TORSDOF 4
ENDMDL
MODEL 4
REMARK VINA RESULT:      -7.7      1.677      2.692
REMARK  Name = 
REMARK  5 active torsions:
REMARK  status: ('A' for Active; 'I' for Inactive)
REMARK    1  A    between atoms: C_1  and  O_2
REMARK    2  A    between atoms: O_2  and  C_3
REMARK    3  A    between atoms: C_8  and  C_9
REMARK    4  A    between atoms: N_12  and  C_13
REMARK    5  A    between atoms: C_13  and  C_14
REMARK                            x       y       z     vdW  Elec       q    Type
REMARK                         _______ _______ _______ _____ _____    ______ ____
ROOT
ATOM      1  C   UNL     1       3.476   4.008  18.270  0.00  0.00    +0.000 C 
ATOM      2  C   UNL     1       2.488   5.019  17.654  0.00  0.00    +0.000 C 
ATOM      3  C   UNL     1       2.311   6.266  18.532  0.00  0.00    +0.000 C 
ATOM      4  N   UNL     1       1.823   5.993  19.887  0.00  0.00    +0.000 NA
ATOM      5  C   UNL     1       2.390   4.758  20.493  0.00  0.00    +0.000 C 
ATOM      6  C   UNL     1       2.881   3.599  19.613  0.00  0.00    +0.000 C 
ENDROOT
BRANCH   1  12
ATOM      7  C   UNL     1       5.748   4.377  16.958  0.00  0.00    +0.000 A 
ATOM      8  C   UNL     1       7.112   4.743  17.032  0.00  0.00    +0.000 A 
ATOM      9  C   UNL     1       7.665   5.262  18.200  0.00  0.00    +0.000 A 
ATOM     10  C   UNL     1       6.864   5.420  19.314  0.00  0.00    +0.000 A 
ATOM     11  C   UNL     1       5.530   5.004  19.267  0.00  0.00    +0.000 A 
ATOM     12  C   UNL     1       4.942   4.433  18.109  0.00  0.00    +0.000 A 
BRANCH   7  14
ATOM     13  C   UNL     1       5.868   4.415  14.604  0.00  0.00    +0.000 C 
ATOM     14  O   UNL     1       5.207   3.943  15.776  0.00  0.00    +0.000 OA
ENDBRANCH   7  14
ENDBRANCH   1  12
BRANCH   4  15
ATOM     15  C   UNL     1       2.111   7.113  20.829  0.00  0.00    +0.000 C 
BRANCH  15  16
ATOM     16  C   UNL     1       1.256   8.413  20.956  0.00  0.00    +0.000 C 
ATOM     17  C   UNL     1       0.981   9.122  19.618  0.00  0.00    +0.000 C 
ATOM     18  C   UNL     1       1.097  10.652  19.641  0.00  0.00    +0.000 C 
ATOM     19  C   UNL     1      -0.073  11.290  20.350  0.00  0.00    +0.000 A 
ATOM     20  C   UNL     1      -0.842  12.225  19.622  0.00  0.00    +0.000 A 
ATOM     21  C   UNL     1      -2.042  12.725  20.123  0.00  0.00    +0.000 A 
ATOM     22  C   UNL     1      -2.495  12.303  21.365  0.00  0.00    +0.000 A 
ATOM     23  C   UNL     1      -1.708  11.440  22.133  0.00  0.00    +0.000 A 
ATOM     24  C   UNL     1      -0.474  10.948  21.654  0.00  0.00    +0.000 A 
ATOM     25  C   UNL     1       0.327  10.076  22.585  0.00  0.00    +0.000 C 
ATOM     26  O   UNL     1      -0.055   9.940  23.750  0.00  0.00    +0.000 OA
ATOM     27  C   UNL     1       1.596   9.363  22.108  0.00  0.00    +0.000 C 
ENDBRANCH  15  16
ENDBRANCH   4  15
TORSDOF 4
ENDMDL
MODEL 5
REMARK VINA RESULT:      -7.5      1.534      2.287
REMARK  Name = 
REMARK  5 active torsions:
REMARK  status: ('A' for Active; 'I' for Inactive)
REMARK    1  A    between atoms: C_1  and  O_2
REMARK    2  A    between atoms: O_2  and  C_3
REMARK    3  A    between atoms: C_8  and  C_9
REMARK    4  A    between atoms: N_12  and  C_13
REMARK    5  A    between atoms: C_13  and  C_14
REMARK                            x       y       z     vdW  Elec       q    Type
REMARK                         _______ _______ _______ _____ _____    ______ ____
ROOT
ATOM      1  C   UNL     1       3.729   3.355  17.753  0.00  0.00    +0.000 C 
ATOM      2  C   UNL     1       2.418   4.038  17.314  0.00  0.00    +0.000 C 
ATOM      3  C   UNL     1       2.269   5.444  17.913  0.00  0.00    +0.000 C 
ATOM      4  N   UNL     1       2.280   5.487  19.378  0.00  0.00    +0.000 NA
ATOM      5  C   UNL     1       3.242   4.536  20.000  0.00  0.00    +0.000 C 
ATOM      6  C   UNL     1       3.665   3.252  19.273  0.00  0.00    +0.000 C 
ENDROOT
BRANCH   1  12
ATOM      7  C   UNL     1       6.153   4.406  17.553  0.00  0.00    +0.000 A 
ATOM      8  C   UNL     1       7.147   4.934  16.698  0.00  0.00    +0.000 A 
ATOM      9  C   UNL     1       7.027   4.869  15.312  0.00  0.00    +0.000 A 
ATOM     10  C   UNL     1       5.908   4.278  14.759  0.00  0.00    +0.000 A 
ATOM     11  C   UNL     1       4.892   3.807  15.597  0.00  0.00    +0.000 A 
ATOM     12  C   UNL     1       4.960   3.893  17.011  0.00  0.00    +0.000 A 
BRANCH   7  14
ATOM     13  C   UNL     1       7.067   5.521  19.417  0.00  0.00    +0.000 C 
ATOM     14  O   UNL     1       6.329   4.411  18.913  0.00  0.00    +0.000 OA
ENDBRANCH   7  14
ENDBRANCH   1  12
BRANCH   4  15
ATOM     15  C   UNL     1       2.609   6.844  19.902  0.00  0.00    +0.000 C 
BRANCH  15  16
ATOM     16  C   UNL     1       1.666   8.085  19.816  0.00  0.00    +0.000 C 
ATOM     17  C   UNL     1       1.796   8.890  18.511  0.00  0.00    +0.000 C 
ATOM     18  C   UNL     1       1.782  10.416  18.669  0.00  0.00    +0.000 C 
ATOM     19  C   UNL     1       0.399  10.933  18.983  0.00  0.00    +0.000 A 
ATOM     20  C   UNL     1      -0.153  11.887  18.100  0.00  0.00    +0.000 A 
ATOM     21  C   UNL     1      -1.486  12.283  18.200  0.00  0.00    +0.000 A 
ATOM     22  C   UNL     1      -2.291  11.736  19.189  0.00  0.00    +0.000 A 
ATOM     23  C   UNL     1      -1.740  10.851  20.121  0.00  0.00    +0.000 A 
ATOM     24  C   UNL     1      -0.384  10.463  20.053  0.00  0.00    +0.000 A 
ATOM     25  C   UNL     1       0.128   9.556  21.141  0.00  0.00    +0.000 C 
ATOM     26  O   UNL     1      -0.607   9.303  22.099  0.00  0.00    +0.000 OA
ATOM     27  C   UNL     1       1.532   8.950  21.073  0.00  0.00    +0.000 C 
ENDBRANCH  15  16
ENDBRANCH   4  15
TORSDOF 4
ENDMDL
MODEL 6
REMARK VINA RESULT:      -7.5      1.584      2.492
REMARK  Name = 
REMARK  5 active torsions:
REMARK  status: ('A' for Active; 'I' for Inactive)
REMARK    1  A    between atoms: C_1  and  O_2
REMARK    2  A    between atoms: O_2  and  C_3
REMARK    3  A    between atoms: C_8  and  C_9
REMARK    4  A    between atoms: N_12  and  C_13
REMARK    5  A    between atoms: C_13  and  C_14
REMARK                            x       y       z     vdW  Elec       q    Type
REMARK                         _______ _______ _______ _____ _____    ______ ____
ROOT
ATOM      1  C   UNL     1       3.683   3.913  18.353  0.00  0.00    +0.000 C 
ATOM      2  C   UNL     1       2.645   4.758  17.587  0.00  0.00    +0.000 C 
ATOM      3  C   UNL     1       2.360   6.096  18.282  0.00  0.00    +0.000 C 
ATOM      4  N   UNL     1       1.854   5.975  19.653  0.00  0.00    +0.000 NA
ATOM      5  C   UNL     1       2.488   4.877  20.432  0.00  0.00    +0.000 C 
ATOM      6  C   UNL     1       3.080   3.648  19.729  0.00  0.00    +0.000 C 
ENDROOT
BRANCH   1  12
ATOM      7  C   UNL     1       5.904   4.403  16.993  0.00  0.00    +0.000 A 
ATOM      8  C   UNL     1       7.247   4.841  17.039  0.00  0.00    +0.000 A 
ATOM      9  C   UNL     1       7.796   5.390  18.196  0.00  0.00    +0.000 A 
ATOM     10  C   UNL     1       7.012   5.504  19.326  0.00  0.00    +0.000 A 
ATOM     11  C   UNL     1       5.701   5.018  19.307  0.00  0.00    +0.000 A 
ATOM     12  C   UNL     1       5.120   4.416  18.162  0.00  0.00    +0.000 A 
BRANCH   7  14
ATOM     13  C   UNL     1       6.229   4.006  14.693  0.00  0.00    +0.000 C 
ATOM     14  O   UNL     1       5.362   3.940  15.822  0.00  0.00    +0.000 OA
ENDBRANCH   7  14
ENDBRANCH   1  12
BRANCH   4  15
ATOM     15  C   UNL     1       2.039   7.230  20.438  0.00  0.00    +0.000 C 
BRANCH  15  16
ATOM     16  C   UNL     1       1.524   8.638  20.002  0.00  0.00    +0.000 C 
ATOM     17  C   UNL     1       0.348   9.168  20.840  0.00  0.00    +0.000 C 
ATOM     18  C   UNL     1      -0.772   9.858  20.050  0.00  0.00    +0.000 C 
ATOM     19  C   UNL     1      -0.353  11.225  19.566  0.00  0.00    +0.000 A 
ATOM     20  C   UNL     1      -1.141  12.327  19.968  0.00  0.00    +0.000 A 
ATOM     21  C   UNL     1      -0.733  13.637  19.728  0.00  0.00    +0.000 A 
ATOM     22  C   UNL     1       0.469  13.873  19.076  0.00  0.00    +0.000 A 
ATOM     23  C   UNL     1       1.222  12.795  18.600  0.00  0.00    +0.000 A 
ATOM     24  C   UNL     1       0.808  11.461  18.807  0.00  0.00    +0.000 A 
ATOM     25  C   UNL     1       1.657  10.375  18.199  0.00  0.00    +0.000 C 
ATOM     26  O   UNL     1       2.583  10.693  17.450  0.00  0.00    +0.000 OA
ATOM     27  C   UNL     1       1.388   8.897  18.499  0.00  0.00    +0.000 C 
ENDBRANCH  15  16
ENDBRANCH   4  15
TORSDOF 4
ENDMDL
MODEL 7
REMARK VINA RESULT:      -7.5      5.340      8.079
REMARK  Name = 
REMARK  5 active torsions:
REMARK  status: ('A' for Active; 'I' for Inactive)
REMARK    1  A    between atoms: C_1  and  O_2
REMARK    2  A    between atoms: O_2  and  C_3
REMARK    3  A    between atoms: C_8  and  C_9
REMARK    4  A    between atoms: N_12  and  C_13
REMARK    5  A    between atoms: C_13  and  C_14
REMARK                            x       y       z     vdW  Elec       q    Type
REMARK                         _______ _______ _______ _____ _____    ______ ____
ROOT
ATOM      1  C   UNL     1       6.675   5.121  17.751  0.00  0.00    +0.000 C 
ATOM      2  C   UNL     1       7.726   5.515  18.809  0.00  0.00    +0.000 C 
ATOM      3  C   UNL     1       7.833   7.036  18.982  0.00  0.00    +0.000 C 
ATOM      4  N   UNL     1       8.191   7.765  17.762  0.00  0.00    +0.000 NA
ATOM      5  C   UNL     1       7.558   7.222  16.530  0.00  0.00    +0.000 C 
ATOM      6  C   UNL     1       7.140   5.747  16.440  0.00  0.00    +0.000 C 
ENDROOT
BRANCH   1  12
ATOM      7  C   UNL     1       4.551   4.416  19.168  0.00  0.00    +0.000 A 
ATOM      8  C   UNL     1       3.187   4.656  19.456  0.00  0.00    +0.000 A 
ATOM      9  C   UNL     1       2.519   5.767  18.947  0.00  0.00    +0.000 A 
ATOM     10  C   UNL     1       3.202   6.653  18.138  0.00  0.00    +0.000 A 
ATOM     11  C   UNL     1       4.533   6.391  17.799  0.00  0.00    +0.000 A 
ATOM     12  C   UNL     1       5.235   5.250  18.264  0.00  0.00    +0.000 A 
BRANCH   7  14
ATOM     13  C   UNL     1       4.398   2.217  20.001  0.00  0.00    +0.000 C 
ATOM     14  O   UNL     1       5.209   3.360  19.743  0.00  0.00    +0.000 OA
ENDBRANCH   7  14
ENDBRANCH   1  12
BRANCH   4  15
ATOM     15  C   UNL     1       7.828   9.210  17.838  0.00  0.00    +0.000 C 
BRANCH  15  16
ATOM     16  C   UNL     1       8.684  10.308  18.544  0.00  0.00    +0.000 C 
ATOM     17  C   UNL     1       9.664  11.041  17.611  0.00  0.00    +0.000 C 
ATOM     18  C   UNL     1      11.061  11.305  18.191  0.00  0.00    +0.000 C 
ATOM     19  C   UNL     1      11.039  12.407  19.222  0.00  0.00    +0.000 A 
ATOM     20  C   UNL     1      11.871  13.525  18.995  0.00  0.00    +0.000 A 
ATOM     21  C   UNL     1      11.784  14.668  19.787  0.00  0.00    +0.000 A 
ATOM     22  C   UNL     1      10.865  14.714  20.827  0.00  0.00    +0.000 A 
ATOM     23  C   UNL     1      10.090  13.587  21.116  0.00  0.00    +0.000 A 
ATOM     24  C   UNL     1      10.188  12.409  20.343  0.00  0.00    +0.000 A 
ATOM     25  C   UNL     1       9.356  11.230  20.776  0.00  0.00    +0.000 C 
ATOM     26  O   UNL     1       8.739  11.297  21.842  0.00  0.00    +0.000 OA
ATOM     27  C   UNL     1       9.266   9.965  19.918  0.00  0.00    +0.000 C 
ENDBRANCH  15  16
ENDBRANCH   4  15
TORSDOF 4
ENDMDL
MODEL 8
REMARK VINA RESULT:      -7.5      1.079      1.443
REMARK  Name = 
REMARK  5 active torsions:
REMARK  status: ('A' for Active; 'I' for Inactive)
REMARK    1  A    between atoms: C_1  and  O_2
REMARK    2  A    between atoms: O_2  and  C_3
REMARK    3  A    between atoms: C_8  and  C_9
REMARK    4  A    between atoms: N_12  and  C_13
REMARK    5  A    between atoms: C_13  and  C_14
REMARK                            x       y       z     vdW  Elec       q    Type
REMARK                         _______ _______ _______ _____ _____    ______ ____
ROOT
ATOM      1  C   UNL     1       3.768   3.220  17.501  0.00  0.00    +0.000 C 
ATOM      2  C   UNL     1       2.477   4.004  17.185  0.00  0.00    +0.000 C 
ATOM      3  C   UNL     1       2.380   5.308  17.989  0.00  0.00    +0.000 C 
ATOM      4  N   UNL     1       2.403   5.131  19.444  0.00  0.00    +0.000 NA
ATOM      5  C   UNL     1       3.337   4.067  19.905  0.00  0.00    +0.000 C 
ATOM      6  C   UNL     1       3.711   2.893  18.989  0.00  0.00    +0.000 C 
ENDROOT
BRANCH   1  12
ATOM      7  C   UNL     1       6.126   4.426  17.444  0.00  0.00    +0.000 A 
ATOM      8  C   UNL     1       7.142   5.001  16.647  0.00  0.00    +0.000 A 
ATOM      9  C   UNL     1       7.126   4.898  15.258  0.00  0.00    +0.000 A 
ATOM     10  C   UNL     1       6.090   4.222  14.644  0.00  0.00    +0.000 A 
ATOM     11  C   UNL     1       5.050   3.703  15.420  0.00  0.00    +0.000 A 
ATOM     12  C   UNL     1       5.011   3.824  16.833  0.00  0.00    +0.000 A 
BRANCH   7  14
ATOM     13  C   UNL     1       7.051   5.495  19.330  0.00  0.00    +0.000 C 
ATOM     14  O   UNL     1       6.204   4.472  18.811  0.00  0.00    +0.000 OA
ENDBRANCH   7  14
ENDBRANCH   1  12
BRANCH   4  15
ATOM     15  C   UNL     1       2.782   6.383  20.160  0.00  0.00    +0.000 C 
BRANCH  15  16
ATOM     16  C   UNL     1       2.044   7.752  20.014  0.00  0.00    +0.000 C 
ATOM     17  C   UNL     1       1.127   8.105  21.198  0.00  0.00    +0.000 C 
ATOM     18  C   UNL     1      -0.230   8.718  20.826  0.00  0.00    +0.000 C 
ATOM     19  C   UNL     1      -0.089  10.147  20.361  0.00  0.00    +0.000 A 
ATOM     20  C   UNL     1      -0.813  11.134  21.066  0.00  0.00    +0.000 A 
ATOM     21  C   UNL     1      -0.606  12.492  20.832  0.00  0.00    +0.000 A 
ATOM     22  C   UNL     1       0.326  12.890  19.883  0.00  0.00    +0.000 A 
ATOM     23  C   UNL     1       0.993  11.927  19.120  0.00  0.00    +0.000 A 
ATOM     24  C   UNL     1       0.772  10.547  19.323  0.00  0.00    +0.000 A 
ATOM     25  C   UNL     1       1.492   9.593  18.405  0.00  0.00    +0.000 C 
ATOM     26  O   UNL     1       2.126  10.050  17.451  0.00  0.00    +0.000 OA
ATOM     27  C   UNL     1       1.449   8.081  18.642  0.00  0.00    +0.000 C 
ENDBRANCH  15  16
ENDBRANCH   4  15
TORSDOF 4
ENDMDL
MODEL 9
REMARK VINA RESULT:      -7.5      1.153      2.026
REMARK  Name = 
REMARK  5 active torsions:
REMARK  status: ('A' for Active; 'I' for Inactive)
REMARK    1  A    between atoms: C_1  and  O_2
REMARK    2  A    between atoms: O_2  and  C_3
REMARK    3  A    between atoms: C_8  and  C_9
REMARK    4  A    between atoms: N_12  and  C_13
REMARK    5  A    between atoms: C_13  and  C_14
REMARK                            x       y       z     vdW  Elec       q    Type
REMARK                         _______ _______ _______ _____ _____    ______ ____
ROOT
ATOM      1  C   UNL     1       3.410   4.425  18.317  0.00  0.00    +0.000 C 
ATOM      2  C   UNL     1       2.470   5.494  17.724  0.00  0.00    +0.000 C 
ATOM      3  C   UNL     1       2.336   6.720  18.637  0.00  0.00    +0.000 C 
ATOM      4  N   UNL     1       1.823   6.428  19.979  0.00  0.00    +0.000 NA
ATOM      5  C   UNL     1       2.334   5.153  20.553  0.00  0.00    +0.000 C 
ATOM      6  C   UNL     1       2.785   4.002  19.643  0.00  0.00    +0.000 C 
ENDROOT
BRANCH   1  12
ATOM      7  C   UNL     1       5.665   4.902  17.011  0.00  0.00    +0.000 A 
ATOM      8  C   UNL     1       7.049   5.175  17.100  0.00  0.00    +0.000 A 
ATOM      9  C   UNL     1       7.662   5.447  18.321  0.00  0.00    +0.000 A 
ATOM     10  C   UNL     1       6.900   5.444  19.473  0.00  0.00    +0.000 A 
ATOM     11  C   UNL     1       5.543   5.116  19.402  0.00  0.00    +0.000 A 
ATOM     12  C   UNL     1       4.893   4.794  18.183  0.00  0.00    +0.000 A 
BRANCH   7  14
ATOM     13  C   UNL     1       5.856   3.999  14.842  0.00  0.00    +0.000 C 
ATOM     14  O   UNL     1       5.069   4.715  15.791  0.00  0.00    +0.000 OA
ENDBRANCH   7  14
ENDBRANCH   1  12
BRANCH   4  15
ATOM     15  C   UNL     1       2.148   7.507  20.956  0.00  0.00    +0.000 C 
BRANCH  15  16
ATOM     16  C   UNL     1       1.344   8.835  21.117  0.00  0.00    +0.000 C 
ATOM     17  C   UNL     1       0.753   9.050  22.522  0.00  0.00    +0.000 C 
ATOM     18  C   UNL     1      -0.677   9.605  22.562  0.00  0.00    +0.000 C 
ATOM     19  C   UNL     1      -0.719  11.068  22.197  0.00  0.00    +0.000 A 
ATOM     20  C   UNL     1      -1.274  11.959  23.142  0.00  0.00    +0.000 A 
ATOM     21  C   UNL     1      -1.189  13.340  22.977  0.00  0.00    +0.000 A 
ATOM     22  C   UNL     1      -0.552  13.858  21.858  0.00  0.00    +0.000 A 
ATOM     23  C   UNL     1      -0.069  12.992  20.872  0.00  0.00    +0.000 A 
ATOM     24  C   UNL     1      -0.174  11.591  21.009  0.00  0.00    +0.000 A 
ATOM     25  C   UNL     1       0.320  10.748  19.862  0.00  0.00    +0.000 C 
ATOM     26  O   UNL     1       0.665  11.308  18.819  0.00  0.00    +0.000 OA
ATOM     27  C   UNL     1       0.400   9.223  19.976  0.00  0.00    +0.000 C 
ENDBRANCH  15  16
ENDBRANCH   4  15
TORSDOF 4
ENDMDL
