MODEL 1
REMARK VINA RESULT:      -9.7      0.000      0.000
REMARK  Name = 
REMARK  8 active torsions:
REMARK  status: ('A' for Active; 'I' for Inactive)
REMARK    1  A    between atoms: O_1  and  C_2
REMARK    2  A    between atoms: C_2  and  C_3
REMARK    3  A    between atoms: C_2  and  C_27
REMARK    4  A    between atoms: C_3  and  C_4
REMARK    5  A    between atoms: C_4  and  C_5
REMARK    6  A    between atoms: C_5  and  C_6
REMARK    7  A    between atoms: C_6  and  N_7
REMARK    8  A    between atoms: N_11  and  C_12
REMARK                            x       y       z     vdW  Elec       q    Type
REMARK                         _______ _______ _______ _____ _____    ______ ____
ROOT
ATOM      1  N   UNL     1       6.043   5.932  17.077  0.00  0.00    +0.000 NA
ATOM      2  C   UNL     1       5.602   4.568  17.558  0.00  0.00    +0.000 C 
ATOM      3  C   UNL     1       4.431   4.881  18.387  0.00  0.00    +0.000 A 
ATOM      4  C   UNL     1       3.959   6.126  18.124  0.00  0.00    +0.000 A 
ATOM      5  N   UNL     1       2.923   6.436  18.959  0.00  0.00    +0.000 N 
ATOM      6  C   UNL     1       2.716   5.297  19.773  0.00  0.00    +0.000 A 
ATOM      7  C   UNL     1       1.741   4.998  20.750  0.00  0.00    +0.000 A 
ATOM      8  C   UNL     1       1.800   3.762  21.406  0.00  0.00    +0.000 A 
ATOM      9  C   UNL     1       2.787   2.842  21.093  0.00  0.00    +0.000 A 
ATOM     10  F   UNL     1       2.821   1.667  21.737  0.00  0.00    +0.000 F 
ATOM     11  C   UNL     1       3.733   3.099  20.107  0.00  0.00    +0.000 A 
ATOM     12  C   UNL     1       3.683   4.326  19.426  0.00  0.00    +0.000 A 
ATOM     13  C   UNL     1       4.812   6.826  17.149  0.00  0.00    +0.000 C 
ENDROOT
BRANCH   5  14
ATOM     14  C   UNL     1       2.213   7.669  18.994  0.00  0.00    +0.000 A 
ATOM     15  C   UNL     1       2.071   8.431  17.823  0.00  0.00    +0.000 A 
ATOM     16  C   UNL     1       1.359   9.634  17.852  0.00  0.00    +0.000 A 
ATOM     17  C   UNL     1       0.809  10.082  19.046  0.00  0.00    +0.000 A 
ATOM     18  F   UNL     1       0.133  11.238  19.070  0.00  0.00    +0.000 F 
ATOM     19  C   UNL     1       0.952   9.348  20.217  0.00  0.00    +0.000 A 
ATOM     20  C   UNL     1       1.653   8.138  20.193  0.00  0.00    +0.000 A 
ENDBRANCH   5  14
BRANCH   1  21
ATOM     21  C   UNL     1       7.106   6.488  17.944  0.00  0.00    +0.000 C 
BRANCH  21  22
ATOM     22  C   UNL     1       7.660   7.862  17.521  0.00  0.00    +0.000 C 
BRANCH  22  23
ATOM     23  C   UNL     1       8.521   8.553  18.582  0.00  0.00    +0.000 C 
BRANCH  23  24
ATOM     24  C   UNL     1       8.730  10.033  18.221  0.00  0.00    +0.000 C 
BRANCH  24  25
ATOM     25  C   UNL     1       9.903  10.679  18.974  0.00  0.00    +0.000 C 
BRANCH  25  26
ATOM     26  C   UNL     1      10.306  12.018  18.388  0.00  0.00    +0.000 A 
ATOM     27  C   UNL     1       9.479  13.144  18.543  0.00  0.00    +0.000 A 
ATOM     28  C   UNL     1       9.811  14.358  17.937  0.00  0.00    +0.000 A 
ATOM     29  C   UNL     1      10.973  14.454  17.182  0.00  0.00    +0.000 A 
ATOM     30  F   UNL     1      11.275  15.611  16.578  0.00  0.00    +0.000 F 
ATOM     31  C   UNL     1      11.821  13.364  17.033  0.00  0.00    +0.000 A 
ATOM     32  C   UNL     1      11.487  12.149  17.635  0.00  0.00    +0.000 A 
ENDBRANCH  25  26
BRANCH  25  33
ATOM     33  O   UNL     1       9.548  10.909  20.337  0.00  0.00    +0.000 OA
ATOM     34  H   UNL     1       8.838  10.285  20.561  0.00  0.00    +0.000 HD
ENDBRANCH  25  33
ENDBRANCH  24  25
ENDBRANCH  23  24
ENDBRANCH  22  23
ENDBRANCH  21  22
ENDBRANCH   1  21
TORSDOF 8
ENDMDL
MODEL 2
REMARK VINA RESULT:      -9.5      1.188      1.248
REMARK  Name = 
REMARK  8 active torsions:
REMARK  status: ('A' for Active; 'I' for Inactive)
REMARK    1  A    between atoms: O_1  and  C_2
REMARK    2  A    between atoms: C_2  and  C_3
REMARK    3  A    between atoms: C_2  and  C_27
REMARK    4  A    between atoms: C_3  and  C_4
REMARK    5  A    between atoms: C_4  and  C_5
REMARK    6  A    between atoms: C_5  and  C_6
REMARK    7  A    between atoms: C_6  and  N_7
REMARK    8  A    between atoms: N_11  and  C_12
REMARK                            x       y       z     vdW  Elec       q    Type
REMARK                         _______ _______ _______ _____ _____    ______ ____
ROOT
ATOM      1  N   UNL     1       5.810   6.745  16.518  0.00  0.00    +0.000 NA
ATOM      2  C   UNL     1       5.332   5.313  16.430  0.00  0.00    +0.000 C 
ATOM      3  C   UNL     1       4.180   5.301  17.341  0.00  0.00    +0.000 A 
ATOM      4  C   UNL     1       3.745   6.560  17.603  0.00  0.00    +0.000 A 
ATOM      5  N   UNL     1       2.729   6.539  18.517  0.00  0.00    +0.000 N 
ATOM      6  C   UNL     1       2.495   5.176  18.817  0.00  0.00    +0.000 A 
ATOM      7  C   UNL     1       1.521   4.538  19.617  0.00  0.00    +0.000 A 
ATOM      8  C   UNL     1       1.547   3.143  19.728  0.00  0.00    +0.000 A 
ATOM      9  C   UNL     1       2.501   2.398  19.054  0.00  0.00    +0.000 A 
ATOM     10  F   UNL     1       2.504   1.064  19.179  0.00  0.00    +0.000 F 
ATOM     11  C   UNL     1       3.444   3.001  18.230  0.00  0.00    +0.000 A 
ATOM     12  C   UNL     1       3.426   4.399  18.091  0.00  0.00    +0.000 A 
ATOM     13  C   UNL     1       4.610   7.567  16.966  0.00  0.00    +0.000 C 
ENDROOT
BRANCH   5  14
ATOM     14  C   UNL     1       2.059   7.675  19.053  0.00  0.00    +0.000 A 
ATOM     15  C   UNL     1       1.706   8.743  18.214  0.00  0.00    +0.000 A 
ATOM     16  C   UNL     1       1.034   9.852  18.736  0.00  0.00    +0.000 A 
ATOM     17  C   UNL     1       0.732   9.901  20.091  0.00  0.00    +0.000 A 
ATOM     18  F   UNL     1       0.092  10.967  20.588  0.00  0.00    +0.000 F 
ATOM     19  C   UNL     1       1.087   8.859  20.938  0.00  0.00    +0.000 A 
ATOM     20  C   UNL     1       1.750   7.742  20.421  0.00  0.00    +0.000 A 
ENDBRANCH   5  14
BRANCH   1  21
ATOM     21  C   UNL     1       6.901   6.884  17.510  0.00  0.00    +0.000 C 
BRANCH  21  22
ATOM     22  C   UNL     1       7.766   8.152  17.376  0.00  0.00    +0.000 C 
BRANCH  22  23
ATOM     23  C   UNL     1       8.543   8.527  18.640  0.00  0.00    +0.000 C 
BRANCH  23  24
ATOM     24  C   UNL     1       8.712  10.052  18.733  0.00  0.00    +0.000 C 
BRANCH  24  25
ATOM     25  C   UNL     1       9.893  10.477  19.618  0.00  0.00    +0.000 C 
BRANCH  25  26
ATOM     26  C   UNL     1      10.608  11.704  19.087  0.00  0.00    +0.000 A 
ATOM     27  C   UNL     1      10.989  12.741  19.958  0.00  0.00    +0.000 A 
ATOM     28  C   UNL     1      11.577  13.906  19.459  0.00  0.00    +0.000 A 
ATOM     29  C   UNL     1      11.794  14.037  18.093  0.00  0.00    +0.000 A 
ATOM     30  F   UNL     1      12.332  15.166  17.615  0.00  0.00    +0.000 F 
ATOM     31  C   UNL     1      11.450  13.018  17.214  0.00  0.00    +0.000 A 
ATOM     32  C   UNL     1      10.859  11.855  17.711  0.00  0.00    +0.000 A 
ENDBRANCH  25  26
BRANCH  25  33
ATOM     33  O   UNL     1       9.437  10.795  20.932  0.00  0.00    +0.000 OA
ATOM     34  H   UNL     1       9.171  11.729  20.928  0.00  0.00    +0.000 HD
ENDBRANCH  25  33
ENDBRANCH  24  25
ENDBRANCH  23  24
ENDBRANCH  22  23
ENDBRANCH  21  22
ENDBRANCH   1  21
TORSDOF 8
ENDMDL
MODEL 3
REMARK VINA RESULT:      -9.3      1.639      1.934
REMARK  Name = 
REMARK  8 active torsions:
REMARK  status: ('A' for Active; 'I' for Inactive)
REMARK    1  A    between atoms: O_1  and  C_2
REMARK    2  A    between atoms: C_2  and  C_3
REMARK    3  A    between atoms: C_2  and  C_27
REMARK    4  A    between atoms: C_3  and  C_4
REMARK    5  A    between atoms: C_4  and  C_5
REMARK    6  A    between atoms: C_5  and  C_6
REMARK    7  A    between atoms: C_6  and  N_7
REMARK    8  A    between atoms: N_11  and  C_12
REMARK                            x       y       z     vdW  Elec       q    Type
REMARK                         _______ _______ _______ _____ _____    ______ ____
ROOT
ATOM      1  N   UNL     1       6.307   6.941  16.349  0.00  0.00    +0.000 NA
ATOM      2  C   UNL     1       5.950   5.477  16.221  0.00  0.00    +0.000 C 
ATOM      3  C   UNL     1       4.745   5.365  17.052  0.00  0.00    +0.000 A 
ATOM      4  C   UNL     1       4.195   6.583  17.290  0.00  0.00    +0.000 A 
ATOM      5  N   UNL     1       3.124   6.474  18.132  0.00  0.00    +0.000 N 
ATOM      6  C   UNL     1       2.978   5.093  18.409  0.00  0.00    +0.000 A 
ATOM      7  C   UNL     1       2.006   4.373  19.138  0.00  0.00    +0.000 A 
ATOM      8  C   UNL     1       2.135   2.983  19.244  0.00  0.00    +0.000 A 
ATOM      9  C   UNL     1       3.188   2.321  18.632  0.00  0.00    +0.000 A 
ATOM     10  F   UNL     1       3.288   0.990  18.751  0.00  0.00    +0.000 F 
ATOM     11  C   UNL     1       4.134   3.005  17.877  0.00  0.00    +0.000 A 
ATOM     12  C   UNL     1       4.015   4.399  17.745  0.00  0.00    +0.000 A 
ATOM     13  C   UNL     1       5.018   7.662  16.719  0.00  0.00    +0.000 C 
ENDROOT
BRANCH   5  14
ATOM     14  C   UNL     1       2.332   7.547  18.627  0.00  0.00    +0.000 A 
ATOM     15  C   UNL     1       1.852   8.530  17.747  0.00  0.00    +0.000 A 
ATOM     16  C   UNL     1       1.060   9.576  18.229  0.00  0.00    +0.000 A 
ATOM     17  C   UNL     1       0.765   9.651  19.585  0.00  0.00    +0.000 A 
ATOM     18  F   UNL     1       0.011  10.658  20.043  0.00  0.00    +0.000 F 
ATOM     19  C   UNL     1       1.244   8.695  20.472  0.00  0.00    +0.000 A 
ATOM     20  C   UNL     1       2.028   7.639  19.995  0.00  0.00    +0.000 A 
ENDBRANCH   5  14
BRANCH   1  21
ATOM     21  C   UNL     1       7.314   7.155  17.414  0.00  0.00    +0.000 C 
BRANCH  21  22
ATOM     22  C   UNL     1       7.805   8.606  17.585  0.00  0.00    +0.000 C 
BRANCH  22  23
ATOM     23  C   UNL     1       8.730   8.826  18.784  0.00  0.00    +0.000 C 
BRANCH  23  24
ATOM     24  C   UNL     1       9.209  10.286  18.831  0.00  0.00    +0.000 C 
BRANCH  24  25
ATOM     25  C   UNL     1      10.036  10.611  20.084  0.00  0.00    +0.000 C 
BRANCH  25  26
ATOM     26  C   UNL     1      10.604  12.016  20.059  0.00  0.00    +0.000 A 
ATOM     27  C   UNL     1      11.765  12.305  19.321  0.00  0.00    +0.000 A 
ATOM     28  C   UNL     1      12.333  13.580  19.361  0.00  0.00    +0.000 A 
ATOM     29  C   UNL     1      11.739  14.574  20.131  0.00  0.00    +0.000 A 
ATOM     30  F   UNL     1      12.302  15.788  20.190  0.00  0.00    +0.000 F 
ATOM     31  C   UNL     1      10.578  14.322  20.850  0.00  0.00    +0.000 A 
ATOM     32  C   UNL     1      10.012  13.047  20.814  0.00  0.00    +0.000 A 
ENDBRANCH  25  26
BRANCH  25  33
ATOM     33  O   UNL     1       9.224  10.508  21.252  0.00  0.00    +0.000 OA
ATOM     34  H   UNL     1       9.807  10.617  22.021  0.00  0.00    +0.000 HD
ENDBRANCH  25  33
ENDBRANCH  24  25
ENDBRANCH  23  24
ENDBRANCH  22  23
ENDBRANCH  21  22
ENDBRANCH   1  21
TORSDOF 8
ENDMDL
MODEL 4
REMARK VINA RESULT:      -9.1      1.921      2.272
REMARK  Name = 
REMARK  8 active torsions:
REMARK  status: ('A' for Active; 'I' for Inactive)
REMARK    1  A    between atoms: O_1  and  C_2
REMARK    2  A    between atoms: C_2  and  C_3
REMARK    3  A    between atoms: C_2  and  C_27
REMARK    4  A    between atoms: C_3  and  C_4
REMARK    5  A    between atoms: C_4  and  C_5
REMARK    6  A    between atoms: C_5  and  C_6
REMARK    7  A    between atoms: C_6  and  N_7
REMARK    8  A    between atoms: N_11  and  C_12
REMARK                            x       y       z     vdW  Elec       q    Type
REMARK                         _______ _______ _______ _____ _____    ______ ____
ROOT
ATOM      1  N   UNL     1       6.334   6.371  16.189  0.00  0.00    +0.000 NA
ATOM      2  C   UNL     1       5.854   4.943  16.060  0.00  0.00    +0.000 C 
ATOM      3  C   UNL     1       4.664   4.923  16.920  0.00  0.00    +0.000 A 
ATOM      4  C   UNL     1       4.223   6.180  17.181  0.00  0.00    +0.000 A 
ATOM      5  N   UNL     1       3.168   6.151  18.049  0.00  0.00    +0.000 N 
ATOM      6  C   UNL     1       2.915   4.784  18.319  0.00  0.00    +0.000 A 
ATOM      7  C   UNL     1       1.905   4.140  19.068  0.00  0.00    +0.000 A 
ATOM      8  C   UNL     1       1.922   2.743  19.159  0.00  0.00    +0.000 A 
ATOM      9  C   UNL     1       2.901   2.003  18.517  0.00  0.00    +0.000 A 
ATOM     10  F   UNL     1       2.894   0.668  18.624  0.00  0.00    +0.000 F 
ATOM     11  C   UNL     1       3.881   2.614  17.743  0.00  0.00    +0.000 A 
ATOM     12  C   UNL     1       3.875   4.014  17.624  0.00  0.00    +0.000 A 
ATOM     13  C   UNL     1       5.118   7.192  16.597  0.00  0.00    +0.000 C 
ENDROOT
BRANCH   5  14
ATOM     14  C   UNL     1       2.479   7.282  18.572  0.00  0.00    +0.000 A 
ATOM     15  C   UNL     1       2.116   8.338  17.721  0.00  0.00    +0.000 A 
ATOM     16  C   UNL     1       1.426   9.442  18.230  0.00  0.00    +0.000 A 
ATOM     17  C   UNL     1       1.116   9.499  19.583  0.00  0.00    +0.000 A 
ATOM     18  F   UNL     1       0.459  10.560  20.067  0.00  0.00    +0.000 F 
ATOM     19  C   UNL     1       1.481   8.469  20.441  0.00  0.00    +0.000 A 
ATOM     20  C   UNL     1       2.162   7.356  19.937  0.00  0.00    +0.000 A 
ENDBRANCH   5  14
BRANCH   1  21
ATOM     21  C   UNL     1       7.380   6.492  17.230  0.00  0.00    +0.000 C 
BRANCH  21  22
ATOM     22  C   UNL     1       7.314   7.764  18.097  0.00  0.00    +0.000 C 
BRANCH  22  23
ATOM     23  C   UNL     1       8.019   8.982  17.492  0.00  0.00    +0.000 C 
BRANCH  23  24
ATOM     24  C   UNL     1       8.875   9.688  18.556  0.00  0.00    +0.000 C 
BRANCH  24  25
ATOM     25  C   UNL     1       9.330  11.092  18.130  0.00  0.00    +0.000 C 
BRANCH  25  26
ATOM     26  C   UNL     1       9.437  12.051  19.300  0.00  0.00    +0.000 A 
ATOM     27  C   UNL     1       9.533  13.436  19.082  0.00  0.00    +0.000 A 
ATOM     28  C   UNL     1       9.711  14.313  20.154  0.00  0.00    +0.000 A 
ATOM     29  C   UNL     1       9.783  13.811  21.448  0.00  0.00    +0.000 A 
ATOM     30  F   UNL     1       9.981  14.651  22.473  0.00  0.00    +0.000 F 
ATOM     31  C   UNL     1       9.665  12.450  21.694  0.00  0.00    +0.000 A 
ATOM     32  C   UNL     1       9.493  11.572  20.622  0.00  0.00    +0.000 A 
ENDBRANCH  25  26
BRANCH  25  33
ATOM     33  O   UNL     1      10.619  11.030  17.522  0.00  0.00    +0.000 OA
ATOM     34  H   UNL     1      10.768  11.878  17.072  0.00  0.00    +0.000 HD
ENDBRANCH  25  33
ENDBRANCH  24  25
ENDBRANCH  23  24
ENDBRANCH  22  23
ENDBRANCH  21  22
ENDBRANCH   1  21
TORSDOF 8
ENDMDL
MODEL 5
REMARK VINA RESULT:      -9.0      1.566      1.876
REMARK  Name = 
REMARK  8 active torsions:
REMARK  status: ('A' for Active; 'I' for Inactive)
REMARK    1  A    between atoms: O_1  and  C_2
REMARK    2  A    between atoms: C_2  and  C_3
REMARK    3  A    between atoms: C_2  and  C_27
REMARK    4  A    between atoms: C_3  and  C_4
REMARK    5  A    between atoms: C_4  and  C_5
REMARK    6  A    between atoms: C_5  and  C_6
REMARK    7  A    between atoms: C_6  and  N_7
REMARK    8  A    between atoms: N_11  and  C_12
REMARK                            x       y       z     vdW  Elec       q    Type
REMARK                         _______ _______ _______ _____ _____    ______ ____
ROOT
ATOM      1  N   UNL     1       5.988   6.057  17.077  0.00  0.00    +0.000 NA
ATOM      2  C   UNL     1       5.580   4.677  17.540  0.00  0.00    +0.000 C 
ATOM      3  C   UNL     1       4.411   4.953  18.386  0.00  0.00    +0.000 A 
ATOM      4  C   UNL     1       3.912   6.193  18.148  0.00  0.00    +0.000 A 
ATOM      5  N   UNL     1       2.879   6.469  18.998  0.00  0.00    +0.000 N 
ATOM      6  C   UNL     1       2.703   5.313  19.796  0.00  0.00    +0.000 A 
ATOM      7  C   UNL     1       1.744   4.979  20.777  0.00  0.00    +0.000 A 
ATOM      8  C   UNL     1       1.834   3.734  21.412  0.00  0.00    +0.000 A 
ATOM      9  C   UNL     1       2.836   2.838  21.074  0.00  0.00    +0.000 A 
ATOM     10  F   UNL     1       2.899   1.655  21.700  0.00  0.00    +0.000 F 
ATOM     11  C   UNL     1       3.766   3.130  20.084  0.00  0.00    +0.000 A 
ATOM     12  C   UNL     1       3.685   4.367  19.423  0.00  0.00    +0.000 A 
ATOM     13  C   UNL     1       4.741   6.925  17.176  0.00  0.00    +0.000 C 
ENDROOT
BRANCH   5  14
ATOM     14  C   UNL     1       2.145   7.687  19.060  0.00  0.00    +0.000 A 
ATOM     15  C   UNL     1       1.919   8.430  17.891  0.00  0.00    +0.000 A 
ATOM     16  C   UNL     1       1.184   9.619  17.947  0.00  0.00    +0.000 A 
ATOM     17  C   UNL     1       0.694  10.070  19.166  0.00  0.00    +0.000 A 
ATOM     18  F   UNL     1      -0.005  11.211  19.216  0.00  0.00    +0.000 F 
ATOM     19  C   UNL     1       0.921   9.354  20.335  0.00  0.00    +0.000 A 
ATOM     20  C   UNL     1       1.646   8.159  20.284  0.00  0.00    +0.000 A 
ENDBRANCH   5  14
BRANCH   1  21
ATOM     21  C   UNL     1       7.049   6.620  17.942  0.00  0.00    +0.000 C 
BRANCH  21  22
ATOM     22  C   UNL     1       7.914   7.725  17.304  0.00  0.00    +0.000 C 
BRANCH  22  23
ATOM     23  C   UNL     1       7.692   9.122  17.889  0.00  0.00    +0.000 C 
BRANCH  23  24
ATOM     24  C   UNL     1       8.979   9.633  18.557  0.00  0.00    +0.000 C 
BRANCH  24  25
ATOM     25  C   UNL     1       9.352  11.062  18.136  0.00  0.00    +0.000 C 
BRANCH  25  26
ATOM     26  C   UNL     1       9.395  12.023  19.308  0.00  0.00    +0.000 A 
ATOM     27  C   UNL     1       9.127  13.390  19.121  0.00  0.00    +0.000 A 
ATOM     28  C   UNL     1       9.244  14.289  20.184  0.00  0.00    +0.000 A 
ATOM     29  C   UNL     1       9.619  13.825  21.439  0.00  0.00    +0.000 A 
ATOM     30  F   UNL     1       9.758  14.692  22.451  0.00  0.00    +0.000 F 
ATOM     31  C   UNL     1       9.866  12.475  21.657  0.00  0.00    +0.000 A 
ATOM     32  C   UNL     1       9.754  11.577  20.594  0.00  0.00    +0.000 A 
ENDBRANCH  25  26
BRANCH  25  33
ATOM     33  O   UNL     1      10.645  11.079  17.535  0.00  0.00    +0.000 OA
ATOM     34  H   UNL     1      10.549  11.471  16.651  0.00  0.00    +0.000 HD
ENDBRANCH  25  33
ENDBRANCH  24  25
ENDBRANCH  23  24
ENDBRANCH  22  23
ENDBRANCH  21  22
ENDBRANCH   1  21
TORSDOF 8
ENDMDL
MODEL 6
REMARK VINA RESULT:      -9.0      5.500      8.580
REMARK  Name = 
REMARK  8 active torsions:
REMARK  status: ('A' for Active; 'I' for Inactive)
REMARK    1  A    between atoms: O_1  and  C_2
REMARK    2  A    between atoms: C_2  and  C_3
REMARK    3  A    between atoms: C_2  and  C_27
REMARK    4  A    between atoms: C_3  and  C_4
REMARK    5  A    between atoms: C_4  and  C_5
REMARK    6  A    between atoms: C_5  and  C_6
REMARK    7  A    between atoms: C_6  and  N_7
REMARK    8  A    between atoms: N_11  and  C_12
REMARK                            x       y       z     vdW  Elec       q    Type
REMARK                         _______ _______ _______ _____ _____    ______ ____
ROOT
ATOM      1  N   UNL     1       1.510   9.524  19.600  0.00  0.00    +0.000 NA
ATOM      2  C   UNL     1       0.913   9.552  18.211  0.00  0.00    +0.000 C 
ATOM      3  C   UNL     1      -0.338  10.293  18.412  0.00  0.00    +0.000 A 
ATOM      4  C   UNL     1      -0.322  10.980  19.583  0.00  0.00    +0.000 A 
ATOM      5  N   UNL     1      -1.523  11.596  19.797  0.00  0.00    +0.000 N 
ATOM      6  C   UNL     1      -2.327  11.301  18.670  0.00  0.00    +0.000 A 
ATOM      7  C   UNL     1      -3.618  11.730  18.291  0.00  0.00    +0.000 A 
ATOM      8  C   UNL     1      -4.164  11.251  17.095  0.00  0.00    +0.000 A 
ATOM      9  C   UNL     1      -3.446  10.383  16.287  0.00  0.00    +0.000 A 
ATOM     10  F   UNL     1      -3.994   9.939  15.147  0.00  0.00    +0.000 F 
ATOM     11  C   UNL     1      -2.159   9.980  16.619  0.00  0.00    +0.000 A 
ATOM     12  C   UNL     1      -1.585  10.461  17.809  0.00  0.00    +0.000 A 
ATOM     13  C   UNL     1       0.908  10.708  20.344  0.00  0.00    +0.000 C 
ENDROOT
BRANCH   5  14
ATOM     14  C   UNL     1      -1.877  12.370  20.938  0.00  0.00    +0.000 A 
ATOM     15  C   UNL     1      -2.008  13.763  20.829  0.00  0.00    +0.000 A 
ATOM     16  C   UNL     1      -2.372  14.522  21.945  0.00  0.00    +0.000 A 
ATOM     17  C   UNL     1      -2.586  13.896  23.167  0.00  0.00    +0.000 A 
ATOM     18  F   UNL     1      -2.929  14.628  24.234  0.00  0.00    +0.000 F 
ATOM     19  C   UNL     1      -2.447  12.520  23.295  0.00  0.00    +0.000 A 
ATOM     20  C   UNL     1      -2.094  11.752  22.180  0.00  0.00    +0.000 A 
ENDBRANCH   5  14
BRANCH   1  21
ATOM     21  C   UNL     1       1.163   8.271  20.306  0.00  0.00    +0.000 C 
BRANCH  21  22
ATOM     22  C   UNL     1       2.219   7.150  20.234  0.00  0.00    +0.000 C 
BRANCH  22  23
ATOM     23  C   UNL     1       1.670   5.744  20.491  0.00  0.00    +0.000 C 
BRANCH  23  24
ATOM     24  C   UNL     1       2.383   4.719  19.593  0.00  0.00    +0.000 C 
BRANCH  24  25
ATOM     25  C   UNL     1       2.280   5.052  18.097  0.00  0.00    +0.000 C 
BRANCH  25  26
ATOM     26  C   UNL     1       3.633   5.089  17.414  0.00  0.00    +0.000 A 
ATOM     27  C   UNL     1       4.328   6.303  17.271  0.00  0.00    +0.000 A 
ATOM     28  C   UNL     1       5.537   6.350  16.573  0.00  0.00    +0.000 A 
ATOM     29  C   UNL     1       6.060   5.187  16.023  0.00  0.00    +0.000 A 
ATOM     30  F   UNL     1       7.205   5.240  15.329  0.00  0.00    +0.000 F 
ATOM     31  C   UNL     1       5.407   3.970  16.170  0.00  0.00    +0.000 A 
ATOM     32  C   UNL     1       4.196   3.922  16.864  0.00  0.00    +0.000 A 
ENDBRANCH  25  26
BRANCH  25  33
ATOM     33  O   UNL     1       1.499   4.067  17.424  0.00  0.00    +0.000 OA
ATOM     34  H   UNL     1       1.614   3.229  17.902  0.00  0.00    +0.000 HD
ENDBRANCH  25  33
ENDBRANCH  24  25
ENDBRANCH  23  24
ENDBRANCH  22  23
ENDBRANCH  21  22
ENDBRANCH   1  21
TORSDOF 8
ENDMDL
MODEL 7
REMARK VINA RESULT:      -8.9      0.994      1.089
REMARK  Name = 
REMARK  8 active torsions:
REMARK  status: ('A' for Active; 'I' for Inactive)
REMARK    1  A    between atoms: O_1  and  C_2
REMARK    2  A    between atoms: C_2  and  C_3
REMARK    3  A    between atoms: C_2  and  C_27
REMARK    4  A    between atoms: C_3  and  C_4
REMARK    5  A    between atoms: C_4  and  C_5
REMARK    6  A    between atoms: C_5  and  C_6
REMARK    7  A    between atoms: C_6  and  N_7
REMARK    8  A    between atoms: N_11  and  C_12
REMARK                            x       y       z     vdW  Elec       q    Type
REMARK                         _______ _______ _______ _____ _____    ______ ____
ROOT
ATOM      1  N   UNL     1       6.430   6.692  16.905  0.00  0.00    +0.000 NA
ATOM      2  C   UNL     1       6.201   5.230  17.215  0.00  0.00    +0.000 C 
ATOM      3  C   UNL     1       4.997   5.263  18.055  0.00  0.00    +0.000 A 
ATOM      4  C   UNL     1       4.342   6.446  17.932  0.00  0.00    +0.000 A 
ATOM      5  N   UNL     1       3.273   6.496  18.781  0.00  0.00    +0.000 N 
ATOM      6  C   UNL     1       3.241   5.249  19.451  0.00  0.00    +0.000 A 
ATOM      7  C   UNL     1       2.323   4.693  20.369  0.00  0.00    +0.000 A 
ATOM      8  C   UNL     1       2.568   3.411  20.875  0.00  0.00    +0.000 A 
ATOM      9  C   UNL     1       3.683   2.693  20.473  0.00  0.00    +0.000 A 
ATOM     10  F   UNL     1       3.894   1.469  20.975  0.00  0.00    +0.000 F 
ATOM     11  C   UNL     1       4.578   3.204  19.541  0.00  0.00    +0.000 A 
ATOM     12  C   UNL     1       4.343   4.483  19.008  0.00  0.00    +0.000 A 
ATOM     13  C   UNL     1       5.079   7.377  17.061  0.00  0.00    +0.000 C 
ENDROOT
BRANCH   5  14
ATOM     14  C   UNL     1       2.384   7.595  18.948  0.00  0.00    +0.000 A 
ATOM     15  C   UNL     1       2.039   8.394  17.847  0.00  0.00    +0.000 A 
ATOM     16  C   UNL     1       1.154   9.464  18.007  0.00  0.00    +0.000 A 
ATOM     17  C   UNL     1       0.632   9.746  19.262  0.00  0.00    +0.000 A 
ATOM     18  F   UNL     1      -0.212  10.775  19.412  0.00  0.00    +0.000 F 
ATOM     19  C   UNL     1       0.974   8.975  20.366  0.00  0.00    +0.000 A 
ATOM     20  C   UNL     1       1.850   7.896  20.211  0.00  0.00    +0.000 A 
ENDBRANCH   5  14
BRANCH   1  21
ATOM     21  C   UNL     1       7.399   7.294  17.849  0.00  0.00    +0.000 C 
BRANCH  21  22
ATOM     22  C   UNL     1       7.955   8.674  17.445  0.00  0.00    +0.000 C 
BRANCH  22  23
ATOM     23  C   UNL     1       8.627   9.445  18.583  0.00  0.00    +0.000 C 
BRANCH  23  24
ATOM     24  C   UNL     1       9.489  10.587  18.020  0.00  0.00    +0.000 C 
BRANCH  24  25
ATOM     25  C   UNL     1       8.868  11.976  18.236  0.00  0.00    +0.000 C 
BRANCH  25  26
ATOM     26  C   UNL     1       9.823  13.102  17.889  0.00  0.00    +0.000 A 
ATOM     27  C   UNL     1       9.414  14.442  17.997  0.00  0.00    +0.000 A 
ATOM     28  C   UNL     1      10.265  15.478  17.603  0.00  0.00    +0.000 A 
ATOM     29  C   UNL     1      11.529  15.179  17.110  0.00  0.00    +0.000 A 
ATOM     30  F   UNL     1      12.333  16.171  16.706  0.00  0.00    +0.000 F 
ATOM     31  C   UNL     1      11.967  13.864  17.017  0.00  0.00    +0.000 A 
ATOM     32  C   UNL     1      11.115  12.829  17.406  0.00  0.00    +0.000 A 
ENDBRANCH  25  26
BRANCH  25  33
ATOM     33  O   UNL     1       7.716  12.135  17.409  0.00  0.00    +0.000 OA
ATOM     34  H   UNL     1       7.569  11.292  16.951  0.00  0.00    +0.000 HD
ENDBRANCH  25  33
ENDBRANCH  24  25
ENDBRANCH  23  24
ENDBRANCH  22  23
ENDBRANCH  21  22
ENDBRANCH   1  21
TORSDOF 8
ENDMDL
MODEL 8
REMARK VINA RESULT:      -8.8      1.791      2.233
REMARK  Name = 
REMARK  8 active torsions:
REMARK  status: ('A' for Active; 'I' for Inactive)
REMARK    1  A    between atoms: O_1  and  C_2
REMARK    2  A    between atoms: C_2  and  C_3
REMARK    3  A    between atoms: C_2  and  C_27
REMARK    4  A    between atoms: C_3  and  C_4
REMARK    5  A    between atoms: C_4  and  C_5
REMARK    6  A    between atoms: C_5  and  C_6
REMARK    7  A    between atoms: C_6  and  N_7
REMARK    8  A    between atoms: N_11  and  C_12
REMARK                            x       y       z     vdW  Elec       q    Type
REMARK                         _______ _______ _______ _____ _____    ______ ____
ROOT
ATOM      1  N   UNL     1       6.319   6.812  16.555  0.00  0.00    +0.000 NA
ATOM      2  C   UNL     1       5.889   5.379  16.337  0.00  0.00    +0.000 C 
ATOM      3  C   UNL     1       4.640   5.296  17.105  0.00  0.00    +0.000 A 
ATOM      4  C   UNL     1       4.146   6.531  17.379  0.00  0.00    +0.000 A 
ATOM      5  N   UNL     1       3.032   6.441  18.164  0.00  0.00    +0.000 N 
ATOM      6  C   UNL     1       2.798   5.060  18.364  0.00  0.00    +0.000 A 
ATOM      7  C   UNL     1       1.753   4.362  19.010  0.00  0.00    +0.000 A 
ATOM      8  C   UNL     1       1.801   2.963  19.050  0.00  0.00    +0.000 A 
ATOM      9  C   UNL     1       2.845   2.273  18.455  0.00  0.00    +0.000 A 
ATOM     10  F   UNL     1       2.867   0.934  18.511  0.00  0.00    +0.000 F 
ATOM     11  C   UNL     1       3.863   2.937  17.780  0.00  0.00    +0.000 A 
ATOM     12  C   UNL     1       3.826   4.341  17.714  0.00  0.00    +0.000 A 
ATOM     13  C   UNL     1       5.054   7.587  16.901  0.00  0.00    +0.000 C 
ENDROOT
BRANCH   5  14
ATOM     14  C   UNL     1       2.276   7.533  18.676  0.00  0.00    +0.000 A 
ATOM     15  C   UNL     1       1.977   7.600  20.045  0.00  0.00    +0.000 A 
ATOM     16  C   UNL     1       1.248   8.681  20.552  0.00  0.00    +0.000 A 
ATOM     17  C   UNL     1       0.805   9.678  19.693  0.00  0.00    +0.000 A 
ATOM     18  F   UNL     1       0.103  10.708  20.182  0.00  0.00    +0.000 F 
ATOM     19  C   UNL     1       1.079   9.620  18.332  0.00  0.00    +0.000 A 
ATOM     20  C   UNL     1       1.817   8.548  17.820  0.00  0.00    +0.000 A 
ENDBRANCH   5  14
BRANCH   1  21
ATOM     21  C   UNL     1       7.282   6.918  17.674  0.00  0.00    +0.000 C 
BRANCH  21  22
ATOM     22  C   UNL     1       8.368   8.001  17.519  0.00  0.00    +0.000 C 
BRANCH  22  23
ATOM     23  C   UNL     1       7.955   9.389  18.017  0.00  0.00    +0.000 C 
BRANCH  23  24
ATOM     24  C   UNL     1       9.045   9.977  18.928  0.00  0.00    +0.000 C 
BRANCH  24  25
ATOM     25  C   UNL     1       9.718  11.225  18.338  0.00  0.00    +0.000 C 
BRANCH  25  26
ATOM     26  C   UNL     1       9.089  12.514  18.828  0.00  0.00    +0.000 A 
ATOM     27  C   UNL     1       8.498  13.411  17.921  0.00  0.00    +0.000 A 
ATOM     28  C   UNL     1       7.989  14.634  18.362  0.00  0.00    +0.000 A 
ATOM     29  C   UNL     1       8.060  14.963  19.710  0.00  0.00    +0.000 A 
ATOM     30  F   UNL     1       7.596  16.149  20.127  0.00  0.00    +0.000 F 
ATOM     31  C   UNL     1       8.616  14.085  20.632  0.00  0.00    +0.000 A 
ATOM     32  C   UNL     1       9.129  12.864  20.191  0.00  0.00    +0.000 A 
ENDBRANCH  25  26
BRANCH  25  33
ATOM     33  O   UNL     1      11.095  11.265  18.707  0.00  0.00    +0.000 OA
ATOM     34  H   UNL     1      11.159  10.945  19.622  0.00  0.00    +0.000 HD
ENDBRANCH  25  33
ENDBRANCH  24  25
ENDBRANCH  23  24
ENDBRANCH  22  23
ENDBRANCH  21  22
ENDBRANCH   1  21
TORSDOF 8
ENDMDL
MODEL 9
REMARK VINA RESULT:      -8.8      1.403      1.835
REMARK  Name = 
REMARK  8 active torsions:
REMARK  status: ('A' for Active; 'I' for Inactive)
REMARK    1  A    between atoms: O_1  and  C_2
REMARK    2  A    between atoms: C_2  and  C_3
REMARK    3  A    between atoms: C_2  and  C_27
REMARK    4  A    between atoms: C_3  and  C_4
REMARK    5  A    between atoms: C_4  and  C_5
REMARK    6  A    between atoms: C_5  and  C_6
REMARK    7  A    between atoms: C_6  and  N_7
REMARK    8  A    between atoms: N_11  and  C_12
REMARK                            x       y       z     vdW  Elec       q    Type
REMARK                         _______ _______ _______ _____ _____    ______ ____
ROOT
ATOM      1  N   UNL     1       6.031   5.945  16.811  0.00  0.00    +0.000 NA
ATOM      2  C   UNL     1       5.655   4.579  17.338  0.00  0.00    +0.000 C 
ATOM      3  C   UNL     1       4.531   4.877  18.235  0.00  0.00    +0.000 A 
ATOM      4  C   UNL     1       4.013   6.107  17.985  0.00  0.00    +0.000 A 
ATOM      5  N   UNL     1       3.025   6.406  18.880  0.00  0.00    +0.000 N 
ATOM      6  C   UNL     1       2.897   5.274  19.721  0.00  0.00    +0.000 A 
ATOM      7  C   UNL     1       1.992   4.967  20.761  0.00  0.00    +0.000 A 
ATOM      8  C   UNL     1       2.122   3.743  21.428  0.00  0.00    +0.000 A 
ATOM      9  C   UNL     1       3.110   2.841  21.066  0.00  0.00    +0.000 A 
ATOM     10  F   UNL     1       3.212   1.678  21.723  0.00  0.00    +0.000 F 
ATOM     11  C   UNL     1       3.985   3.105  20.019  0.00  0.00    +0.000 A 
ATOM     12  C   UNL     1       3.863   4.321  19.326  0.00  0.00    +0.000 A 
ATOM     13  C   UNL     1       4.786   6.811  16.948  0.00  0.00    +0.000 C 
ENDROOT
BRANCH   5  14
ATOM     14  C   UNL     1       2.288   7.622  18.942  0.00  0.00    +0.000 A 
ATOM     15  C   UNL     1       1.731   8.044  20.160  0.00  0.00    +0.000 A 
ATOM     16  C   UNL     1       1.021   9.247  20.226  0.00  0.00    +0.000 A 
ATOM     17  C   UNL     1       0.854  10.014  19.080  0.00  0.00    +0.000 A 
ATOM     18  F   UNL     1       0.169  11.162  19.147  0.00  0.00    +0.000 F 
ATOM     19  C   UNL     1       1.386   9.604  17.864  0.00  0.00    +0.000 A 
ATOM     20  C   UNL     1       2.107   8.407  17.793  0.00  0.00    +0.000 A 
ENDBRANCH   5  14
BRANCH   1  21
ATOM     21  C   UNL     1       7.133   6.539  17.601  0.00  0.00    +0.000 C 
BRANCH  21  22
ATOM     22  C   UNL     1       7.067   8.066  17.794  0.00  0.00    +0.000 C 
BRANCH  22  23
ATOM     23  C   UNL     1       8.379   8.800  17.502  0.00  0.00    +0.000 C 
BRANCH  23  24
ATOM     24  C   UNL     1       8.739   9.738  18.665  0.00  0.00    +0.000 C 
BRANCH  24  25
ATOM     25  C   UNL     1       9.622  10.920  18.238  0.00  0.00    +0.000 C 
BRANCH  25  26
ATOM     26  C   UNL     1       8.893  12.247  18.306  0.00  0.00    +0.000 A 
ATOM     27  C   UNL     1       9.121  13.133  19.374  0.00  0.00    +0.000 A 
ATOM     28  C   UNL     1       8.392  14.320  19.479  0.00  0.00    +0.000 A 
ATOM     29  C   UNL     1       7.440  14.631  18.515  0.00  0.00    +0.000 A 
ATOM     30  F   UNL     1       6.722  15.756  18.633  0.00  0.00    +0.000 F 
ATOM     31  C   UNL     1       7.213  13.785  17.437  0.00  0.00    +0.000 A 
ATOM     32  C   UNL     1       7.938  12.597  17.334  0.00  0.00    +0.000 A 
ENDBRANCH  25  26
BRANCH  25  33
ATOM     33  O   UNL     1      10.758  11.023  19.094  0.00  0.00    +0.000 OA
ATOM     34  H   UNL     1      10.617  11.792  19.671  0.00  0.00    +0.000 HD
ENDBRANCH  25  33
ENDBRANCH  24  25
ENDBRANCH  23  24
ENDBRANCH  22  23
ENDBRANCH  21  22
ENDBRANCH   1  21
TORSDOF 8
ENDMDL
