MODEL 1
REMARK VINA RESULT:      -7.8      0.000      0.000
REMARK  Name = 
REMARK  6 active torsions:
REMARK  status: ('A' for Active; 'I' for Inactive)
REMARK    1  A    between atoms: C_1  and  C_2
REMARK    2  A    between atoms: C_2  and  O_3
REMARK    3  A    between atoms: O_3  and  C_4
REMARK    4  A    between atoms: C_4  and  C_6
REMARK    5  A    between atoms: C_10  and  N_11
REMARK    6  A    between atoms: C_20  and  C_21
REMARK                            x       y       z     vdW  Elec       q    Type
REMARK                         _______ _______ _______ _____ _____    ______ ____
ROOT
ATOM      1  C   UNL     1       4.847   3.938  17.239  0.00  0.00    +0.000 C 
ATOM      2  C   UNL     1       5.522   4.593  18.407  0.00  0.00    +0.000 C 
ATOM      3  O   UNL     1       6.738   4.468  18.597  0.00  0.00    +0.000 OA
ATOM      4  C   UNL     1       4.749   5.428  19.338  0.00  0.00    +0.000 C 
ATOM      5  C   UNL     1       3.411   5.492  19.330  0.00  0.00    +0.000 C 
ATOM      6  C   UNL     1       2.585   4.749  18.314  0.00  0.00    +0.000 C 
ATOM      7  C   UNL     1       3.309   3.816  17.319  0.00  0.00    +0.000 C 
ATOM      8  C   UNL     1       2.908   2.357  17.570  0.00  0.00    +0.000 C 
ENDROOT
BRANCH   5   9
ATOM      9  N   UNL     1       2.684   6.243  20.259  0.00  0.00    +0.000 N 
ATOM     10  C   UNL     1       2.084   7.484  19.923  0.00  0.00    +0.000 A 
ATOM     11  C   UNL     1       1.288   8.123  20.879  0.00  0.00    +0.000 A 
ATOM     12  C   UNL     1       0.650   9.324  20.555  0.00  0.00    +0.000 A 
ATOM     13  C   UNL     1       0.816   9.857  19.284  0.00  0.00    +0.000 A 
ATOM     14 CL   UNL     1       0.032  11.312  18.828  0.00  0.00    +0.000 Cl
ATOM     15  C   UNL     1       1.624   9.174  18.395  0.00  0.00    +0.000 A 
ATOM     16  N   UNL     1       2.257   8.014  18.692  0.00  0.00    +0.000 NA
ATOM     17  H   UNL     1       3.151   6.330  21.158  0.00  0.00    +0.000 HD
ENDBRANCH   5   9
BRANCH   1  18
ATOM     18  C   UNL     1       5.228   4.628  15.954  0.00  0.00    +0.000 C 
ATOM     19  O   UNL     1       5.062   5.817  15.717  0.00  0.00    +0.000 OA
BRANCH  18  20
ATOM     20  O   UNL     1       5.644   3.697  15.046  0.00  0.00    +0.000 OA
BRANCH  20  22
ATOM     21  C   UNL     1       6.020   3.507  12.692  0.00  0.00    +0.000 C 
ATOM     22  C   UNL     1       6.452   4.200  13.974  0.00  0.00    +0.000 C 
ENDBRANCH  20  22
ENDBRANCH  18  20
ENDBRANCH   1  18
TORSDOF 4
ENDMDL
MODEL 2
REMARK VINA RESULT:      -7.4      1.229      1.678
REMARK  Name = 
REMARK  6 active torsions:
REMARK  status: ('A' for Active; 'I' for Inactive)
REMARK    1  A    between atoms: C_1  and  C_2
REMARK    2  A    between atoms: C_2  and  O_3
REMARK    3  A    between atoms: O_3  and  C_4
REMARK    4  A    between atoms: C_4  and  C_6
REMARK    5  A    between atoms: C_10  and  N_11
REMARK    6  A    between atoms: C_20  and  C_21
REMARK                            x       y       z     vdW  Elec       q    Type
REMARK                         _______ _______ _______ _____ _____    ______ ____
ROOT
ATOM      1  C   UNL     1       4.288   3.715  17.695  0.00  0.00    +0.000 C 
ATOM      2  C   UNL     1       4.948   4.334  18.891  0.00  0.00    +0.000 C 
ATOM      3  O   UNL     1       6.126   4.083  19.175  0.00  0.00    +0.000 OA
ATOM      4  C   UNL     1       4.210   5.282  19.738  0.00  0.00    +0.000 C 
ATOM      5  C   UNL     1       2.892   5.493  19.628  0.00  0.00    +0.000 C 
ATOM      6  C   UNL     1       2.061   4.808  18.576  0.00  0.00    +0.000 C 
ATOM      7  C   UNL     1       2.744   3.766  17.665  0.00  0.00    +0.000 C 
ATOM      8  C   UNL     1       2.164   2.370  17.926  0.00  0.00    +0.000 C 
ENDROOT
BRANCH   5   9
ATOM      9  N   UNL     1       2.190   6.353  20.479  0.00  0.00    +0.000 N 
ATOM     10  C   UNL     1       1.788   7.653  20.076  0.00  0.00    +0.000 A 
ATOM     11  C   UNL     1       1.001   8.411  20.948  0.00  0.00    +0.000 A 
ATOM     12  C   UNL     1       0.556   9.676  20.553  0.00  0.00    +0.000 A 
ATOM     13  C   UNL     1       0.900  10.153  19.296  0.00  0.00    +0.000 A 
ATOM     14 CL   UNL     1       0.356  11.685  18.754  0.00  0.00    +0.000 Cl
ATOM     15  C   UNL     1       1.688   9.351  18.492  0.00  0.00    +0.000 A 
ATOM     16  N   UNL     1       2.135   8.127  18.859  0.00  0.00    +0.000 NA
ATOM     17  H   UNL     1       2.583   6.401  21.415  0.00  0.00    +0.000 HD
ENDBRANCH   5   9
BRANCH   1  18
ATOM     18  C   UNL     1       4.834   4.311  16.423  0.00  0.00    +0.000 C 
ATOM     19  O   UNL     1       5.568   3.734  15.634  0.00  0.00    +0.000 OA
BRANCH  18  20
ATOM     20  O   UNL     1       4.508   5.637  16.368  0.00  0.00    +0.000 OA
BRANCH  20  22
ATOM     21  C   UNL     1       6.325   7.000  17.111  0.00  0.00    +0.000 C 
ATOM     22  C   UNL     1       5.547   6.507  15.903  0.00  0.00    +0.000 C 
ENDBRANCH  20  22
ENDBRANCH  18  20
ENDBRANCH   1  18
TORSDOF 4
ENDMDL
MODEL 3
REMARK VINA RESULT:      -7.3      2.376      4.228
REMARK  Name = 
REMARK  6 active torsions:
REMARK  status: ('A' for Active; 'I' for Inactive)
REMARK    1  A    between atoms: C_1  and  C_2
REMARK    2  A    between atoms: C_2  and  O_3
REMARK    3  A    between atoms: O_3  and  C_4
REMARK    4  A    between atoms: C_4  and  C_6
REMARK    5  A    between atoms: C_10  and  N_11
REMARK    6  A    between atoms: C_20  and  C_21
REMARK                            x       y       z     vdW  Elec       q    Type
REMARK                         _______ _______ _______ _____ _____    ______ ____
ROOT
ATOM      1  C   UNL     1       4.482   3.393  18.518  0.00  0.00    +0.000 C 
ATOM      2  C   UNL     1       3.119   3.552  17.913  0.00  0.00    +0.000 C 
ATOM      3  O   UNL     1       2.465   2.570  17.541  0.00  0.00    +0.000 OA
ATOM      4  C   UNL     1       2.518   4.886  17.777  0.00  0.00    +0.000 C 
ATOM      5  C   UNL     1       3.197   6.022  17.984  0.00  0.00    +0.000 C 
ATOM      6  C   UNL     1       4.634   6.020  18.434  0.00  0.00    +0.000 C 
ATOM      7  C   UNL     1       5.359   4.664  18.566  0.00  0.00    +0.000 C 
ATOM      8  C   UNL     1       6.491   4.563  17.535  0.00  0.00    +0.000 C 
ENDROOT
BRANCH   5   9
ATOM      9  N   UNL     1       2.631   7.287  17.794  0.00  0.00    +0.000 N 
ATOM     10  C   UNL     1       1.994   7.996  18.845  0.00  0.00    +0.000 A 
ATOM     11  C   UNL     1       1.546   9.297  18.599  0.00  0.00    +0.000 A 
ATOM     12  C   UNL     1       0.955  10.030  19.633  0.00  0.00    +0.000 A 
ATOM     13  C   UNL     1       0.831   9.452  20.888  0.00  0.00    +0.000 A 
ATOM     14 CL   UNL     1       0.141  10.319  22.196  0.00  0.00    +0.000 Cl
ATOM     15  C   UNL     1       1.290   8.158  21.054  0.00  0.00    +0.000 A 
ATOM     16  N   UNL     1       1.857   7.429  20.064  0.00  0.00    +0.000 NA
ATOM     17  H   UNL     1       2.061   7.350  16.955  0.00  0.00    +0.000 HD
ENDBRANCH   5   9
BRANCH   1  18
ATOM     18  C   UNL     1       4.379   2.802  19.901  0.00  0.00    +0.000 C 
ATOM     19  O   UNL     1       4.981   1.811  20.289  0.00  0.00    +0.000 OA
BRANCH  18  20
ATOM     20  O   UNL     1       3.401   3.451  20.600  0.00  0.00    +0.000 OA
BRANCH  20  22
ATOM     21  C   UNL     1       1.138   2.885  21.120  0.00  0.00    +0.000 C 
ATOM     22  C   UNL     1       2.597   2.621  21.448  0.00  0.00    +0.000 C 
ENDBRANCH  20  22
ENDBRANCH  18  20
ENDBRANCH   1  18
TORSDOF 4
ENDMDL
MODEL 4
REMARK VINA RESULT:      -7.3      4.350      7.058
REMARK  Name = 
REMARK  6 active torsions:
REMARK  status: ('A' for Active; 'I' for Inactive)
REMARK    1  A    between atoms: C_1  and  C_2
REMARK    2  A    between atoms: C_2  and  O_3
REMARK    3  A    between atoms: O_3  and  C_4
REMARK    4  A    between atoms: C_4  and  C_6
REMARK    5  A    between atoms: C_10  and  N_11
REMARK    6  A    between atoms: C_20  and  C_21
REMARK                            x       y       z     vdW  Elec       q    Type
REMARK                         _______ _______ _______ _____ _____    ______ ____
ROOT
ATOM      1  C   UNL     1       4.945   5.508  19.092  0.00  0.00    +0.000 C 
ATOM      2  C   UNL     1       6.443   5.475  19.034  0.00  0.00    +0.000 C 
ATOM      3  O   UNL     1       7.123   5.418  20.066  0.00  0.00    +0.000 OA
ATOM      4  C   UNL     1       7.135   5.481  17.738  0.00  0.00    +0.000 C 
ATOM      5  C   UNL     1       6.514   5.714  16.574  0.00  0.00    +0.000 C 
ATOM      6  C   UNL     1       5.026   5.934  16.496  0.00  0.00    +0.000 C 
ATOM      7  C   UNL     1       4.222   5.983  17.813  0.00  0.00    +0.000 C 
ATOM      8  C   UNL     1       3.637   7.385  18.027  0.00  0.00    +0.000 C 
ENDROOT
BRANCH   5   9
ATOM      9  N   UNL     1       7.193   5.776  15.353  0.00  0.00    +0.000 N 
ATOM     10  C   UNL     1       6.941   4.859  14.300  0.00  0.00    +0.000 A 
ATOM     11  C   UNL     1       7.586   5.052  13.075  0.00  0.00    +0.000 A 
ATOM     12  C   UNL     1       7.318   4.187  12.010  0.00  0.00    +0.000 A 
ATOM     13  C   UNL     1       6.408   3.154  12.189  0.00  0.00    +0.000 A 
ATOM     14 CL   UNL     1       6.024   2.084  10.906  0.00  0.00    +0.000 Cl
ATOM     15  C   UNL     1       5.815   3.021  13.431  0.00  0.00    +0.000 A 
ATOM     16  N   UNL     1       6.067   3.843  14.476  0.00  0.00    +0.000 NA
ATOM     17  H   UNL     1       8.197   5.897  15.457  0.00  0.00    +0.000 HD
ENDBRANCH   5   9
BRANCH   1  18
ATOM     18  C   UNL     1       4.403   4.162  19.503  0.00  0.00    +0.000 C 
ATOM     19  O   UNL     1       4.991   3.097  19.372  0.00  0.00    +0.000 OA
BRANCH  18  20
ATOM     20  O   UNL     1       3.103   4.298  19.899  0.00  0.00    +0.000 OA
BRANCH  20  22
ATOM     21  C   UNL     1       1.525   3.518  18.282  0.00  0.00    +0.000 C 
ATOM     22  C   UNL     1       2.244   3.196  19.581  0.00  0.00    +0.000 C 
ENDBRANCH  20  22
ENDBRANCH  18  20
ENDBRANCH   1  18
TORSDOF 4
ENDMDL
MODEL 5
REMARK VINA RESULT:      -6.9      2.212      3.643
REMARK  Name = 
REMARK  6 active torsions:
REMARK  status: ('A' for Active; 'I' for Inactive)
REMARK    1  A    between atoms: C_1  and  C_2
REMARK    2  A    between atoms: C_2  and  O_3
REMARK    3  A    between atoms: O_3  and  C_4
REMARK    4  A    between atoms: C_4  and  C_6
REMARK    5  A    between atoms: C_10  and  N_11
REMARK    6  A    between atoms: C_20  and  C_21
REMARK                            x       y       z     vdW  Elec       q    Type
REMARK                         _______ _______ _______ _____ _____    ______ ____
ROOT
ATOM      1  C   UNL     1       3.429   4.090  17.673  0.00  0.00    +0.000 C 
ATOM      2  C   UNL     1       1.984   4.252  18.040  0.00  0.00    +0.000 C 
ATOM      3  O   UNL     1       1.101   3.594  17.474  0.00  0.00    +0.000 OA
ATOM      4  C   UNL     1       1.588   5.183  19.106  0.00  0.00    +0.000 C 
ATOM      5  C   UNL     1       2.431   6.064  19.662  0.00  0.00    +0.000 C 
ATOM      6  C   UNL     1       3.883   6.133  19.270  0.00  0.00    +0.000 C 
ATOM      7  C   UNL     1       4.380   5.219  18.129  0.00  0.00    +0.000 C 
ATOM      8  C   UNL     1       4.815   6.062  16.923  0.00  0.00    +0.000 C 
ENDROOT
BRANCH   5   9
ATOM      9  N   UNL     1       2.029   6.986  20.634  0.00  0.00    +0.000 N 
ATOM     10  C   UNL     1       1.586   8.292  20.301  0.00  0.00    +0.000 A 
ATOM     11  C   UNL     1       1.105   9.116  21.322  0.00  0.00    +0.000 A 
ATOM     12  C   UNL     1       0.622  10.390  21.011  0.00  0.00    +0.000 A 
ATOM     13  C   UNL     1       0.625  10.811  19.688  0.00  0.00    +0.000 A 
ATOM     14 CL   UNL     1       0.017  12.353  19.250  0.00  0.00    +0.000 Cl
ATOM     15  C   UNL     1       1.124   9.944  18.733  0.00  0.00    +0.000 A 
ATOM     16  N   UNL     1       1.603   8.710  19.016  0.00  0.00    +0.000 NA
ATOM     17  H   UNL     1       2.668   7.040  21.423  0.00  0.00    +0.000 HD
ENDBRANCH   5   9
BRANCH   1  18
ATOM     18  C   UNL     1       3.952   2.765  18.165  0.00  0.00    +0.000 C 
ATOM     19  O   UNL     1       3.677   1.676  17.681  0.00  0.00    +0.000 OA
BRANCH  18  20
ATOM     20  O   UNL     1       4.655   2.956  19.321  0.00  0.00    +0.000 OA
BRANCH  20  22
ATOM     21  C   UNL     1       3.106   2.632  21.113  0.00  0.00    +0.000 C 
ATOM     22  C   UNL     1       4.322   2.069  20.397  0.00  0.00    +0.000 C 
ENDBRANCH  20  22
ENDBRANCH  18  20
ENDBRANCH   1  18
TORSDOF 4
ENDMDL
MODEL 6
REMARK VINA RESULT:      -6.9      4.244      6.908
REMARK  Name = 
REMARK  6 active torsions:
REMARK  status: ('A' for Active; 'I' for Inactive)
REMARK    1  A    between atoms: C_1  and  C_2
REMARK    2  A    between atoms: C_2  and  O_3
REMARK    3  A    between atoms: O_3  and  C_4
REMARK    4  A    between atoms: C_4  and  C_6
REMARK    5  A    between atoms: C_10  and  N_11
REMARK    6  A    between atoms: C_20  and  C_21
REMARK                            x       y       z     vdW  Elec       q    Type
REMARK                         _______ _______ _______ _____ _____    ______ ____
ROOT
ATOM      1  C   UNL     1       4.754   5.704  18.984  0.00  0.00    +0.000 C 
ATOM      2  C   UNL     1       6.244   5.532  18.979  0.00  0.00    +0.000 C 
ATOM      3  O   UNL     1       6.878   5.407  20.035  0.00  0.00    +0.000 OA
ATOM      4  C   UNL     1       6.981   5.479  17.709  0.00  0.00    +0.000 C 
ATOM      5  C   UNL     1       6.427   5.773  16.525  0.00  0.00    +0.000 C 
ATOM      6  C   UNL     1       4.970   6.132  16.396  0.00  0.00    +0.000 C 
ATOM      7  C   UNL     1       4.126   6.250  17.683  0.00  0.00    +0.000 C 
ATOM      8  C   UNL     1       3.666   7.700  17.886  0.00  0.00    +0.000 C 
ENDROOT
BRANCH   5   9
ATOM      9  N   UNL     1       7.152   5.777  15.330  0.00  0.00    +0.000 N 
ATOM     10  C   UNL     1       6.889   4.856  14.282  0.00  0.00    +0.000 A 
ATOM     11  C   UNL     1       7.589   4.992  13.081  0.00  0.00    +0.000 A 
ATOM     12  C   UNL     1       7.314   4.124  12.020  0.00  0.00    +0.000 A 
ATOM     13  C   UNL     1       6.343   3.145  12.180  0.00  0.00    +0.000 A 
ATOM     14 CL   UNL     1       5.947   2.076  10.900  0.00  0.00    +0.000 Cl
ATOM     15  C   UNL     1       5.698   3.066  13.400  0.00  0.00    +0.000 A 
ATOM     16  N   UNL     1       5.956   3.892  14.442  0.00  0.00    +0.000 NA
ATOM     17  H   UNL     1       8.157   5.844  15.470  0.00  0.00    +0.000 HD
ENDBRANCH   5   9
BRANCH   1  18
ATOM     18  C   UNL     1       4.075   4.413  19.364  0.00  0.00    +0.000 C 
ATOM     19  O   UNL     1       3.238   4.291  20.248  0.00  0.00    +0.000 OA
BRANCH  18  20
ATOM     20  O   UNL     1       4.649   3.380  18.678  0.00  0.00    +0.000 OA
BRANCH  20  22
ATOM     21  C   UNL     1       3.498   1.302  18.410  0.00  0.00    +0.000 C 
ATOM     22  C   UNL     1       3.772   2.665  17.797  0.00  0.00    +0.000 C 
ENDBRANCH  20  22
ENDBRANCH  18  20
ENDBRANCH   1  18
TORSDOF 4
ENDMDL
MODEL 7
REMARK VINA RESULT:      -6.8      2.224      3.872
REMARK  Name = 
REMARK  6 active torsions:
REMARK  status: ('A' for Active; 'I' for Inactive)
REMARK    1  A    between atoms: C_1  and  C_2
REMARK    2  A    between atoms: C_2  and  O_3
REMARK    3  A    between atoms: O_3  and  C_4
REMARK    4  A    between atoms: C_4  and  C_6
REMARK    5  A    between atoms: C_10  and  N_11
REMARK    6  A    between atoms: C_20  and  C_21
REMARK                            x       y       z     vdW  Elec       q    Type
REMARK                         _______ _______ _______ _____ _____    ______ ____
ROOT
ATOM      1  C   UNL     1       4.194   4.457  17.471  0.00  0.00    +0.000 C 
ATOM      2  C   UNL     1       2.705   4.555  17.630  0.00  0.00    +0.000 C 
ATOM      3  O   UNL     1       1.986   3.549  17.563  0.00  0.00    +0.000 OA
ATOM      4  C   UNL     1       2.071   5.853  17.899  0.00  0.00    +0.000 C 
ATOM      5  C   UNL     1       2.725   7.020  17.821  0.00  0.00    +0.000 C 
ATOM      6  C   UNL     1       4.195   7.089  17.501  0.00  0.00    +0.000 C 
ATOM      7  C   UNL     1       4.936   5.777  17.166  0.00  0.00    +0.000 C 
ATOM      8  C   UNL     1       5.409   5.791  15.707  0.00  0.00    +0.000 C 
ENDROOT
BRANCH   5   9
ATOM      9  N   UNL     1       2.097   8.253  18.021  0.00  0.00    +0.000 N 
ATOM     10  C   UNL     1       1.537   8.623  19.271  0.00  0.00    +0.000 A 
ATOM     11  C   UNL     1       1.020   9.912  19.418  0.00  0.00    +0.000 A 
ATOM     12  C   UNL     1       0.504  10.313  20.654  0.00  0.00    +0.000 A 
ATOM     13  C   UNL     1       0.522   9.420  21.717  0.00  0.00    +0.000 A 
ATOM     14 CL   UNL     1      -0.071   9.872  23.260  0.00  0.00    +0.000 Cl
ATOM     15  C   UNL     1       1.042   8.159  21.494  0.00  0.00    +0.000 A 
ATOM     16  N   UNL     1       1.539   7.750  20.303  0.00  0.00    +0.000 NA
ATOM     17  H   UNL     1       1.447   8.498  17.278  0.00  0.00    +0.000 HD
ENDBRANCH   5   9
BRANCH   1  18
ATOM     18  C   UNL     1       4.811   3.803  18.681  0.00  0.00    +0.000 C 
ATOM     19  O   UNL     1       5.808   4.203  19.266  0.00  0.00    +0.000 OA
BRANCH  18  20
ATOM     20  O   UNL     1       4.179   2.617  18.927  0.00  0.00    +0.000 OA
BRANCH  20  22
ATOM     21  C   UNL     1       2.858   2.784  20.912  0.00  0.00    +0.000 C 
ATOM     22  C   UNL     1       4.130   2.219  20.303  0.00  0.00    +0.000 C 
ENDBRANCH  20  22
ENDBRANCH  18  20
ENDBRANCH   1  18
TORSDOF 4
ENDMDL
MODEL 8
REMARK VINA RESULT:      -6.8      1.632      2.103
REMARK  Name = 
REMARK  6 active torsions:
REMARK  status: ('A' for Active; 'I' for Inactive)
REMARK    1  A    between atoms: C_1  and  C_2
REMARK    2  A    between atoms: C_2  and  O_3
REMARK    3  A    between atoms: O_3  and  C_4
REMARK    4  A    between atoms: C_4  and  C_6
REMARK    5  A    between atoms: C_10  and  N_11
REMARK    6  A    between atoms: C_20  and  C_21
REMARK                            x       y       z     vdW  Elec       q    Type
REMARK                         _______ _______ _______ _____ _____    ______ ____
ROOT
ATOM      1  C   UNL     1       6.083   4.749  17.724  0.00  0.00    +0.000 C 
ATOM      2  C   UNL     1       6.367   6.204  17.953  0.00  0.00    +0.000 C 
ATOM      3  O   UNL     1       7.493   6.592  18.289  0.00  0.00    +0.000 OA
ATOM      4  C   UNL     1       5.311   7.206  17.752  0.00  0.00    +0.000 C 
ATOM      5  C   UNL     1       4.024   6.889  17.560  0.00  0.00    +0.000 C 
ATOM      6  C   UNL     1       3.561   5.459  17.476  0.00  0.00    +0.000 C 
ATOM      7  C   UNL     1       4.595   4.337  17.713  0.00  0.00    +0.000 C 
ATOM      8  C   UNL     1       4.253   3.560  18.992  0.00  0.00    +0.000 C 
ENDROOT
BRANCH   5   9
ATOM      9  N   UNL     1       3.019   7.853  17.429  0.00  0.00    +0.000 N 
ATOM     10  C   UNL     1       2.190   8.232  18.516  0.00  0.00    +0.000 A 
ATOM     11  C   UNL     1       1.278   9.274  18.331  0.00  0.00    +0.000 A 
ATOM     12  C   UNL     1       0.483   9.695  19.401  0.00  0.00    +0.000 A 
ATOM     13  C   UNL     1       0.619   9.070  20.633  0.00  0.00    +0.000 A 
ATOM     14 CL   UNL     1      -0.311   9.567  21.983  0.00  0.00    +0.000 Cl
ATOM     15  C   UNL     1       1.536   8.040  20.739  0.00  0.00    +0.000 A 
ATOM     16  N   UNL     1       2.310   7.614  19.712  0.00  0.00    +0.000 NA
ATOM     17  H   UNL     1       2.444   7.723  16.600  0.00  0.00    +0.000 HD
ENDBRANCH   5   9
BRANCH   1  18
ATOM     18  C   UNL     1       6.743   4.276  16.454  0.00  0.00    +0.000 C 
ATOM     19  O   UNL     1       7.934   4.385  16.196  0.00  0.00    +0.000 OA
BRANCH  18  20
ATOM     20  O   UNL     1       5.786   3.850  15.577  0.00  0.00    +0.000 OA
BRANCH  20  22
ATOM     21  C   UNL     1       6.098   3.639  13.217  0.00  0.00    +0.000 C 
ATOM     22  C   UNL     1       5.711   4.579  14.345  0.00  0.00    +0.000 C 
ENDBRANCH  20  22
ENDBRANCH  18  20
ENDBRANCH   1  18
TORSDOF 4
ENDMDL
MODEL 9
REMARK VINA RESULT:      -6.8      2.225      3.617
REMARK  Name = 
REMARK  6 active torsions:
REMARK  status: ('A' for Active; 'I' for Inactive)
REMARK    1  A    between atoms: C_1  and  C_2
REMARK    2  A    between atoms: C_2  and  O_3
REMARK    3  A    between atoms: O_3  and  C_4
REMARK    4  A    between atoms: C_4  and  C_6
REMARK    5  A    between atoms: C_10  and  N_11
REMARK    6  A    between atoms: C_20  and  C_21
REMARK                            x       y       z     vdW  Elec       q    Type
REMARK                         _______ _______ _______ _____ _____    ______ ____
ROOT
ATOM      1  C   UNL     1       4.497   4.824  17.727  0.00  0.00    +0.000 C 
ATOM      2  C   UNL     1       3.046   4.773  18.104  0.00  0.00    +0.000 C 
ATOM      3  O   UNL     1       2.476   3.695  18.314  0.00  0.00    +0.000 OA
ATOM      4  C   UNL     1       2.276   6.015  18.261  0.00  0.00    +0.000 C 
ATOM      5  C   UNL     1       2.738   7.218  17.895  0.00  0.00    +0.000 C 
ATOM      6  C   UNL     1       4.125   7.401  17.338  0.00  0.00    +0.000 C 
ATOM      7  C   UNL     1       4.993   6.146  17.102  0.00  0.00    +0.000 C 
ATOM      8  C   UNL     1       5.255   5.955  15.602  0.00  0.00    +0.000 C 
ENDROOT
BRANCH   5   9
ATOM      9  N   UNL     1       1.974   8.385  17.994  0.00  0.00    +0.000 N 
ATOM     10  C   UNL     1       1.387   8.803  19.216  0.00  0.00    +0.000 A 
ATOM     11  C   UNL     1       0.725  10.033  19.254  0.00  0.00    +0.000 A 
ATOM     12  C   UNL     1       0.179  10.485  20.459  0.00  0.00    +0.000 A 
ATOM     13  C   UNL     1       0.311   9.704  21.599  0.00  0.00    +0.000 A 
ATOM     14 CL   UNL     1      -0.316  10.227  23.106  0.00  0.00    +0.000 Cl
ATOM     15  C   UNL     1       0.971   8.495  21.482  0.00  0.00    +0.000 A 
ATOM     16  N   UNL     1       1.500   8.036  20.323  0.00  0.00    +0.000 NA
ATOM     17  H   UNL     1       1.292   8.483  17.246  0.00  0.00    +0.000 HD
ENDBRANCH   5   9
BRANCH   1  18
ATOM     18  C   UNL     1       5.362   4.474  18.911  0.00  0.00    +0.000 C 
ATOM     19  O   UNL     1       5.406   3.377  19.451  0.00  0.00    +0.000 OA
BRANCH  18  20
ATOM     20  O   UNL     1       5.969   5.605  19.379  0.00  0.00    +0.000 OA
BRANCH  20  22
ATOM     21  C   UNL     1       8.030   6.596  18.683  0.00  0.00    +0.000 C 
ATOM     22  C   UNL     1       7.391   5.518  19.542  0.00  0.00    +0.000 C 
ENDBRANCH  20  22
ENDBRANCH  18  20
ENDBRANCH   1  18
TORSDOF 4
ENDMDL
