MODEL 1
REMARK VINA RESULT:      -8.0      0.000      0.000
REMARK  Name = 
REMARK  6 active torsions:
REMARK  status: ('A' for Active; 'I' for Inactive)
REMARK    1  A    between atoms: C_1  and  C_2
REMARK    2  A    between atoms: C_4  and  C_5
REMARK    3  A    between atoms: C_6  and  C_7
REMARK    4  A    between atoms: C_10  and  C_11
REMARK    5  A    between atoms: C_14  and  O_15
REMARK    6  A    between atoms: O_15  and  C_16
REMARK                            x       y       z     vdW  Elec       q    Type
REMARK                         _______ _______ _______ _____ _____    ______ ____
ROOT
ATOM      1  C   UNL     1       1.076  10.939  19.046  0.00  0.00    +0.000 A 
ATOM      2  C   UNL     1       0.779  10.140  20.147  0.00  0.00    +0.000 A 
ATOM      3  C   UNL     1       1.202   8.815  20.160  0.00  0.00    +0.000 A 
ATOM      4  C   UNL     1       1.909   8.306  19.069  0.00  0.00    +0.000 A 
ATOM      5  N   UNL     1       2.217   9.077  17.994  0.00  0.00    +0.000 NA
ATOM      6  C   UNL     1       1.783  10.361  18.000  0.00  0.00    +0.000 A 
ENDROOT
BRANCH   1  12
ATOM      7  C   UNL     1      -0.507  16.511  18.709  0.00  0.00    +0.000 C 
ATOM      8  C   UNL     1       0.003  15.103  18.887  0.00  0.00    +0.000 A 
ATOM      9  N   UNL     1      -0.841  14.091  18.472  0.00  0.00    +0.000 N 
ATOM     10  C   UNL     1      -0.519  12.750  18.532  0.00  0.00    +0.000 A 
ATOM     11  C   UNL     1      -1.554  11.782  18.007  0.00  0.00    +0.000 C 
ATOM     12  C   UNL     1       0.669  12.346  19.031  0.00  0.00    +0.000 A 
ATOM     13  C   UNL     1       1.625  13.394  19.532  0.00  0.00    +0.000 A 
ATOM     14  O   UNL     1       2.707  13.066  20.013  0.00  0.00    +0.000 OA
ATOM     15  C   UNL     1       1.213  14.836  19.417  0.00  0.00    +0.000 A 
ATOM     16 BR   UNL     1       2.426  16.127  20.014  0.00  0.00    +0.000 Br
ATOM     17  H   UNL     1      -1.735  14.348  18.058  0.00  0.00    +0.000 HD
ENDBRANCH   1  12
BRANCH   4  18
ATOM     18  C   UNL     1       2.381   6.910  19.035  0.00  0.00    +0.000 A 
ATOM     19  C   UNL     1       2.113   6.022  20.092  0.00  0.00    +0.000 A 
ATOM     20  C   UNL     1       2.607   4.716  20.081  0.00  0.00    +0.000 A 
ATOM     21  C   UNL     1       3.360   4.250  19.005  0.00  0.00    +0.000 A 
ATOM     22  C   UNL     1       3.651   5.118  17.956  0.00  0.00    +0.000 A 
ATOM     23  C   UNL     1       3.145   6.425  17.962  0.00  0.00    +0.000 A 
BRANCH  21  24
ATOM     24  O   UNL     1       3.806   2.973  19.136  0.00  0.00    +0.000 OA
BRANCH  24  25
ATOM     25  C   UNL     1       3.061   1.909  18.562  0.00  0.00    +0.000 C 
ATOM     26  F   UNL     1       2.554   2.166  17.340  0.00  0.00    +0.000 F 
ATOM     27  F   UNL     1       3.854   0.818  18.478  0.00  0.00    +0.000 F 
ATOM     28  F   UNL     1       2.030   1.614  19.385  0.00  0.00    +0.000 F 
ENDBRANCH  24  25
ENDBRANCH  21  24
ENDBRANCH   4  18
TORSDOF 4
ENDMDL
MODEL 2
REMARK VINA RESULT:      -7.9      0.574      1.198
REMARK  Name = 
REMARK  6 active torsions:
REMARK  status: ('A' for Active; 'I' for Inactive)
REMARK    1  A    between atoms: C_1  and  C_2
REMARK    2  A    between atoms: C_4  and  C_5
REMARK    3  A    between atoms: C_6  and  C_7
REMARK    4  A    between atoms: C_10  and  C_11
REMARK    5  A    between atoms: C_14  and  O_15
REMARK    6  A    between atoms: O_15  and  C_16
REMARK                            x       y       z     vdW  Elec       q    Type
REMARK                         _______ _______ _______ _____ _____    ______ ____
ROOT
ATOM      1  C   UNL     1       1.144  10.875  19.136  0.00  0.00    +0.000 A 
ATOM      2  C   UNL     1       1.806  10.429  17.995  0.00  0.00    +0.000 A 
ATOM      3  C   UNL     1       2.251   9.113  17.938  0.00  0.00    +0.000 A 
ATOM      4  C   UNL     1       2.034   8.264  19.025  0.00  0.00    +0.000 A 
ATOM      5  N   UNL     1       1.379   8.682  20.139  0.00  0.00    +0.000 NA
ATOM      6  C   UNL     1       0.966   9.972  20.175  0.00  0.00    +0.000 A 
ENDROOT
BRANCH   1  12
ATOM      7  C   UNL     1      -0.830  16.332  19.102  0.00  0.00    +0.000 C 
ATOM      8  C   UNL     1      -0.223  14.955  19.206  0.00  0.00    +0.000 A 
ATOM      9  N   UNL     1      -0.982  13.914  18.706  0.00  0.00    +0.000 N 
ATOM     10  C   UNL     1      -0.566  12.599  18.691  0.00  0.00    +0.000 A 
ATOM     11  C   UNL     1      -1.516  11.596  18.078  0.00  0.00    +0.000 C 
ATOM     12  C   UNL     1       0.637  12.248  19.197  0.00  0.00    +0.000 A 
ATOM     13  C   UNL     1       1.502  13.327  19.789  0.00  0.00    +0.000 A 
ATOM     14  O   UNL     1       2.593  13.046  20.278  0.00  0.00    +0.000 OA
ATOM     15  C   UNL     1       0.990  14.741  19.752  0.00  0.00    +0.000 A 
ATOM     16 BR   UNL     1       2.092  16.074  20.463  0.00  0.00    +0.000 Br
ATOM     17  H   UNL     1      -1.882  14.134  18.284  0.00  0.00    +0.000 HD
ENDBRANCH   1  12
BRANCH   4  18
ATOM     18  C   UNL     1       2.485   6.860  19.013  0.00  0.00    +0.000 A 
ATOM     19  C   UNL     1       2.094   5.959  20.019  0.00  0.00    +0.000 A 
ATOM     20  C   UNL     1       2.564   4.645  20.035  0.00  0.00    +0.000 A 
ATOM     21  C   UNL     1       3.419   4.184  19.034  0.00  0.00    +0.000 A 
ATOM     22  C   UNL     1       3.831   5.065  18.039  0.00  0.00    +0.000 A 
ATOM     23  C   UNL     1       3.349   6.380  18.017  0.00  0.00    +0.000 A 
BRANCH  21  24
ATOM     24  O   UNL     1       3.828   2.898  19.186  0.00  0.00    +0.000 OA
BRANCH  24  25
ATOM     25  C   UNL     1       3.081   1.849  18.586  0.00  0.00    +0.000 C 
ATOM     26  F   UNL     1       3.764   0.704  18.395  0.00  0.00    +0.000 F 
ATOM     27  F   UNL     1       2.004   1.584  19.359  0.00  0.00    +0.000 F 
ATOM     28  F   UNL     1       2.637   2.274  17.382  0.00  0.00    +0.000 F 
ENDBRANCH  24  25
ENDBRANCH  21  24
ENDBRANCH   4  18
TORSDOF 4
ENDMDL
MODEL 3
REMARK VINA RESULT:      -7.8      1.062      1.276
REMARK  Name = 
REMARK  6 active torsions:
REMARK  status: ('A' for Active; 'I' for Inactive)
REMARK    1  A    between atoms: C_1  and  C_2
REMARK    2  A    between atoms: C_4  and  C_5
REMARK    3  A    between atoms: C_6  and  C_7
REMARK    4  A    between atoms: C_10  and  C_11
REMARK    5  A    between atoms: C_14  and  O_15
REMARK    6  A    between atoms: O_15  and  C_16
REMARK                            x       y       z     vdW  Elec       q    Type
REMARK                         _______ _______ _______ _____ _____    ______ ____
ROOT
ATOM      1  C   UNL     1       0.766  10.738  19.745  0.00  0.00    +0.000 A 
ATOM      2  C   UNL     1       1.341  10.383  18.528  0.00  0.00    +0.000 A 
ATOM      3  C   UNL     1       1.838   9.095  18.361  0.00  0.00    +0.000 A 
ATOM      4  C   UNL     1       1.760   8.183  19.415  0.00  0.00    +0.000 A 
ATOM      5  N   UNL     1       1.190   8.512  20.603  0.00  0.00    +0.000 NA
ATOM      6  C   UNL     1       0.724   9.777  20.746  0.00  0.00    +0.000 A 
ENDROOT
BRANCH   1  12
ATOM      7  C   UNL     1      -1.423  16.094  20.185  0.00  0.00    +0.000 C 
ATOM      8  C   UNL     1      -0.762  14.739  20.170  0.00  0.00    +0.000 A 
ATOM      9  N   UNL     1      -1.481  13.715  19.582  0.00  0.00    +0.000 N 
ATOM     10  C   UNL     1      -1.013  12.423  19.454  0.00  0.00    +0.000 A 
ATOM     11  C   UNL     1      -1.925  11.440  18.758  0.00  0.00    +0.000 C 
ATOM     12  C   UNL     1       0.205  12.079  19.926  0.00  0.00    +0.000 A 
ATOM     13  C   UNL     1       1.030  13.137  20.607  0.00  0.00    +0.000 A 
ATOM     14  O   UNL     1       2.134  12.859  21.068  0.00  0.00    +0.000 OA
ATOM     15  C   UNL     1       0.462  14.527  20.693  0.00  0.00    +0.000 A 
ATOM     16 BR   UNL     1       1.514  15.837  21.514  0.00  0.00    +0.000 Br
ATOM     17  H   UNL     1      -2.391  13.934  19.183  0.00  0.00    +0.000 HD
ENDBRANCH   1  12
BRANCH   4  18
ATOM     18  C   UNL     1       2.270   6.806  19.288  0.00  0.00    +0.000 A 
ATOM     19  C   UNL     1       2.067   5.854  20.302  0.00  0.00    +0.000 A 
ATOM     20  C   UNL     1       2.597   4.567  20.203  0.00  0.00    +0.000 A 
ATOM     21  C   UNL     1       3.324   4.183  19.077  0.00  0.00    +0.000 A 
ATOM     22  C   UNL     1       3.551   5.115  18.068  0.00  0.00    +0.000 A 
ATOM     23  C   UNL     1       3.008   6.403  18.164  0.00  0.00    +0.000 A 
BRANCH  21  24
ATOM     24  O   UNL     1       3.810   2.915  19.122  0.00  0.00    +0.000 OA
BRANCH  24  25
ATOM     25  C   UNL     1       3.069   1.859  18.530  0.00  0.00    +0.000 C 
ATOM     26  F   UNL     1       2.554   2.139  17.316  0.00  0.00    +0.000 F 
ATOM     27  F   UNL     1       3.869   0.775  18.418  0.00  0.00    +0.000 F 
ATOM     28  F   UNL     1       2.044   1.540  19.352  0.00  0.00    +0.000 F 
ENDBRANCH  24  25
ENDBRANCH  21  24
ENDBRANCH   4  18
TORSDOF 4
ENDMDL
MODEL 4
REMARK VINA RESULT:      -7.8      0.852      1.526
REMARK  Name = 
REMARK  6 active torsions:
REMARK  status: ('A' for Active; 'I' for Inactive)
REMARK    1  A    between atoms: C_1  and  C_2
REMARK    2  A    between atoms: C_4  and  C_5
REMARK    3  A    between atoms: C_6  and  C_7
REMARK    4  A    between atoms: C_10  and  C_11
REMARK    5  A    between atoms: C_14  and  O_15
REMARK    6  A    between atoms: O_15  and  C_16
REMARK                            x       y       z     vdW  Elec       q    Type
REMARK                         _______ _______ _______ _____ _____    ______ ____
ROOT
ATOM      1  C   UNL     1       1.124  11.313  19.127  0.00  0.00    +0.000 A 
ATOM      2  C   UNL     1       1.789  10.745  18.043  0.00  0.00    +0.000 A 
ATOM      3  C   UNL     1       2.110   9.391  18.075  0.00  0.00    +0.000 A 
ATOM      4  C   UNL     1       1.767   8.628  19.192  0.00  0.00    +0.000 A 
ATOM      5  N   UNL     1       1.107   9.166  20.251  0.00  0.00    +0.000 NA
ATOM      6  C   UNL     1       0.817  10.489  20.201  0.00  0.00    +0.000 A 
ENDROOT
BRANCH   1  12
ATOM      7  C   UNL     1      -0.343  16.912  18.717  0.00  0.00    +0.000 C 
ATOM      8  C   UNL     1       0.139  15.496  18.912  0.00  0.00    +0.000 A 
ATOM      9  N   UNL     1      -0.731  14.495  18.524  0.00  0.00    +0.000 N 
ATOM     10  C   UNL     1      -0.438  13.149  18.602  0.00  0.00    +0.000 A 
ATOM     11  C   UNL     1      -1.500  12.196  18.106  0.00  0.00    +0.000 C 
ATOM     12  C   UNL     1       0.748  12.727  19.094  0.00  0.00    +0.000 A 
ATOM     13  C   UNL     1       1.732  13.763  19.566  0.00  0.00    +0.000 A 
ATOM     14  O   UNL     1       2.813  13.419  20.039  0.00  0.00    +0.000 OA
ATOM     15  C   UNL     1       1.350  15.212  19.432  0.00  0.00    +0.000 A 
ATOM     16 BR   UNL     1       2.598  16.486  19.993  0.00  0.00    +0.000 Br
ATOM     17  H   UNL     1      -1.624  14.766  18.117  0.00  0.00    +0.000 HD
ENDBRANCH   1  12
BRANCH   4  18
ATOM     18  C   UNL     1       2.082   7.190  19.274  0.00  0.00    +0.000 A 
ATOM     19  C   UNL     1       2.645   6.502  18.185  0.00  0.00    +0.000 A 
ATOM     20  C   UNL     1       2.893   5.129  18.247  0.00  0.00    +0.000 A 
ATOM     21  C   UNL     1       2.611   4.409  19.406  0.00  0.00    +0.000 A 
ATOM     22  C   UNL     1       2.038   5.067  20.490  0.00  0.00    +0.000 A 
ATOM     23  C   UNL     1       1.800   6.447  20.432  0.00  0.00    +0.000 A 
BRANCH  21  24
ATOM     24  O   UNL     1       2.869   3.077  19.323  0.00  0.00    +0.000 OA
BRANCH  24  25
ATOM     25  C   UNL     1       1.940   2.223  18.670  0.00  0.00    +0.000 C 
ATOM     26  F   UNL     1       0.714   2.752  18.489  0.00  0.00    +0.000 F 
ATOM     27  F   UNL     1       2.441   1.876  17.464  0.00  0.00    +0.000 F 
ATOM     28  F   UNL     1       1.802   1.098  19.407  0.00  0.00    +0.000 F 
ENDBRANCH  24  25
ENDBRANCH  21  24
ENDBRANCH   4  18
TORSDOF 4
ENDMDL
MODEL 5
REMARK VINA RESULT:      -7.7      1.105      1.698
REMARK  Name = 
REMARK  6 active torsions:
REMARK  status: ('A' for Active; 'I' for Inactive)
REMARK    1  A    between atoms: C_1  and  C_2
REMARK    2  A    between atoms: C_4  and  C_5
REMARK    3  A    between atoms: C_6  and  C_7
REMARK    4  A    between atoms: C_10  and  C_11
REMARK    5  A    between atoms: C_14  and  O_15
REMARK    6  A    between atoms: O_15  and  C_16
REMARK                            x       y       z     vdW  Elec       q    Type
REMARK                         _______ _______ _______ _____ _____    ______ ____
ROOT
ATOM      1  C   UNL     1       1.090  11.093  19.098  0.00  0.00    +0.000 A 
ATOM      2  C   UNL     1       1.733  10.510  18.010  0.00  0.00    +0.000 A 
ATOM      3  C   UNL     1       2.059   9.158  18.056  0.00  0.00    +0.000 A 
ATOM      4  C   UNL     1       1.744   8.412  19.193  0.00  0.00    +0.000 A 
ATOM      5  N   UNL     1       1.105   8.965  20.257  0.00  0.00    +0.000 NA
ATOM      6  C   UNL     1       0.810  10.285  20.192  0.00  0.00    +0.000 A 
ENDROOT
BRANCH   1  12
ATOM      7  C   UNL     1      -0.397  16.683  18.632  0.00  0.00    +0.000 C 
ATOM      8  C   UNL     1       0.089  15.270  18.844  0.00  0.00    +0.000 A 
ATOM      9  N   UNL     1      -0.771  14.263  18.449  0.00  0.00    +0.000 N 
ATOM     10  C   UNL     1      -0.473  12.919  18.539  0.00  0.00    +0.000 A 
ATOM     11  C   UNL     1      -1.523  11.958  18.033  0.00  0.00    +0.000 C 
ATOM     12  C   UNL     1       0.707  12.506  19.051  0.00  0.00    +0.000 A 
ATOM     13  C   UNL     1       1.680  13.549  19.532  0.00  0.00    +0.000 A 
ATOM     14  O   UNL     1       2.754  13.213  20.023  0.00  0.00    +0.000 OA
ATOM     15  C   UNL     1       1.293  14.995  19.383  0.00  0.00    +0.000 A 
ATOM     16 BR   UNL     1       2.526  16.278  19.955  0.00  0.00    +0.000 Br
ATOM     17  H   UNL     1      -1.659  14.527  18.026  0.00  0.00    +0.000 HD
ENDBRANCH   1  12
BRANCH   4  18
ATOM     18  C   UNL     1       2.066   6.977  19.290  0.00  0.00    +0.000 A 
ATOM     19  C   UNL     1       2.516   6.250  18.174  0.00  0.00    +0.000 A 
ATOM     20  C   UNL     1       2.769   4.880  18.256  0.00  0.00    +0.000 A 
ATOM     21  C   UNL     1       2.606   4.199  19.462  0.00  0.00    +0.000 A 
ATOM     22  C   UNL     1       2.146   4.896  20.576  0.00  0.00    +0.000 A 
ATOM     23  C   UNL     1       1.903   6.273  20.495  0.00  0.00    +0.000 A 
BRANCH  21  24
ATOM     24  O   UNL     1       2.854   2.865  19.397  0.00  0.00    +0.000 OA
BRANCH  24  25
ATOM     25  C   UNL     1       4.085   2.357  19.892  0.00  0.00    +0.000 C 
ATOM     26  F   UNL     1       4.484   1.197  19.333  0.00  0.00    +0.000 F 
ATOM     27  F   UNL     1       5.049   3.284  19.696  0.00  0.00    +0.000 F 
ATOM     28  F   UNL     1       3.962   2.156  21.223  0.00  0.00    +0.000 F 
ENDBRANCH  24  25
ENDBRANCH  21  24
ENDBRANCH   4  18
TORSDOF 4
ENDMDL
MODEL 6
REMARK VINA RESULT:      -7.7      1.111      1.755
REMARK  Name = 
REMARK  6 active torsions:
REMARK  status: ('A' for Active; 'I' for Inactive)
REMARK    1  A    between atoms: C_1  and  C_2
REMARK    2  A    between atoms: C_4  and  C_5
REMARK    3  A    between atoms: C_6  and  C_7
REMARK    4  A    between atoms: C_10  and  C_11
REMARK    5  A    between atoms: C_14  and  O_15
REMARK    6  A    between atoms: O_15  and  C_16
REMARK                            x       y       z     vdW  Elec       q    Type
REMARK                         _______ _______ _______ _____ _____    ______ ____
ROOT
ATOM      1  C   UNL     1       0.777  10.686  19.696  0.00  0.00    +0.000 A 
ATOM      2  C   UNL     1       1.392  10.381  18.485  0.00  0.00    +0.000 A 
ATOM      3  C   UNL     1       1.958   9.122  18.307  0.00  0.00    +0.000 A 
ATOM      4  C   UNL     1       1.905   8.190  19.345  0.00  0.00    +0.000 A 
ATOM      5  N   UNL     1       1.298   8.470  20.527  0.00  0.00    +0.000 NA
ATOM      6  C   UNL     1       0.766   9.707  20.680  0.00  0.00    +0.000 A 
ENDROOT
BRANCH   1  12
ATOM      7  C   UNL     1      -1.688  15.917  20.177  0.00  0.00    +0.000 C 
ATOM      8  C   UNL     1      -0.959  14.597  20.153  0.00  0.00    +0.000 A 
ATOM      9  N   UNL     1      -1.614  13.549  19.535  0.00  0.00    +0.000 N 
ATOM     10  C   UNL     1      -1.078  12.284  19.396  0.00  0.00    +0.000 A 
ATOM     11  C   UNL     1      -1.926  11.268  18.666  0.00  0.00    +0.000 C 
ATOM     12  C   UNL     1       0.146  11.994  19.887  0.00  0.00    +0.000 A 
ATOM     13  C   UNL     1       0.903  13.080  20.601  0.00  0.00    +0.000 A 
ATOM     14  O   UNL     1       2.011  12.850  21.080  0.00  0.00    +0.000 OA
ATOM     15  C   UNL     1       0.264  14.438  20.698  0.00  0.00    +0.000 A 
ATOM     16 BR   UNL     1       1.232  15.785  21.560  0.00  0.00    +0.000 Br
ATOM     17  H   UNL     1      -2.526  13.728  19.121  0.00  0.00    +0.000 HD
ENDBRANCH   1  12
BRANCH   4  18
ATOM     18  C   UNL     1       2.487   6.843  19.206  0.00  0.00    +0.000 A 
ATOM     19  C   UNL     1       3.243   6.486  18.076  0.00  0.00    +0.000 A 
ATOM     20  C   UNL     1       3.748   5.193  17.922  0.00  0.00    +0.000 A 
ATOM     21  C   UNL     1       3.535   4.227  18.903  0.00  0.00    +0.000 A 
ATOM     22  C   UNL     1       2.776   4.555  20.023  0.00  0.00    +0.000 A 
ATOM     23  C   UNL     1       2.280   5.855  20.182  0.00  0.00    +0.000 A 
BRANCH  21  24
ATOM     24  O   UNL     1       4.051   3.003  18.615  0.00  0.00    +0.000 OA
BRANCH  24  25
ATOM     25  C   UNL     1       3.174   1.918  18.351  0.00  0.00    +0.000 C 
ATOM     26  F   UNL     1       3.785   0.736  18.131  0.00  0.00    +0.000 F 
ATOM     27  F   UNL     1       2.328   1.777  19.395  0.00  0.00    +0.000 F 
ATOM     28  F   UNL     1       2.441   2.215  17.255  0.00  0.00    +0.000 F 
ENDBRANCH  24  25
ENDBRANCH  21  24
ENDBRANCH   4  18
TORSDOF 4
ENDMDL
MODEL 7
REMARK VINA RESULT:      -7.7      2.765      3.224
REMARK  Name = 
REMARK  6 active torsions:
REMARK  status: ('A' for Active; 'I' for Inactive)
REMARK    1  A    between atoms: C_1  and  C_2
REMARK    2  A    between atoms: C_4  and  C_5
REMARK    3  A    between atoms: C_6  and  C_7
REMARK    4  A    between atoms: C_10  and  C_11
REMARK    5  A    between atoms: C_14  and  O_15
REMARK    6  A    between atoms: O_15  and  C_16
REMARK                            x       y       z     vdW  Elec       q    Type
REMARK                         _______ _______ _______ _____ _____    ______ ____
ROOT
ATOM      1  C   UNL     1       0.697  10.001  19.276  0.00  0.00    +0.000 A 
ATOM      2  C   UNL     1       0.976   8.925  20.114  0.00  0.00    +0.000 A 
ATOM      3  C   UNL     1       1.836   7.925  19.674  0.00  0.00    +0.000 A 
ATOM      4  C   UNL     1       2.400   8.012  18.400  0.00  0.00    +0.000 A 
ATOM      5  N   UNL     1       2.146   9.062  17.576  0.00  0.00    +0.000 NA
ATOM      6  C   UNL     1       1.295  10.017  18.024  0.00  0.00    +0.000 A 
ENDROOT
BRANCH   1  12
ATOM      7  C   UNL     1      -2.756  14.391  20.849  0.00  0.00    +0.000 C 
ATOM      8  C   UNL     1      -1.777  13.284  20.549  0.00  0.00    +0.000 A 
ATOM      9  N   UNL     1      -2.227  12.281  19.711  0.00  0.00    +0.000 N 
ATOM     10  C   UNL     1      -1.452  11.213  19.307  0.00  0.00    +0.000 A 
ATOM     11  C   UNL     1      -2.101  10.225  18.365  0.00  0.00    +0.000 C 
ATOM     12  C   UNL     1      -0.179  11.080  19.738  0.00  0.00    +0.000 A 
ATOM     13  C   UNL     1       0.367  12.119  20.679  0.00  0.00    +0.000 A 
ATOM     14  O   UNL     1       1.513  12.023  21.110  0.00  0.00    +0.000 OA
ATOM     15  C   UNL     1      -0.530  13.265  21.061  0.00  0.00    +0.000 A 
ATOM     16 BR   UNL     1       0.174  14.564  22.205  0.00  0.00    +0.000 Br
ATOM     17  H   UNL     1      -3.170  12.355  19.334  0.00  0.00    +0.000 HD
ENDBRANCH   1  12
BRANCH   4  18
ATOM     18  C   UNL     1       3.319   6.980  17.887  0.00  0.00    +0.000 A 
ATOM     19  C   UNL     1       4.537   7.324  17.274  0.00  0.00    +0.000 A 
ATOM     20  C   UNL     1       5.380   6.347  16.742  0.00  0.00    +0.000 A 
ATOM     21  C   UNL     1       5.046   4.997  16.828  0.00  0.00    +0.000 A 
ATOM     22  C   UNL     1       3.838   4.635  17.416  0.00  0.00    +0.000 A 
ATOM     23  C   UNL     1       2.997   5.615  17.960  0.00  0.00    +0.000 A 
BRANCH  21  24
ATOM     24  O   UNL     1       5.936   4.154  16.242  0.00  0.00    +0.000 OA
BRANCH  24  25
ATOM     25  C   UNL     1       6.202   4.272  14.852  0.00  0.00    +0.000 C 
ATOM     26  F   UNL     1       5.251   4.913  14.145  0.00  0.00    +0.000 F 
ATOM     27  F   UNL     1       7.374   4.925  14.687  0.00  0.00    +0.000 F 
ATOM     28  F   UNL     1       6.338   3.030  14.335  0.00  0.00    +0.000 F 
ENDBRANCH  24  25
ENDBRANCH  21  24
ENDBRANCH   4  18
TORSDOF 4
ENDMDL
MODEL 8
REMARK VINA RESULT:      -7.6      0.922      1.180
REMARK  Name = 
REMARK  6 active torsions:
REMARK  status: ('A' for Active; 'I' for Inactive)
REMARK    1  A    between atoms: C_1  and  C_2
REMARK    2  A    between atoms: C_4  and  C_5
REMARK    3  A    between atoms: C_6  and  C_7
REMARK    4  A    between atoms: C_10  and  C_11
REMARK    5  A    between atoms: C_14  and  O_15
REMARK    6  A    between atoms: O_15  and  C_16
REMARK                            x       y       z     vdW  Elec       q    Type
REMARK                         _______ _______ _______ _____ _____    ______ ____
ROOT
ATOM      1  C   UNL     1       0.657  10.714  19.923  0.00  0.00    +0.000 A 
ATOM      2  C   UNL     1       0.537   9.849  21.007  0.00  0.00    +0.000 A 
ATOM      3  C   UNL     1       1.041   8.556  20.905  0.00  0.00    +0.000 A 
ATOM      4  C   UNL     1       1.650   8.145  19.718  0.00  0.00    +0.000 A 
ATOM      5  N   UNL     1       1.784   8.982  18.657  0.00  0.00    +0.000 NA
ATOM      6  C   UNL     1       1.275  10.232  18.777  0.00  0.00    +0.000 A 
ENDROOT
BRANCH   1  12
ATOM      7  C   UNL     1      -1.261  16.189  20.054  0.00  0.00    +0.000 C 
ATOM      8  C   UNL     1      -0.668  14.803  20.116  0.00  0.00    +0.000 A 
ATOM      9  N   UNL     1      -1.441  13.784  19.593  0.00  0.00    +0.000 N 
ATOM     10  C   UNL     1      -1.038  12.466  19.539  0.00  0.00    +0.000 A 
ATOM     11  C   UNL     1      -2.003  11.489  18.906  0.00  0.00    +0.000 C 
ATOM     12  C   UNL     1       0.164  12.089  20.026  0.00  0.00    +0.000 A 
ATOM     13  C   UNL     1       1.045  13.143  20.640  0.00  0.00    +0.000 A 
ATOM     14  O   UNL     1       2.137  12.838  21.113  0.00  0.00    +0.000 OA
ATOM     15  C   UNL     1       0.547  14.562  20.646  0.00  0.00    +0.000 A 
ATOM     16 BR   UNL     1       1.668  15.864  21.384  0.00  0.00    +0.000 Br
ATOM     17  H   UNL     1      -2.342  14.025  19.185  0.00  0.00    +0.000 HD
ENDBRANCH   1  12
BRANCH   4  18
ATOM     18  C   UNL     1       2.201   6.787  19.560  0.00  0.00    +0.000 A 
ATOM     19  C   UNL     1       1.891   5.762  20.470  0.00  0.00    +0.000 A 
ATOM     20  C   UNL     1       2.456   4.491  20.349  0.00  0.00    +0.000 A 
ATOM     21  C   UNL     1       3.327   4.199  19.300  0.00  0.00    +0.000 A 
ATOM     22  C   UNL     1       3.660   5.204  18.397  0.00  0.00    +0.000 A 
ATOM     23  C   UNL     1       3.083   6.476  18.513  0.00  0.00    +0.000 A 
BRANCH  21  24
ATOM     24  O   UNL     1       3.830   2.937  19.317  0.00  0.00    +0.000 OA
BRANCH  24  25
ATOM     25  C   UNL     1       3.151   1.902  18.620  0.00  0.00    +0.000 C 
ATOM     26  F   UNL     1       3.900   0.815  18.350  0.00  0.00    +0.000 F 
ATOM     27  F   UNL     1       2.080   1.517  19.349  0.00  0.00    +0.000 F 
ATOM     28  F   UNL     1       2.702   2.399  17.446  0.00  0.00    +0.000 F 
ENDBRANCH  24  25
ENDBRANCH  21  24
ENDBRANCH   4  18
TORSDOF 4
ENDMDL
MODEL 9
REMARK VINA RESULT:      -7.5      0.985      1.506
REMARK  Name = 
REMARK  6 active torsions:
REMARK  status: ('A' for Active; 'I' for Inactive)
REMARK    1  A    between atoms: C_1  and  C_2
REMARK    2  A    between atoms: C_4  and  C_5
REMARK    3  A    between atoms: C_6  and  C_7
REMARK    4  A    between atoms: C_10  and  C_11
REMARK    5  A    between atoms: C_14  and  O_15
REMARK    6  A    between atoms: O_15  and  C_16
REMARK                            x       y       z     vdW  Elec       q    Type
REMARK                         _______ _______ _______ _____ _____    ______ ____
ROOT
ATOM      1  C   UNL     1       1.019  11.186  19.205  0.00  0.00    +0.000 A 
ATOM      2  C   UNL     1       0.664  10.449  20.332  0.00  0.00    +0.000 A 
ATOM      3  C   UNL     1       0.987   9.098  20.391  0.00  0.00    +0.000 A 
ATOM      4  C   UNL     1       1.654   8.501  19.320  0.00  0.00    +0.000 A 
ATOM      5  N   UNL     1       2.018   9.210  18.220  0.00  0.00    +0.000 NA
ATOM      6  C   UNL     1       1.680  10.522  18.181  0.00  0.00    +0.000 A 
ENDROOT
BRANCH   1  12
ATOM      7  C   UNL     1      -0.134  16.848  18.677  0.00  0.00    +0.000 C 
ATOM      8  C   UNL     1       0.264  15.412  18.908  0.00  0.00    +0.000 A 
ATOM      9  N   UNL     1      -0.636  14.453  18.482  0.00  0.00    +0.000 N 
ATOM     10  C   UNL     1      -0.417  13.095  18.586  0.00  0.00    +0.000 A 
ATOM     11  C   UNL     1      -1.500  12.192  18.041  0.00  0.00    +0.000 C 
ATOM     12  C   UNL     1       0.718  12.618  19.142  0.00  0.00    +0.000 A 
ATOM     13  C   UNL     1       1.728  13.606  19.658  0.00  0.00    +0.000 A 
ATOM     14  O   UNL     1       2.763  13.212  20.189  0.00  0.00    +0.000 OA
ATOM     15  C   UNL     1       1.429  15.071  19.493  0.00  0.00    +0.000 A 
ATOM     16 BR   UNL     1       2.710  16.285  20.110  0.00  0.00    +0.000 Br
ATOM     17  H   UNL     1      -1.492  14.765  18.027  0.00  0.00    +0.000 HD
ENDBRANCH   1  12
BRANCH   4  18
ATOM     18  C   UNL     1       2.020   7.073  19.334  0.00  0.00    +0.000 A 
ATOM     19  C   UNL     1       2.473   6.423  18.173  0.00  0.00    +0.000 A 
ATOM     20  C   UNL     1       2.768   5.058  18.176  0.00  0.00    +0.000 A 
ATOM     21  C   UNL     1       2.646   4.309  19.345  0.00  0.00    +0.000 A 
ATOM     22  C   UNL     1       2.184   4.929  20.502  0.00  0.00    +0.000 A 
ATOM     23  C   UNL     1       1.899   6.301  20.501  0.00  0.00    +0.000 A 
BRANCH  21  24
ATOM     24  O   UNL     1       2.933   2.988  19.204  0.00  0.00    +0.000 OA
BRANCH  24  25
ATOM     25  C   UNL     1       4.057   2.439  19.877  0.00  0.00    +0.000 C 
ATOM     26  F   UNL     1       3.877   2.221  21.195  0.00  0.00    +0.000 F 
ATOM     27  F   UNL     1       4.388   1.269  19.288  0.00  0.00    +0.000 F 
ATOM     28  F   UNL     1       5.099   3.289  19.735  0.00  0.00    +0.000 F 
ENDBRANCH  24  25
ENDBRANCH  21  24
ENDBRANCH   4  18
TORSDOF 4
ENDMDL
