MODEL 1
REMARK VINA RESULT:      -8.6      0.000      0.000
REMARK  Name = 
REMARK  10 active torsions:
REMARK  status: ('A' for Active; 'I' for Inactive)
REMARK    1  A    between atoms: C_1  and  C_2
REMARK    2  A    between atoms: C_2  and  N_3
REMARK    3  A    between atoms: C_2  and  C_4
REMARK    4  A    between atoms: C_2  and  C_31
REMARK    5  A    between atoms: C_4  and  C_5
REMARK    6  A    between atoms: C_5  and  C_6
REMARK    7  A    between atoms: C_9  and  C_10
REMARK    8  A    between atoms: C_15  and  C_16
REMARK    9  A    between atoms: C_16  and  C_17
REMARK   10  A    between atoms: C_31  and  O_33
REMARK                            x       y       z     vdW  Elec       q    Type
REMARK                         _______ _______ _______ _____ _____    ______ ____
ROOT
ATOM      1  C   UNL     1       3.785   5.397  18.258  0.00  0.00    +0.000 A 
ATOM      2  C   UNL     1       3.640   6.678  17.714  0.00  0.00    +0.000 A 
ATOM      3  C   UNL     1       2.839   7.623  18.347  0.00  0.00    +0.000 A 
ATOM      4  C   UNL     1       2.168   7.314  19.543  0.00  0.00    +0.000 A 
ATOM      5  C   UNL     1       2.288   6.021  20.054  0.00  0.00    +0.000 A 
ATOM      6  F   UNL     1       1.662   5.663  21.188  0.00  0.00    +0.000 F 
ATOM      7  C   UNL     1       3.086   5.071  19.425  0.00  0.00    +0.000 A 
ENDROOT
BRANCH   4   8
ATOM      8  C   UNL     1       1.372   8.315  20.259  0.00  0.00    +0.000 A 
ATOM      9  N   UNL     1       0.934   8.198  21.494  0.00  0.00    +0.000 NA
ATOM     10  C   UNL     1       0.247   9.339  21.847  0.00  0.00    +0.000 A 
ATOM     11  C   UNL     1      -0.362   9.636  23.071  0.00  0.00    +0.000 A 
ATOM     12  C   UNL     1      -1.008  10.867  23.183  0.00  0.00    +0.000 A 
ATOM     13  C   UNL     1      -1.044  11.757  22.099  0.00  0.00    +0.000 A 
ATOM     14  N   UNL     1      -0.463  11.485  20.908  0.00  0.00    +0.000 NA
ATOM     15  C   UNL     1       0.159  10.301  20.851  0.00  0.00    +0.000 A 
ATOM     16  S   UNL     1       0.989   9.801  19.466  0.00  0.00    +0.000 S 
BRANCH  13  17
ATOM     17  C   UNL     1      -1.685  13.135  22.244  0.00  0.00    +0.000 C 
ATOM     18  C   UNL     1      -1.156  14.030  23.360  0.00  0.00    +0.000 C 
ATOM     19  C   UNL     1      -0.843  14.361  21.935  0.00  0.00    +0.000 C 
BRANCH  17  20
ATOM     20  C   UNL     1      -3.180  13.121  21.947  0.00  0.00    +0.000 A 
ATOM     21  C   UNL     1      -4.127  13.018  22.982  0.00  0.00    +0.000 A 
ATOM     22  C   UNL     1      -5.471  12.747  22.715  0.00  0.00    +0.000 A 
ATOM     23  C   UNL     1      -5.896  12.577  21.400  0.00  0.00    +0.000 A 
ATOM     24  C   UNL     1      -4.990  12.726  20.355  0.00  0.00    +0.000 A 
ATOM     25  C   UNL     1      -3.650  13.011  20.627  0.00  0.00    +0.000 A 
ENDBRANCH  17  20
ENDBRANCH  13  17
ENDBRANCH   4   8
BRANCH   1  26
ATOM     26  C   UNL     1       4.652   4.372  17.579  0.00  0.00    +0.000 C 
BRANCH  26  27
ATOM     27  C   UNL     1       5.130   4.827  16.191  0.00  0.00    +0.000 C 
BRANCH  27  29
ATOM     28  C   UNL     1       7.123   6.343  16.701  0.00  0.00    +0.000 C 
ATOM     29  C   UNL     1       6.655   5.022  16.093  0.00  0.00    +0.000 C 
BRANCH  29  30
ATOM     30  N   UNL     1       7.311   3.890  16.829  0.00  0.00    +0.000 NA
ATOM     31  H   UNL     1       6.909   3.845  17.770  0.00  0.00    +0.000 HD
ATOM     32  H   UNL     1       8.293   4.143  16.991  0.00  0.00    +0.000 HD
ENDBRANCH  29  30
BRANCH  29  33
ATOM     33  C   UNL     1       7.093   4.907  14.614  0.00  0.00    +0.000 C 
ATOM     34  O   UNL     1       8.028   5.502  14.102  0.00  0.00    +0.000 OA
BRANCH  33  35
ATOM     35  O   UNL     1       6.274   4.071  13.928  0.00  0.00    +0.000 OA
ATOM     36  H   UNL     1       6.537   4.146  12.978  0.00  0.00    +0.000 HD
ENDBRANCH  33  35
ENDBRANCH  29  33
ENDBRANCH  27  29
ENDBRANCH  26  27
ENDBRANCH   1  26
TORSDOF 9
ENDMDL
MODEL 2
REMARK VINA RESULT:      -8.6      1.835      2.365
REMARK  Name = 
REMARK  10 active torsions:
REMARK  status: ('A' for Active; 'I' for Inactive)
REMARK    1  A    between atoms: C_1  and  C_2
REMARK    2  A    between atoms: C_2  and  N_3
REMARK    3  A    between atoms: C_2  and  C_4
REMARK    4  A    between atoms: C_2  and  C_31
REMARK    5  A    between atoms: C_4  and  C_5
REMARK    6  A    between atoms: C_5  and  C_6
REMARK    7  A    between atoms: C_9  and  C_10
REMARK    8  A    between atoms: C_15  and  C_16
REMARK    9  A    between atoms: C_16  and  C_17
REMARK   10  A    between atoms: C_31  and  O_33
REMARK                            x       y       z     vdW  Elec       q    Type
REMARK                         _______ _______ _______ _____ _____    ______ ____
ROOT
ATOM      1  C   UNL     1       3.551   6.281  18.177  0.00  0.00    +0.000 A 
ATOM      2  C   UNL     1       2.976   5.914  19.399  0.00  0.00    +0.000 A 
ATOM      3  C   UNL     1       2.149   6.801  20.081  0.00  0.00    +0.000 A 
ATOM      4  C   UNL     1       1.871   8.075  19.556  0.00  0.00    +0.000 A 
ATOM      5  C   UNL     1       2.481   8.445  18.356  0.00  0.00    +0.000 A 
ATOM      6  F   UNL     1       2.262   9.653  17.810  0.00  0.00    +0.000 F 
ATOM      7  C   UNL     1       3.310   7.563  17.671  0.00  0.00    +0.000 A 
ENDROOT
BRANCH   4   8
ATOM      8  C   UNL     1       0.952   9.000  20.226  0.00  0.00    +0.000 A 
ATOM      9  N   UNL     1       0.751   9.064  21.525  0.00  0.00    +0.000 NA
ATOM     10  C   UNL     1      -0.155  10.066  21.799  0.00  0.00    +0.000 A 
ATOM     11  C   UNL     1      -0.632  10.479  23.048  0.00  0.00    +0.000 A 
ATOM     12  C   UNL     1      -1.559  11.522  23.066  0.00  0.00    +0.000 A 
ATOM     13  C   UNL     1      -1.993  12.113  21.870  0.00  0.00    +0.000 A 
ATOM     14  N   UNL     1      -1.545  11.723  20.654  0.00  0.00    +0.000 NA
ATOM     15  C   UNL     1      -0.645  10.733  20.685  0.00  0.00    +0.000 A 
ATOM     16  S   UNL     1       0.073  10.142  19.274  0.00  0.00    +0.000 S 
BRANCH  13  17
ATOM     17  C   UNL     1      -2.950  13.303  21.892  0.00  0.00    +0.000 C 
ATOM     18  C   UNL     1      -2.386  14.635  22.376  0.00  0.00    +0.000 C 
ATOM     19  C   UNL     1      -2.703  14.449  20.926  0.00  0.00    +0.000 C 
BRANCH  17  20
ATOM     20  C   UNL     1      -4.368  12.908  22.287  0.00  0.00    +0.000 A 
ATOM     21  C   UNL     1      -5.345  12.636  21.312  0.00  0.00    +0.000 A 
ATOM     22  C   UNL     1      -6.697  12.527  21.647  0.00  0.00    +0.000 A 
ATOM     23  C   UNL     1      -7.099  12.684  22.970  0.00  0.00    +0.000 A 
ATOM     24  C   UNL     1      -6.147  12.902  23.961  0.00  0.00    +0.000 A 
ATOM     25  C   UNL     1      -4.795  12.996  23.623  0.00  0.00    +0.000 A 
ENDBRANCH  17  20
ENDBRANCH  13  17
ENDBRANCH   4   8
BRANCH   1  26
ATOM     26  C   UNL     1       4.443   5.325  17.434  0.00  0.00    +0.000 C 
BRANCH  26  27
ATOM     27  C   UNL     1       5.377   6.038  16.442  0.00  0.00    +0.000 C 
BRANCH  27  29
ATOM     28  C   UNL     1       7.143   4.493  17.454  0.00  0.00    +0.000 C 
ATOM     29  C   UNL     1       6.875   5.807  16.724  0.00  0.00    +0.000 C 
BRANCH  29  30
ATOM     30  N   UNL     1       7.592   5.784  15.405  0.00  0.00    +0.000 NA
ATOM     31  H   UNL     1       6.965   6.171  14.694  0.00  0.00    +0.000 HD
ATOM     32  H   UNL     1       7.709   4.804  15.124  0.00  0.00    +0.000 HD
ENDBRANCH  29  30
BRANCH  29  33
ATOM     33  C   UNL     1       7.438   7.008  17.518  0.00  0.00    +0.000 C 
ATOM     34  O   UNL     1       7.487   8.161  17.122  0.00  0.00    +0.000 OA
BRANCH  33  35
ATOM     35  O   UNL     1       7.916   6.611  18.725  0.00  0.00    +0.000 OA
ATOM     36  H   UNL     1       7.775   7.372  19.340  0.00  0.00    +0.000 HD
ENDBRANCH  33  35
ENDBRANCH  29  33
ENDBRANCH  27  29
ENDBRANCH  26  27
ENDBRANCH   1  26
TORSDOF 9
ENDMDL
MODEL 3
REMARK VINA RESULT:      -8.5      1.966      2.735
REMARK  Name = 
REMARK  10 active torsions:
REMARK  status: ('A' for Active; 'I' for Inactive)
REMARK    1  A    between atoms: C_1  and  C_2
REMARK    2  A    between atoms: C_2  and  N_3
REMARK    3  A    between atoms: C_2  and  C_4
REMARK    4  A    between atoms: C_2  and  C_31
REMARK    5  A    between atoms: C_4  and  C_5
REMARK    6  A    between atoms: C_5  and  C_6
REMARK    7  A    between atoms: C_9  and  C_10
REMARK    8  A    between atoms: C_15  and  C_16
REMARK    9  A    between atoms: C_16  and  C_17
REMARK   10  A    between atoms: C_31  and  O_33
REMARK                            x       y       z     vdW  Elec       q    Type
REMARK                         _______ _______ _______ _____ _____    ______ ____
ROOT
ATOM      1  C   UNL     1       2.823   6.484  18.772  0.00  0.00    +0.000 A 
ATOM      2  C   UNL     1       2.269   6.443  20.055  0.00  0.00    +0.000 A 
ATOM      3  C   UNL     1       1.534   7.522  20.538  0.00  0.00    +0.000 A 
ATOM      4  C   UNL     1       1.330   8.666  19.747  0.00  0.00    +0.000 A 
ATOM      5  C   UNL     1       1.921   8.711  18.484  0.00  0.00    +0.000 A 
ATOM      6  F   UNL     1       1.771   9.782  17.686  0.00  0.00    +0.000 F 
ATOM      7  C   UNL     1       2.658   7.636  17.996  0.00  0.00    +0.000 A 
ENDROOT
BRANCH   4   8
ATOM      8  C   UNL     1       0.507   9.786  20.212  0.00  0.00    +0.000 A 
ATOM      9  N   UNL     1      -0.422  10.393  19.505  0.00  0.00    +0.000 NA
ATOM     10  C   UNL     1      -1.009  11.377  20.270  0.00  0.00    +0.000 A 
ATOM     11  C   UNL     1      -2.049  12.243  19.911  0.00  0.00    +0.000 A 
ATOM     12  C   UNL     1      -2.470  13.167  20.868  0.00  0.00    +0.000 A 
ATOM     13  C   UNL     1      -1.860  13.219  22.129  0.00  0.00    +0.000 A 
ATOM     14  N   UNL     1      -0.852  12.392  22.492  0.00  0.00    +0.000 NA
ATOM     15  C   UNL     1      -0.491  11.512  21.550  0.00  0.00    +0.000 A 
ATOM     16  S   UNL     1       0.713  10.359  21.829  0.00  0.00    +0.000 S 
BRANCH  13  17
ATOM     17  C   UNL     1      -2.371  14.178  23.202  0.00  0.00    +0.000 C 
ATOM     18  C   UNL     1      -1.345  14.718  24.193  0.00  0.00    +0.000 C 
ATOM     19  C   UNL     1      -1.918  15.627  23.153  0.00  0.00    +0.000 C 
BRANCH  17  20
ATOM     20  C   UNL     1      -3.766  13.814  23.698  0.00  0.00    +0.000 A 
ATOM     21  C   UNL     1      -4.005  12.603  24.372  0.00  0.00    +0.000 A 
ATOM     22  C   UNL     1      -5.303  12.142  24.601  0.00  0.00    +0.000 A 
ATOM     23  C   UNL     1      -6.393  12.889  24.163  0.00  0.00    +0.000 A 
ATOM     24  C   UNL     1      -6.185  14.116  23.540  0.00  0.00    +0.000 A 
ATOM     25  C   UNL     1      -4.884  14.580  23.326  0.00  0.00    +0.000 A 
ENDBRANCH  17  20
ENDBRANCH  13  17
ENDBRANCH   4   8
BRANCH   1  26
ATOM     26  C   UNL     1       3.615   5.319  18.243  0.00  0.00    +0.000 C 
BRANCH  26  27
ATOM     27  C   UNL     1       5.132   5.518  18.396  0.00  0.00    +0.000 C 
BRANCH  27  29
ATOM     28  C   UNL     1       5.107   4.794  15.945  0.00  0.00    +0.000 C 
ATOM     29  C   UNL     1       5.901   5.468  17.062  0.00  0.00    +0.000 C 
BRANCH  29  30
ATOM     30  N   UNL     1       6.207   6.880  16.655  0.00  0.00    +0.000 NA
ATOM     31  H   UNL     1       5.322   7.353  16.451  0.00  0.00    +0.000 HD
ATOM     32  H   UNL     1       6.688   6.853  15.748  0.00  0.00    +0.000 HD
ENDBRANCH  29  30
BRANCH  29  33
ATOM     33  C   UNL     1       7.260   4.762  17.279  0.00  0.00    +0.000 C 
ATOM     34  O   UNL     1       7.746   4.477  18.362  0.00  0.00    +0.000 OA
BRANCH  33  35
ATOM     35  O   UNL     1       7.879   4.523  16.096  0.00  0.00    +0.000 OA
ATOM     36  H   UNL     1       8.840   4.424  16.303  0.00  0.00    +0.000 HD
ENDBRANCH  33  35
ENDBRANCH  29  33
ENDBRANCH  27  29
ENDBRANCH  26  27
ENDBRANCH   1  26
TORSDOF 9
ENDMDL
MODEL 4
REMARK VINA RESULT:      -8.4      1.757      2.426
REMARK  Name = 
REMARK  10 active torsions:
REMARK  status: ('A' for Active; 'I' for Inactive)
REMARK    1  A    between atoms: C_1  and  C_2
REMARK    2  A    between atoms: C_2  and  N_3
REMARK    3  A    between atoms: C_2  and  C_4
REMARK    4  A    between atoms: C_2  and  C_31
REMARK    5  A    between atoms: C_4  and  C_5
REMARK    6  A    between atoms: C_5  and  C_6
REMARK    7  A    between atoms: C_9  and  C_10
REMARK    8  A    between atoms: C_15  and  C_16
REMARK    9  A    between atoms: C_16  and  C_17
REMARK   10  A    between atoms: C_31  and  O_33
REMARK                            x       y       z     vdW  Elec       q    Type
REMARK                         _______ _______ _______ _____ _____    ______ ____
ROOT
ATOM      1  C   UNL     1       3.030   7.135  18.317  0.00  0.00    +0.000 A 
ATOM      2  C   UNL     1       2.734   8.274  17.561  0.00  0.00    +0.000 A 
ATOM      3  C   UNL     1       1.868   9.242  18.058  0.00  0.00    +0.000 A 
ATOM      4  C   UNL     1       1.280   9.099  19.327  0.00  0.00    +0.000 A 
ATOM      5  C   UNL     1       1.552   7.940  20.056  0.00  0.00    +0.000 A 
ATOM      6  F   UNL     1       1.012   7.741  21.270  0.00  0.00    +0.000 F 
ATOM      7  C   UNL     1       2.416   6.968  19.562  0.00  0.00    +0.000 A 
ENDROOT
BRANCH   4   8
ATOM      8  C   UNL     1       0.415  10.137  19.896  0.00  0.00    +0.000 A 
ATOM      9  N   UNL     1      -0.649  10.644  19.313  0.00  0.00    +0.000 NA
ATOM     10  C   UNL     1      -1.231  11.573  20.149  0.00  0.00    +0.000 A 
ATOM     11  C   UNL     1      -2.386  12.330  19.926  0.00  0.00    +0.000 A 
ATOM     12  C   UNL     1      -2.774  13.216  20.931  0.00  0.00    +0.000 A 
ATOM     13  C   UNL     1      -2.019  13.339  22.106  0.00  0.00    +0.000 A 
ATOM     14  N   UNL     1      -0.898  12.618  22.337  0.00  0.00    +0.000 NA
ATOM     15  C   UNL     1      -0.572  11.768  21.354  0.00  0.00    +0.000 A 
ATOM     16  S   UNL     1       0.764  10.742  21.476  0.00  0.00    +0.000 S 
BRANCH  13  17
ATOM     17  C   UNL     1      -2.483  14.253  23.238  0.00  0.00    +0.000 C 
ATOM     18  C   UNL     1      -1.426  14.709  24.238  0.00  0.00    +0.000 C 
ATOM     19  C   UNL     1      -1.989  15.689  23.258  0.00  0.00    +0.000 C 
BRANCH  17  20
ATOM     20  C   UNL     1      -3.880  13.903  23.739  0.00  0.00    +0.000 A 
ATOM     21  C   UNL     1      -4.149  12.654  24.330  0.00  0.00    +0.000 A 
ATOM     22  C   UNL     1      -5.458  12.224  24.556  0.00  0.00    +0.000 A 
ATOM     23  C   UNL     1      -6.529  13.039  24.197  0.00  0.00    +0.000 A 
ATOM     24  C   UNL     1      -6.289  14.299  23.660  0.00  0.00    +0.000 A 
ATOM     25  C   UNL     1      -4.977  14.732  23.449  0.00  0.00    +0.000 A 
ENDBRANCH  17  20
ENDBRANCH  13  17
ENDBRANCH   4   8
BRANCH   1  26
ATOM     26  C   UNL     1       3.969   6.087  17.785  0.00  0.00    +0.000 C 
BRANCH  26  27
ATOM     27  C   UNL     1       5.077   6.680  16.899  0.00  0.00    +0.000 C 
BRANCH  27  29
ATOM     28  C   UNL     1       7.427   7.503  17.473  0.00  0.00    +0.000 C 
ATOM     29  C   UNL     1       6.501   6.295  17.345  0.00  0.00    +0.000 C 
BRANCH  29  30
ATOM     30  N   UNL     1       6.397   5.619  18.681  0.00  0.00    +0.000 NA
ATOM     31  H   UNL     1       5.409   5.596  18.951  0.00  0.00    +0.000 HD
ATOM     32  H   UNL     1       6.830   6.232  19.382  0.00  0.00    +0.000 HD
ENDBRANCH  29  30
BRANCH  29  33
ATOM     33  C   UNL     1       7.083   5.253  16.362  0.00  0.00    +0.000 C 
ATOM     34  O   UNL     1       7.528   5.496  15.251  0.00  0.00    +0.000 OA
BRANCH  33  35
ATOM     35  O   UNL     1       7.005   4.001  16.878  0.00  0.00    +0.000 OA
ATOM     36  H   UNL     1       7.008   3.384  16.106  0.00  0.00    +0.000 HD
ENDBRANCH  33  35
ENDBRANCH  29  33
ENDBRANCH  27  29
ENDBRANCH  26  27
ENDBRANCH   1  26
TORSDOF 9
ENDMDL
MODEL 5
REMARK VINA RESULT:      -8.4      3.120      3.820
REMARK  Name = 
REMARK  10 active torsions:
REMARK  status: ('A' for Active; 'I' for Inactive)
REMARK    1  A    between atoms: C_1  and  C_2
REMARK    2  A    between atoms: C_2  and  N_3
REMARK    3  A    between atoms: C_2  and  C_4
REMARK    4  A    between atoms: C_2  and  C_31
REMARK    5  A    between atoms: C_4  and  C_5
REMARK    6  A    between atoms: C_5  and  C_6
REMARK    7  A    between atoms: C_9  and  C_10
REMARK    8  A    between atoms: C_15  and  C_16
REMARK    9  A    between atoms: C_16  and  C_17
REMARK   10  A    between atoms: C_31  and  O_33
REMARK                            x       y       z     vdW  Elec       q    Type
REMARK                         _______ _______ _______ _____ _____    ______ ____
ROOT
ATOM      1  C   UNL     1       2.888   6.501  18.731  0.00  0.00    +0.000 A 
ATOM      2  C   UNL     1       2.360   6.486  20.026  0.00  0.00    +0.000 A 
ATOM      3  C   UNL     1       1.616   7.565  20.495  0.00  0.00    +0.000 A 
ATOM      4  C   UNL     1       1.377   8.684  19.677  0.00  0.00    +0.000 A 
ATOM      5  C   UNL     1       1.942   8.705  18.402  0.00  0.00    +0.000 A 
ATOM      6  F   UNL     1       1.758   9.750  17.578  0.00  0.00    +0.000 F 
ATOM      7  C   UNL     1       2.688   7.630  17.929  0.00  0.00    +0.000 A 
ENDROOT
BRANCH   4   8
ATOM      8  C   UNL     1       0.544   9.802  20.129  0.00  0.00    +0.000 A 
ATOM      9  N   UNL     1      -0.406  10.377  19.423  0.00  0.00    +0.000 NA
ATOM     10  C   UNL     1      -0.997  11.370  20.174  0.00  0.00    +0.000 A 
ATOM     11  C   UNL     1      -2.055  12.211  19.811  0.00  0.00    +0.000 A 
ATOM     12  C   UNL     1      -2.476  13.151  20.752  0.00  0.00    +0.000 A 
ATOM     13  C   UNL     1      -1.847  13.244  22.002  0.00  0.00    +0.000 A 
ATOM     14  N   UNL     1      -0.820  12.442  22.367  0.00  0.00    +0.000 NA
ATOM     15  C   UNL     1      -0.460  11.544  21.441  0.00  0.00    +0.000 A 
ATOM     16  S   UNL     1       0.767  10.418  21.728  0.00  0.00    +0.000 S 
BRANCH  13  17
ATOM     17  C   UNL     1      -2.355  14.221  23.059  0.00  0.00    +0.000 C 
ATOM     18  C   UNL     1      -1.319  14.820  24.004  0.00  0.00    +0.000 C 
ATOM     19  C   UNL     1      -1.947  15.680  22.953  0.00  0.00    +0.000 C 
BRANCH  17  20
ATOM     20  C   UNL     1      -3.724  13.833  23.606  0.00  0.00    +0.000 A 
ATOM     21  C   UNL     1      -3.911  12.631  24.314  0.00  0.00    +0.000 A 
ATOM     22  C   UNL     1      -5.189  12.143  24.593  0.00  0.00    +0.000 A 
ATOM     23  C   UNL     1      -6.311  12.852  24.172  0.00  0.00    +0.000 A 
ATOM     24  C   UNL     1      -6.154  14.069  23.516  0.00  0.00    +0.000 A 
ATOM     25  C   UNL     1      -4.873  14.560  23.251  0.00  0.00    +0.000 A 
ENDBRANCH  17  20
ENDBRANCH  13  17
ENDBRANCH   4   8
BRANCH   1  26
ATOM     26  C   UNL     1       3.690   5.336  18.218  0.00  0.00    +0.000 C 
BRANCH  26  27
ATOM     27  C   UNL     1       4.297   4.492  19.351  0.00  0.00    +0.000 C 
BRANCH  27  29
ATOM     28  C   UNL     1       3.399   2.535  17.975  0.00  0.00    +0.000 C 
ATOM     29  C   UNL     1       3.819   3.027  19.358  0.00  0.00    +0.000 C 
BRANCH  29  30
ATOM     30  N   UNL     1       4.953   2.177  19.853  0.00  0.00    +0.000 NA
ATOM     31  H   UNL     1       4.596   1.231  20.015  0.00  0.00    +0.000 HD
ATOM     32  H   UNL     1       5.212   2.507  20.790  0.00  0.00    +0.000 HD
ENDBRANCH  29  30
BRANCH  29  33
ATOM     33  C   UNL     1       2.666   2.869  20.376  0.00  0.00    +0.000 C 
ATOM     34  O   UNL     1       1.485   3.084  20.150  0.00  0.00    +0.000 OA
BRANCH  33  35
ATOM     35  O   UNL     1       3.137   2.488  21.590  0.00  0.00    +0.000 OA
ATOM     36  H   UNL     1       3.792   1.769  21.417  0.00  0.00    +0.000 HD
ENDBRANCH  33  35
ENDBRANCH  29  33
ENDBRANCH  27  29
ENDBRANCH  26  27
ENDBRANCH   1  26
TORSDOF 9
ENDMDL
MODEL 6
REMARK VINA RESULT:      -8.4      1.121      1.387
REMARK  Name = 
REMARK  10 active torsions:
REMARK  status: ('A' for Active; 'I' for Inactive)
REMARK    1  A    between atoms: C_1  and  C_2
REMARK    2  A    between atoms: C_2  and  N_3
REMARK    3  A    between atoms: C_2  and  C_4
REMARK    4  A    between atoms: C_2  and  C_31
REMARK    5  A    between atoms: C_4  and  C_5
REMARK    6  A    between atoms: C_5  and  C_6
REMARK    7  A    between atoms: C_9  and  C_10
REMARK    8  A    between atoms: C_15  and  C_16
REMARK    9  A    between atoms: C_16  and  C_17
REMARK   10  A    between atoms: C_31  and  O_33
REMARK                            x       y       z     vdW  Elec       q    Type
REMARK                         _______ _______ _______ _____ _____    ______ ____
ROOT
ATOM      1  C   UNL     1       3.896   5.561  18.299  0.00  0.00    +0.000 A 
ATOM      2  C   UNL     1       3.727   6.825  17.724  0.00  0.00    +0.000 A 
ATOM      3  C   UNL     1       2.895   7.765  18.325  0.00  0.00    +0.000 A 
ATOM      4  C   UNL     1       2.215   7.467  19.518  0.00  0.00    +0.000 A 
ATOM      5  C   UNL     1       2.360   6.190  20.061  0.00  0.00    +0.000 A 
ATOM      6  F   UNL     1       1.728   5.842  21.194  0.00  0.00    +0.000 F 
ATOM      7  C   UNL     1       3.190   5.245  19.465  0.00  0.00    +0.000 A 
ENDROOT
BRANCH   4   8
ATOM      8  C   UNL     1       1.385   8.464  20.200  0.00  0.00    +0.000 A 
ATOM      9  N   UNL     1       0.865   8.328  21.401  0.00  0.00    +0.000 NA
ATOM     10  C   UNL     1       0.170   9.472  21.730  0.00  0.00    +0.000 A 
ATOM     11  C   UNL     1      -0.517   9.752  22.917  0.00  0.00    +0.000 A 
ATOM     12  C   UNL     1      -1.154  10.990  23.011  0.00  0.00    +0.000 A 
ATOM     13  C   UNL     1      -1.106  11.901  21.946  0.00  0.00    +0.000 A 
ATOM     14  N   UNL     1      -0.450  11.645  20.791  0.00  0.00    +0.000 NA
ATOM     15  C   UNL     1       0.160  10.454  20.750  0.00  0.00    +0.000 A 
ATOM     16  S   UNL     1       1.075   9.971  19.414  0.00  0.00    +0.000 S 
BRANCH  13  17
ATOM     17  C   UNL     1      -1.738  13.284  22.077  0.00  0.00    +0.000 C 
ATOM     18  C   UNL     1      -0.882  14.380  22.703  0.00  0.00    +0.000 C 
ATOM     19  C   UNL     1      -1.177  14.419  21.237  0.00  0.00    +0.000 C 
BRANCH  17  20
ATOM     20  C   UNL     1      -3.225  13.221  22.407  0.00  0.00    +0.000 A 
ATOM     21  C   UNL     1      -3.673  13.168  23.740  0.00  0.00    +0.000 A 
ATOM     22  C   UNL     1      -4.998  12.854  24.050  0.00  0.00    +0.000 A 
ATOM     23  C   UNL     1      -5.906  12.589  23.028  0.00  0.00    +0.000 A 
ATOM     24  C   UNL     1      -5.502  12.685  21.701  0.00  0.00    +0.000 A 
ATOM     25  C   UNL     1      -4.179  13.015  21.395  0.00  0.00    +0.000 A 
ENDBRANCH  17  20
ENDBRANCH  13  17
ENDBRANCH   4   8
BRANCH   1  26
ATOM     26  C   UNL     1       4.797   4.542  17.656  0.00  0.00    +0.000 C 
BRANCH  26  27
ATOM     27  C   UNL     1       4.622   4.478  16.130  0.00  0.00    +0.000 C 
BRANCH  27  29
ATOM     28  C   UNL     1       6.179   4.239  14.117  0.00  0.00    +0.000 C 
ATOM     29  C   UNL     1       5.807   5.070  15.344  0.00  0.00    +0.000 C 
BRANCH  29  30
ATOM     30  N   UNL     1       5.418   6.449  14.896  0.00  0.00    +0.000 NA
ATOM     31  H   UNL     1       6.039   7.122  15.354  0.00  0.00    +0.000 HD
ATOM     32  H   UNL     1       4.493   6.661  15.288  0.00  0.00    +0.000 HD
ENDBRANCH  29  30
BRANCH  29  33
ATOM     33  C   UNL     1       7.020   5.234  16.290  0.00  0.00    +0.000 C 
ATOM     34  O   UNL     1       7.751   4.333  16.669  0.00  0.00    +0.000 OA
BRANCH  33  35
ATOM     35  O   UNL     1       7.157   6.524  16.686  0.00  0.00    +0.000 OA
ATOM     36  H   UNL     1       7.943   6.879  16.202  0.00  0.00    +0.000 HD
ENDBRANCH  33  35
ENDBRANCH  29  33
ENDBRANCH  27  29
ENDBRANCH  26  27
ENDBRANCH   1  26
TORSDOF 9
ENDMDL
MODEL 7
REMARK VINA RESULT:      -8.4      1.744      2.372
REMARK  Name = 
REMARK  10 active torsions:
REMARK  status: ('A' for Active; 'I' for Inactive)
REMARK    1  A    between atoms: C_1  and  C_2
REMARK    2  A    between atoms: C_2  and  N_3
REMARK    3  A    between atoms: C_2  and  C_4
REMARK    4  A    between atoms: C_2  and  C_31
REMARK    5  A    between atoms: C_4  and  C_5
REMARK    6  A    between atoms: C_5  and  C_6
REMARK    7  A    between atoms: C_9  and  C_10
REMARK    8  A    between atoms: C_15  and  C_16
REMARK    9  A    between atoms: C_16  and  C_17
REMARK   10  A    between atoms: C_31  and  O_33
REMARK                            x       y       z     vdW  Elec       q    Type
REMARK                         _______ _______ _______ _____ _____    ______ ____
ROOT
ATOM      1  C   UNL     1       3.218   6.636  18.620  0.00  0.00    +0.000 A 
ATOM      2  C   UNL     1       3.009   7.695  17.731  0.00  0.00    +0.000 A 
ATOM      3  C   UNL     1       2.123   8.718  18.053  0.00  0.00    +0.000 A 
ATOM      4  C   UNL     1       1.429   8.711  19.275  0.00  0.00    +0.000 A 
ATOM      5  C   UNL     1       1.616   7.630  20.137  0.00  0.00    +0.000 A 
ATOM      6  F   UNL     1       0.972   7.561  21.314  0.00  0.00    +0.000 F 
ATOM      7  C   UNL     1       2.499   6.603  19.819  0.00  0.00    +0.000 A 
ENDROOT
BRANCH   4   8
ATOM      8  C   UNL     1       0.540   9.811  19.661  0.00  0.00    +0.000 A 
ATOM      9  N   UNL     1      -0.545  10.177  19.012  0.00  0.00    +0.000 NA
ATOM     10  C   UNL     1      -1.144  11.225  19.677  0.00  0.00    +0.000 A 
ATOM     11  C   UNL     1      -2.323  11.898  19.339  0.00  0.00    +0.000 A 
ATOM     12  C   UNL     1      -2.726  12.941  20.174  0.00  0.00    +0.000 A 
ATOM     13  C   UNL     1      -1.964  13.293  21.297  0.00  0.00    +0.000 A 
ATOM     14  N   UNL     1      -0.820  12.655  21.637  0.00  0.00    +0.000 NA
ATOM     15  C   UNL     1      -0.480  11.652  20.818  0.00  0.00    +0.000 A 
ATOM     16  S   UNL     1       0.887  10.699  21.102  0.00  0.00    +0.000 S 
BRANCH  13  17
ATOM     17  C   UNL     1      -2.443  14.383  22.253  0.00  0.00    +0.000 C 
ATOM     18  C   UNL     1      -1.375  15.274  22.877  0.00  0.00    +0.000 C 
ATOM     19  C   UNL     1      -2.288  15.834  21.833  0.00  0.00    +0.000 C 
BRANCH  17  20
ATOM     20  C   UNL     1      -3.631  13.939  23.100  0.00  0.00    +0.000 A 
ATOM     21  C   UNL     1      -3.512  12.887  24.026  0.00  0.00    +0.000 A 
ATOM     22  C   UNL     1      -4.637  12.305  24.614  0.00  0.00    +0.000 A 
ATOM     23  C   UNL     1      -5.909  12.769  24.289  0.00  0.00    +0.000 A 
ATOM     24  C   UNL     1      -6.051  13.843  23.416  0.00  0.00    +0.000 A 
ATOM     25  C   UNL     1      -4.922  14.431  22.841  0.00  0.00    +0.000 A 
ENDBRANCH  17  20
ENDBRANCH  13  17
ENDBRANCH   4   8
BRANCH   1  26
ATOM     26  C   UNL     1       4.178   5.528  18.278  0.00  0.00    +0.000 C 
BRANCH  26  27
ATOM     27  C   UNL     1       5.458   6.043  17.601  0.00  0.00    +0.000 C 
BRANCH  27  29
ATOM     28  C   UNL     1       4.813   4.267  15.881  0.00  0.00    +0.000 C 
ATOM     29  C   UNL     1       5.670   5.496  16.176  0.00  0.00    +0.000 C 
BRANCH  29  30
ATOM     30  N   UNL     1       5.307   6.585  15.208  0.00  0.00    +0.000 NA
ATOM     31  H   UNL     1       4.841   6.155  14.404  0.00  0.00    +0.000 HD
ATOM     32  H   UNL     1       6.177   6.963  14.815  0.00  0.00    +0.000 HD
ENDBRANCH  29  30
BRANCH  29  33
ATOM     33  C   UNL     1       7.170   5.190  15.962  0.00  0.00    +0.000 C 
ATOM     34  O   UNL     1       7.786   5.348  14.919  0.00  0.00    +0.000 OA
BRANCH  33  35
ATOM     35  O   UNL     1       7.728   4.678  17.088  0.00  0.00    +0.000 OA
ATOM     36  H   UNL     1       7.047   4.771  17.799  0.00  0.00    +0.000 HD
ENDBRANCH  33  35
ENDBRANCH  29  33
ENDBRANCH  27  29
ENDBRANCH  26  27
ENDBRANCH   1  26
TORSDOF 9
ENDMDL
MODEL 8
REMARK VINA RESULT:      -8.3      2.664      3.491
REMARK  Name = 
REMARK  10 active torsions:
REMARK  status: ('A' for Active; 'I' for Inactive)
REMARK    1  A    between atoms: C_1  and  C_2
REMARK    2  A    between atoms: C_2  and  N_3
REMARK    3  A    between atoms: C_2  and  C_4
REMARK    4  A    between atoms: C_2  and  C_31
REMARK    5  A    between atoms: C_4  and  C_5
REMARK    6  A    between atoms: C_5  and  C_6
REMARK    7  A    between atoms: C_9  and  C_10
REMARK    8  A    between atoms: C_15  and  C_16
REMARK    9  A    between atoms: C_16  and  C_17
REMARK   10  A    between atoms: C_31  and  O_33
REMARK                            x       y       z     vdW  Elec       q    Type
REMARK                         _______ _______ _______ _____ _____    ______ ____
ROOT
ATOM      1  C   UNL     1       2.685   7.003  18.567  0.00  0.00    +0.000 A 
ATOM      2  C   UNL     1       2.223   6.934  19.886  0.00  0.00    +0.000 A 
ATOM      3  C   UNL     1       1.478   7.979  20.425  0.00  0.00    +0.000 A 
ATOM      4  C   UNL     1       1.172   9.116  19.657  0.00  0.00    +0.000 A 
ATOM      5  C   UNL     1       1.671   9.191  18.356  0.00  0.00    +0.000 A 
ATOM      6  F   UNL     1       1.420  10.257  17.578  0.00  0.00    +0.000 F 
ATOM      7  C   UNL     1       2.417   8.150  17.812  0.00  0.00    +0.000 A 
ENDROOT
BRANCH   4   8
ATOM      8  C   UNL     1       0.335  10.197  20.185  0.00  0.00    +0.000 A 
ATOM      9  N   UNL     1      -0.583  10.850  19.506  0.00  0.00    +0.000 NA
ATOM     10  C   UNL     1      -1.189  11.776  20.328  0.00  0.00    +0.000 A 
ATOM     11  C   UNL     1      -2.225  12.662  20.013  0.00  0.00    +0.000 A 
ATOM     12  C   UNL     1      -2.668  13.515  21.024  0.00  0.00    +0.000 A 
ATOM     13  C   UNL     1      -2.080  13.480  22.297  0.00  0.00    +0.000 A 
ATOM     14  N   UNL     1      -1.076  12.632  22.619  0.00  0.00    +0.000 NA
ATOM     15  C   UNL     1      -0.694  11.821  21.624  0.00  0.00    +0.000 A 
ATOM     16  S   UNL     1       0.510  10.656  21.842  0.00  0.00    +0.000 S 
BRANCH  13  17
ATOM     17  C   UNL     1      -2.614  14.359  23.425  0.00  0.00    +0.000 C 
ATOM     18  C   UNL     1      -1.613  14.812  24.483  0.00  0.00    +0.000 C 
ATOM     19  C   UNL     1      -2.150  15.803  23.500  0.00  0.00    +0.000 C 
BRANCH  17  20
ATOM     20  C   UNL     1      -4.025  13.970  23.854  0.00  0.00    +0.000 A 
ATOM     21  C   UNL     1      -4.315  12.673  24.314  0.00  0.00    +0.000 A 
ATOM     22  C   UNL     1      -5.631  12.231  24.463  0.00  0.00    +0.000 A 
ATOM     23  C   UNL     1      -6.689  13.083  24.158  0.00  0.00    +0.000 A 
ATOM     24  C   UNL     1      -6.430  14.388  23.751  0.00  0.00    +0.000 A 
ATOM     25  C   UNL     1      -5.111  14.830  23.617  0.00  0.00    +0.000 A 
ENDBRANCH  17  20
ENDBRANCH  13  17
ENDBRANCH   4   8
BRANCH   1  26
ATOM     26  C   UNL     1       3.487   5.875  17.978  0.00  0.00    +0.000 C 
BRANCH  26  27
ATOM     27  C   UNL     1       3.417   4.594  18.824  0.00  0.00    +0.000 C 
BRANCH  27  29
ATOM     28  C   UNL     1       4.916   3.770  16.926  0.00  0.00    +0.000 C 
ATOM     29  C   UNL     1       4.176   3.402  18.211  0.00  0.00    +0.000 C 
BRANCH  29  30
ATOM     30  N   UNL     1       5.174   2.922  19.225  0.00  0.00    +0.000 NA
ATOM     31  H   UNL     1       6.018   2.625  18.727  0.00  0.00    +0.000 HD
ATOM     32  H   UNL     1       4.813   2.055  19.639  0.00  0.00    +0.000 HD
ENDBRANCH  29  30
BRANCH  29  33
ATOM     33  C   UNL     1       3.190   2.236  17.968  0.00  0.00    +0.000 C 
ATOM     34  O   UNL     1       2.045   2.347  17.559  0.00  0.00    +0.000 OA
BRANCH  33  35
ATOM     35  O   UNL     1       3.750   1.047  18.306  0.00  0.00    +0.000 OA
ATOM     36  H   UNL     1       3.668   0.468  17.509  0.00  0.00    +0.000 HD
ENDBRANCH  33  35
ENDBRANCH  29  33
ENDBRANCH  27  29
ENDBRANCH  26  27
ENDBRANCH   1  26
TORSDOF 9
ENDMDL
MODEL 9
REMARK VINA RESULT:      -8.3      1.957      2.558
REMARK  Name = 
REMARK  10 active torsions:
REMARK  status: ('A' for Active; 'I' for Inactive)
REMARK    1  A    between atoms: C_1  and  C_2
REMARK    2  A    between atoms: C_2  and  N_3
REMARK    3  A    between atoms: C_2  and  C_4
REMARK    4  A    between atoms: C_2  and  C_31
REMARK    5  A    between atoms: C_4  and  C_5
REMARK    6  A    between atoms: C_5  and  C_6
REMARK    7  A    between atoms: C_9  and  C_10
REMARK    8  A    between atoms: C_15  and  C_16
REMARK    9  A    between atoms: C_16  and  C_17
REMARK   10  A    between atoms: C_31  and  O_33
REMARK                            x       y       z     vdW  Elec       q    Type
REMARK                         _______ _______ _______ _____ _____    ______ ____
ROOT
ATOM      1  C   UNL     1       3.097   6.686  18.411  0.00  0.00    +0.000 A 
ATOM      2  C   UNL     1       2.835   7.782  17.581  0.00  0.00    +0.000 A 
ATOM      3  C   UNL     1       1.999   8.807  18.014  0.00  0.00    +0.000 A 
ATOM      4  C   UNL     1       1.409   8.765  19.289  0.00  0.00    +0.000 A 
ATOM      5  C   UNL     1       1.646   7.649  20.092  0.00  0.00    +0.000 A 
ATOM      6  F   UNL     1       1.102   7.547  21.316  0.00  0.00    +0.000 F 
ATOM      7  C   UNL     1       2.479   6.620  19.664  0.00  0.00    +0.000 A 
ENDROOT
BRANCH   4   8
ATOM      8  C   UNL     1       0.578   9.864  19.788  0.00  0.00    +0.000 A 
ATOM      9  N   UNL     1      -0.442  10.397  19.150  0.00  0.00    +0.000 NA
ATOM     10  C   UNL     1      -1.004  11.385  19.930  0.00  0.00    +0.000 A 
ATOM     11  C   UNL     1      -2.115  12.185  19.640  0.00  0.00    +0.000 A 
ATOM     12  C   UNL     1      -2.491  13.129  20.596  0.00  0.00    +0.000 A 
ATOM     13  C   UNL     1      -1.768  13.264  21.791  0.00  0.00    +0.000 A 
ATOM     14  N   UNL     1      -0.691  12.500  22.086  0.00  0.00    +0.000 NA
ATOM     15  C   UNL     1      -0.376  11.598  21.149  0.00  0.00    +0.000 A 
ATOM     16  S   UNL     1       0.906  10.515  21.355  0.00  0.00    +0.000 S 
BRANCH  13  17
ATOM     17  C   UNL     1      -2.224  14.243  22.870  0.00  0.00    +0.000 C 
ATOM     18  C   UNL     1      -1.141  14.850  23.755  0.00  0.00    +0.000 C 
ATOM     19  C   UNL     1      -1.827  15.703  22.737  0.00  0.00    +0.000 C 
BRANCH  17  20
ATOM     20  C   UNL     1      -3.560  13.852  23.491  0.00  0.00    +0.000 A 
ATOM     21  C   UNL     1      -3.697  12.666  24.236  0.00  0.00    +0.000 A 
ATOM     22  C   UNL     1      -4.954  12.169  24.588  0.00  0.00    +0.000 A 
ATOM     23  C   UNL     1      -6.104  12.853  24.203  0.00  0.00    +0.000 A 
ATOM     24  C   UNL     1      -5.994  14.055  23.510  0.00  0.00    +0.000 A 
ATOM     25  C   UNL     1      -4.734  14.556  23.173  0.00  0.00    +0.000 A 
ENDBRANCH  17  20
ENDBRANCH  13  17
ENDBRANCH   4   8
BRANCH   1  26
ATOM     26  C   UNL     1       4.002   5.577  17.949  0.00  0.00    +0.000 C 
BRANCH  26  27
ATOM     27  C   UNL     1       5.263   6.098  17.242  0.00  0.00    +0.000 C 
BRANCH  27  29
ATOM     28  C   UNL     1       6.392   5.353  19.410  0.00  0.00    +0.000 C 
ATOM     29  C   UNL     1       6.578   5.684  17.931  0.00  0.00    +0.000 C 
BRANCH  29  30
ATOM     30  N   UNL     1       7.103   4.468  17.224  0.00  0.00    +0.000 NA
ATOM     31  H   UNL     1       6.678   4.431  16.293  0.00  0.00    +0.000 HD
ATOM     32  H   UNL     1       6.729   3.638  17.700  0.00  0.00    +0.000 HD
ENDBRANCH  29  30
BRANCH  29  33
ATOM     33  C   UNL     1       7.631   6.800  17.741  0.00  0.00    +0.000 C 
ATOM     34  O   UNL     1       7.848   7.401  16.700  0.00  0.00    +0.000 OA
BRANCH  33  35
ATOM     35  O   UNL     1       8.325   7.014  18.886  0.00  0.00    +0.000 OA
ATOM     36  H   UNL     1       8.469   7.990  18.943  0.00  0.00    +0.000 HD
ENDBRANCH  33  35
ENDBRANCH  29  33
ENDBRANCH  27  29
ENDBRANCH  26  27
ENDBRANCH   1  26
TORSDOF 9
ENDMDL
