MODEL 1
REMARK VINA RESULT:      -8.4      0.000      0.000
REMARK  Name = 
REMARK  12 active torsions:
REMARK  status: ('A' for Active; 'I' for Inactive)
REMARK    1  A    between atoms: C_1  and  C_2
REMARK    2  A    between atoms: C_2  and  C_3
REMARK    3  A    between atoms: C_3  and  N_4
REMARK    4  A    between atoms: C_3  and  C_24
REMARK    5  A    between atoms: N_4  and  C_5
REMARK    6  A    between atoms: C_5  and  C_6
REMARK    7  A    between atoms: C_9  and  O_10
REMARK    8  A    between atoms: O_10  and  C_11
REMARK    9  A    between atoms: C_11  and  C_12
REMARK   10  A    between atoms: C_12  and  N_13
REMARK   11  A    between atoms: C_20  and  O_21
REMARK   12  A    between atoms: O_21  and  C_22
REMARK                            x       y       z     vdW  Elec       q    Type
REMARK                         _______ _______ _______ _____ _____    ______ ____
ROOT
ATOM      1  C   UNL     1       7.791   7.964  17.829  0.00  0.00    +0.000 A 
ATOM      2  C   UNL     1       8.267   7.159  18.847  0.00  0.00    +0.000 A 
ATOM      3  C   UNL     1       7.736   5.886  19.050  0.00  0.00    +0.000 A 
ATOM      4  C   UNL     1       6.697   5.369  18.255  0.00  0.00    +0.000 A 
ATOM      5  C   UNL     1       6.196   6.182  17.221  0.00  0.00    +0.000 A 
ATOM      6  C   UNL     1       6.734   7.474  17.026  0.00  0.00    +0.000 A 
ENDROOT
BRANCH   5   7
ATOM      7  O   UNL     1       5.203   5.896  16.314  0.00  0.00    +0.000 OA
ATOM      8  C   UNL     1       5.552   5.156  15.152  0.00  0.00    +0.000 C 
ENDBRANCH   5   7
BRANCH   1   9
ATOM      9  C   UNL     1       8.437   9.307  17.590  0.00  0.00    +0.000 C 
BRANCH   9  10
ATOM     10  N   UNL     1       8.679  10.042  18.832  0.00  0.00    +0.000 NA
ATOM     11  H   UNL     1       7.873  10.630  19.033  0.00  0.00    +0.000 HD
BRANCH  10  12
ATOM     12  C   UNL     1       9.930  10.832  18.878  0.00  0.00    +0.000 C 
BRANCH  12  13
ATOM     13  C   UNL     1       9.810  12.159  18.110  0.00  0.00    +0.000 A 
ATOM     14  C   UNL     1       8.593  12.870  18.153  0.00  0.00    +0.000 A 
ATOM     15  C   UNL     1       8.599  14.243  17.944  0.00  0.00    +0.000 A 
ATOM     16  C   UNL     1       9.837  14.821  17.765  0.00  0.00    +0.000 A 
ATOM     17  C   UNL     1      10.915  14.130  17.257  0.00  0.00    +0.000 A 
ATOM     18  C   UNL     1      10.944  12.776  17.522  0.00  0.00    +0.000 A 
ATOM     19  C   UNL     1      12.072  15.068  17.262  0.00  0.00    +0.000 C 
ATOM     20  C   UNL     1      11.789  15.502  18.683  0.00  0.00    +0.000 C 
ATOM     21  O   UNL     1      10.338  15.779  18.686  0.00  0.00    +0.000 OA
ENDBRANCH  12  13
BRANCH  12  23
ATOM     22  C   UNL     1      10.237  12.448  20.909  0.00  0.00    +0.000 C 
ATOM     23  C   UNL     1      10.517  11.103  20.279  0.00  0.00    +0.000 C 
ENDBRANCH  12  23
ENDBRANCH  10  12
ENDBRANCH   9  10
ENDBRANCH   1   9
BRANCH   4  24
ATOM     24  O   UNL     1       6.185   4.103  18.476  0.00  0.00    +0.000 OA
BRANCH  24  25
ATOM     25  C   UNL     1       5.017   4.079  19.303  0.00  0.00    +0.000 C 
BRANCH  25  26
ATOM     26  C   UNL     1       4.343   2.718  19.395  0.00  0.00    +0.000 C 
BRANCH  26  27
ATOM     27  N   UNL     1       2.902   2.875  19.628  0.00  0.00    +0.000 N 
ATOM     28  C   UNL     1       1.986   2.835  18.624  0.00  0.00    +0.000 C 
ATOM     29  O   UNL     1       2.229   2.711  17.413  0.00  0.00    +0.000 OA
ATOM     30  C   UNL     1       0.610   2.920  19.184  0.00  0.00    +0.000 C 
ATOM     31  C   UNL     1       0.812   2.899  20.688  0.00  0.00    +0.000 C 
ATOM     32  C   UNL     1       2.319   2.820  20.847  0.00  0.00    +0.000 C 
ATOM     33  O   UNL     1       2.886   2.703  21.921  0.00  0.00    +0.000 OA
ENDBRANCH  26  27
ENDBRANCH  25  26
ENDBRANCH  24  25
ENDBRANCH   4  24
TORSDOF 10
ENDMDL
MODEL 2
REMARK VINA RESULT:      -8.4      5.430      7.161
REMARK  Name = 
REMARK  12 active torsions:
REMARK  status: ('A' for Active; 'I' for Inactive)
REMARK    1  A    between atoms: C_1  and  C_2
REMARK    2  A    between atoms: C_2  and  C_3
REMARK    3  A    between atoms: C_3  and  N_4
REMARK    4  A    between atoms: C_3  and  C_24
REMARK    5  A    between atoms: N_4  and  C_5
REMARK    6  A    between atoms: C_5  and  C_6
REMARK    7  A    between atoms: C_9  and  O_10
REMARK    8  A    between atoms: O_10  and  C_11
REMARK    9  A    between atoms: C_11  and  C_12
REMARK   10  A    between atoms: C_12  and  N_13
REMARK   11  A    between atoms: C_20  and  O_21
REMARK   12  A    between atoms: O_21  and  C_22
REMARK                            x       y       z     vdW  Elec       q    Type
REMARK                         _______ _______ _______ _____ _____    ______ ____
ROOT
ATOM      1  C   UNL     1       2.648   8.026  18.001  0.00  0.00    +0.000 A 
ATOM      2  C   UNL     1       1.911   6.912  18.357  0.00  0.00    +0.000 A 
ATOM      3  C   UNL     1       2.410   5.630  18.131  0.00  0.00    +0.000 A 
ATOM      4  C   UNL     1       3.661   5.406  17.525  0.00  0.00    +0.000 A 
ATOM      5  C   UNL     1       4.417   6.531  17.149  0.00  0.00    +0.000 A 
ATOM      6  C   UNL     1       3.902   7.827  17.375  0.00  0.00    +0.000 A 
ENDROOT
BRANCH   5   7
ATOM      7  O   UNL     1       5.660   6.567  16.559  0.00  0.00    +0.000 OA
ATOM      8  C   UNL     1       6.795   6.705  17.402  0.00  0.00    +0.000 C 
ENDBRANCH   5   7
BRANCH   1   9
ATOM      9  C   UNL     1       2.112   9.399  18.326  0.00  0.00    +0.000 C 
BRANCH   9  10
ATOM     10  N   UNL     1       1.001   9.787  17.456  0.00  0.00    +0.000 NA
ATOM     11  H   UNL     1       1.252  10.635  16.953  0.00  0.00    +0.000 HD
BRANCH  10  12
ATOM     12  C   UNL     1      -0.313   9.940  18.120  0.00  0.00    +0.000 C 
BRANCH  12  13
ATOM     13  C   UNL     1      -0.330  11.114  19.113  0.00  0.00    +0.000 A 
ATOM     14  C   UNL     1      -0.540  10.852  20.482  0.00  0.00    +0.000 A 
ATOM     15  C   UNL     1      -0.056  11.745  21.429  0.00  0.00    +0.000 A 
ATOM     16  C   UNL     1       0.661  12.815  20.938  0.00  0.00    +0.000 A 
ATOM     17  C   UNL     1       0.467  13.324  19.673  0.00  0.00    +0.000 A 
ATOM     18  C   UNL     1       0.051  12.421  18.716  0.00  0.00    +0.000 A 
ATOM     19  C   UNL     1       1.452  14.428  19.495  0.00  0.00    +0.000 C 
ATOM     20  C   UNL     1       2.585  13.581  20.028  0.00  0.00    +0.000 C 
ATOM     21  O   UNL     1       2.033  12.987  21.263  0.00  0.00    +0.000 OA
ENDBRANCH  12  13
BRANCH  12  23
ATOM     22  C   UNL     1      -2.903   9.795  17.804  0.00  0.00    +0.000 C 
ATOM     23  C   UNL     1      -1.542  10.036  17.192  0.00  0.00    +0.000 C 
ENDBRANCH  12  23
ENDBRANCH  10  12
ENDBRANCH   9  10
ENDBRANCH   1   9
BRANCH   4  24
ATOM     24  O   UNL     1       4.135   4.124  17.310  0.00  0.00    +0.000 OA
BRANCH  24  25
ATOM     25  C   UNL     1       3.116   3.167  17.001  0.00  0.00    +0.000 C 
BRANCH  25  26
ATOM     26  C   UNL     1       3.078   1.970  17.940  0.00  0.00    +0.000 C 
BRANCH  26  27
ATOM     27  N   UNL     1       2.644   2.386  19.280  0.00  0.00    +0.000 N 
ATOM     28  C   UNL     1       1.335   2.484  19.633  0.00  0.00    +0.000 C 
ATOM     29  O   UNL     1       0.359   2.289  18.891  0.00  0.00    +0.000 OA
ATOM     30  C   UNL     1       1.218   2.825  21.077  0.00  0.00    +0.000 C 
ATOM     31  C   UNL     1       2.647   2.806  21.587  0.00  0.00    +0.000 C 
ATOM     32  C   UNL     1       3.464   2.466  20.354  0.00  0.00    +0.000 C 
ATOM     33  O   UNL     1       4.669   2.277  20.365  0.00  0.00    +0.000 OA
ENDBRANCH  26  27
ENDBRANCH  25  26
ENDBRANCH  24  25
ENDBRANCH   4  24
TORSDOF 10
ENDMDL
MODEL 3
REMARK VINA RESULT:      -8.4      1.687      3.207
REMARK  Name = 
REMARK  12 active torsions:
REMARK  status: ('A' for Active; 'I' for Inactive)
REMARK    1  A    between atoms: C_1  and  C_2
REMARK    2  A    between atoms: C_2  and  C_3
REMARK    3  A    between atoms: C_3  and  N_4
REMARK    4  A    between atoms: C_3  and  C_24
REMARK    5  A    between atoms: N_4  and  C_5
REMARK    6  A    between atoms: C_5  and  C_6
REMARK    7  A    between atoms: C_9  and  O_10
REMARK    8  A    between atoms: O_10  and  C_11
REMARK    9  A    between atoms: C_11  and  C_12
REMARK   10  A    between atoms: C_12  and  N_13
REMARK   11  A    between atoms: C_20  and  O_21
REMARK   12  A    between atoms: O_21  and  C_22
REMARK                            x       y       z     vdW  Elec       q    Type
REMARK                         _______ _______ _______ _____ _____    ______ ____
ROOT
ATOM      1  C   UNL     1       7.775   8.031  17.907  0.00  0.00    +0.000 A 
ATOM      2  C   UNL     1       8.314   7.217  18.887  0.00  0.00    +0.000 A 
ATOM      3  C   UNL     1       7.814   5.932  19.095  0.00  0.00    +0.000 A 
ATOM      4  C   UNL     1       6.744   5.412  18.344  0.00  0.00    +0.000 A 
ATOM      5  C   UNL     1       6.179   6.233  17.351  0.00  0.00    +0.000 A 
ATOM      6  C   UNL     1       6.686   7.536  17.151  0.00  0.00    +0.000 A 
ENDROOT
BRANCH   5   7
ATOM      7  O   UNL     1       5.146   5.945  16.489  0.00  0.00    +0.000 OA
ATOM      8  C   UNL     1       5.462   5.326  15.250  0.00  0.00    +0.000 C 
ENDBRANCH   5   7
BRANCH   1   9
ATOM      9  C   UNL     1       8.387   9.388  17.659  0.00  0.00    +0.000 C 
BRANCH   9  10
ATOM     10  N   UNL     1       8.884  10.013  18.886  0.00  0.00    +0.000 NA
ATOM     11  H   UNL     1       8.180   9.919  19.615  0.00  0.00    +0.000 HD
BRANCH  10  12
ATOM     12  C   UNL     1       9.324  11.420  18.758  0.00  0.00    +0.000 C 
BRANCH  12  13
ATOM     13  C   UNL     1       9.374  12.140  20.116  0.00  0.00    +0.000 A 
ATOM     14  C   UNL     1       9.348  13.549  20.148  0.00  0.00    +0.000 A 
ATOM     15  C   UNL     1       8.873  14.196  21.280  0.00  0.00    +0.000 A 
ATOM     16  C   UNL     1       8.397  13.383  22.287  0.00  0.00    +0.000 A 
ATOM     17  C   UNL     1       8.841  12.091  22.472  0.00  0.00    +0.000 A 
ATOM     18  C   UNL     1       9.250  11.425  21.335  0.00  0.00    +0.000 A 
ATOM     19  C   UNL     1       8.064  11.527  23.610  0.00  0.00    +0.000 C 
ATOM     20  C   UNL     1       6.755  12.022  23.040  0.00  0.00    +0.000 C 
ATOM     21  O   UNL     1       7.034  13.428  22.682  0.00  0.00    +0.000 OA
ENDBRANCH  12  13
BRANCH  12  23
ATOM     22  C   UNL     1      11.937  11.450  18.766  0.00  0.00    +0.000 C 
ATOM     23  C   UNL     1      10.649  11.657  18.003  0.00  0.00    +0.000 C 
ENDBRANCH  12  23
ENDBRANCH  10  12
ENDBRANCH   9  10
ENDBRANCH   1   9
BRANCH   4  24
ATOM     24  O   UNL     1       6.264   4.134  18.569  0.00  0.00    +0.000 OA
BRANCH  24  25
ATOM     25  C   UNL     1       5.090   4.085  19.387  0.00  0.00    +0.000 C 
BRANCH  25  26
ATOM     26  C   UNL     1       4.511   2.689  19.566  0.00  0.00    +0.000 C 
BRANCH  26  27
ATOM     27  N   UNL     1       3.045   2.746  19.609  0.00  0.00    +0.000 N 
ATOM     28  C   UNL     1       2.345   2.838  20.770  0.00  0.00    +0.000 C 
ATOM     29  O   UNL     1       2.823   2.841  21.916  0.00  0.00    +0.000 OA
ATOM     30  C   UNL     1       0.892   2.981  20.483  0.00  0.00    +0.000 C 
ATOM     31  C   UNL     1       0.814   3.082  18.971  0.00  0.00    +0.000 C 
ATOM     32  C   UNL     1       2.261   2.966  18.528  0.00  0.00    +0.000 C 
ATOM     33  O   UNL     1       2.631   3.082  17.372  0.00  0.00    +0.000 OA
ENDBRANCH  26  27
ENDBRANCH  25  26
ENDBRANCH  24  25
ENDBRANCH   4  24
TORSDOF 10
ENDMDL
MODEL 4
REMARK VINA RESULT:      -8.3      5.882      8.468
REMARK  Name = 
REMARK  12 active torsions:
REMARK  status: ('A' for Active; 'I' for Inactive)
REMARK    1  A    between atoms: C_1  and  C_2
REMARK    2  A    between atoms: C_2  and  C_3
REMARK    3  A    between atoms: C_3  and  N_4
REMARK    4  A    between atoms: C_3  and  C_24
REMARK    5  A    between atoms: N_4  and  C_5
REMARK    6  A    between atoms: C_5  and  C_6
REMARK    7  A    between atoms: C_9  and  O_10
REMARK    8  A    between atoms: O_10  and  C_11
REMARK    9  A    between atoms: C_11  and  C_12
REMARK   10  A    between atoms: C_12  and  N_13
REMARK   11  A    between atoms: C_20  and  O_21
REMARK   12  A    between atoms: O_21  and  C_22
REMARK                            x       y       z     vdW  Elec       q    Type
REMARK                         _______ _______ _______ _____ _____    ______ ____
ROOT
ATOM      1  C   UNL     1       2.652   8.418  18.026  0.00  0.00    +0.000 A 
ATOM      2  C   UNL     1       2.180   7.543  18.987  0.00  0.00    +0.000 A 
ATOM      3  C   UNL     1       2.742   6.275  19.128  0.00  0.00    +0.000 A 
ATOM      4  C   UNL     1       3.789   5.821  18.304  0.00  0.00    +0.000 A 
ATOM      5  C   UNL     1       4.271   6.697  17.315  0.00  0.00    +0.000 A 
ATOM      6  C   UNL     1       3.692   7.978  17.173  0.00  0.00    +0.000 A 
ENDROOT
BRANCH   5   7
ATOM      7  O   UNL     1       5.285   6.488  16.407  0.00  0.00    +0.000 OA
ATOM      8  C   UNL     1       6.624   6.554  16.876  0.00  0.00    +0.000 C 
ENDBRANCH   5   7
BRANCH   1   9
ATOM      9  C   UNL     1       2.071   9.809  17.948  0.00  0.00    +0.000 C 
BRANCH   9  10
ATOM     10  N   UNL     1       1.089  10.067  19.002  0.00  0.00    +0.000 NA
ATOM     11  H   UNL     1       0.533   9.229  19.151  0.00  0.00    +0.000 HD
BRANCH  10  12
ATOM     12  C   UNL     1       0.218  11.245  18.794  0.00  0.00    +0.000 C 
BRANCH  12  13
ATOM     13  C   UNL     1      -1.246  10.849  18.541  0.00  0.00    +0.000 A 
ATOM     14  C   UNL     1      -2.275  11.599  19.145  0.00  0.00    +0.000 A 
ATOM     15  C   UNL     1      -3.534  11.626  18.559  0.00  0.00    +0.000 A 
ATOM     16  C   UNL     1      -3.660  10.943  17.368  0.00  0.00    +0.000 A 
ATOM     17  C   UNL     1      -2.863   9.868  17.038  0.00  0.00    +0.000 A 
ATOM     18  C   UNL     1      -1.589   9.876  17.567  0.00  0.00    +0.000 A 
ATOM     19  C   UNL     1      -3.262   9.438  15.669  0.00  0.00    +0.000 C 
ATOM     20  C   UNL     1      -3.226  10.858  15.150  0.00  0.00    +0.000 C 
ATOM     21  O   UNL     1      -3.978  11.625  16.163  0.00  0.00    +0.000 OA
ENDBRANCH  12  13
BRANCH  12  23
ATOM     22  C   UNL     1       0.938  11.988  21.194  0.00  0.00    +0.000 C 
ATOM     23  C   UNL     1       0.272  12.338  19.883  0.00  0.00    +0.000 C 
ENDBRANCH  12  23
ENDBRANCH  10  12
ENDBRANCH   9  10
ENDBRANCH   1   9
BRANCH   4  24
ATOM     24  O   UNL     1       4.330   4.558  18.461  0.00  0.00    +0.000 OA
BRANCH  24  25
ATOM     25  C   UNL     1       3.952   3.627  17.441  0.00  0.00    +0.000 C 
BRANCH  25  26
ATOM     26  C   UNL     1       3.530   2.262  17.966  0.00  0.00    +0.000 C 
BRANCH  26  27
ATOM     27  N   UNL     1       2.819   2.403  19.242  0.00  0.00    +0.000 N 
ATOM     28  C   UNL     1       3.458   2.429  20.442  0.00  0.00    +0.000 C 
ATOM     29  O   UNL     1       4.678   2.297  20.626  0.00  0.00    +0.000 OA
ATOM     30  C   UNL     1       2.483   2.685  21.536  0.00  0.00    +0.000 C 
ATOM     31  C   UNL     1       1.167   2.931  20.820  0.00  0.00    +0.000 C 
ATOM     32  C   UNL     1       1.521   2.770  19.353  0.00  0.00    +0.000 C 
ATOM     33  O   UNL     1       0.740   2.970  18.438  0.00  0.00    +0.000 OA
ENDBRANCH  26  27
ENDBRANCH  25  26
ENDBRANCH  24  25
ENDBRANCH   4  24
TORSDOF 10
ENDMDL
MODEL 5
REMARK VINA RESULT:      -8.2      5.704      7.502
REMARK  Name = 
REMARK  12 active torsions:
REMARK  status: ('A' for Active; 'I' for Inactive)
REMARK    1  A    between atoms: C_1  and  C_2
REMARK    2  A    between atoms: C_2  and  C_3
REMARK    3  A    between atoms: C_3  and  N_4
REMARK    4  A    between atoms: C_3  and  C_24
REMARK    5  A    between atoms: N_4  and  C_5
REMARK    6  A    between atoms: C_5  and  C_6
REMARK    7  A    between atoms: C_9  and  O_10
REMARK    8  A    between atoms: O_10  and  C_11
REMARK    9  A    between atoms: C_11  and  C_12
REMARK   10  A    between atoms: C_12  and  N_13
REMARK   11  A    between atoms: C_20  and  O_21
REMARK   12  A    between atoms: O_21  and  C_22
REMARK                            x       y       z     vdW  Elec       q    Type
REMARK                         _______ _______ _______ _____ _____    ______ ____
ROOT
ATOM      1  C   UNL     1       2.393   8.102  18.197  0.00  0.00    +0.000 A 
ATOM      2  C   UNL     1       1.766   6.946  18.626  0.00  0.00    +0.000 A 
ATOM      3  C   UNL     1       2.343   5.699  18.391  0.00  0.00    +0.000 A 
ATOM      4  C   UNL     1       3.562   5.552  17.702  0.00  0.00    +0.000 A 
ATOM      5  C   UNL     1       4.205   6.719  17.251  0.00  0.00    +0.000 A 
ATOM      6  C   UNL     1       3.611   7.979  17.487  0.00  0.00    +0.000 A 
ENDROOT
BRANCH   5   7
ATOM      7  O   UNL     1       5.397   6.830  16.574  0.00  0.00    +0.000 OA
ATOM      8  C   UNL     1       6.599   6.815  17.332  0.00  0.00    +0.000 C 
ENDBRANCH   5   7
BRANCH   1   9
ATOM      9  C   UNL     1       1.779   9.440  18.531  0.00  0.00    +0.000 C 
BRANCH   9  10
ATOM     10  N   UNL     1       0.742   9.835  17.578  0.00  0.00    +0.000 NA
ATOM     11  H   UNL     1       1.033  10.686  17.102  0.00  0.00    +0.000 HD
BRANCH  10  12
ATOM     12  C   UNL     1      -0.621   9.986  18.136  0.00  0.00    +0.000 C 
BRANCH  12  13
ATOM     13  C   UNL     1      -0.743  11.219  19.047  0.00  0.00    +0.000 A 
ATOM     14  C   UNL     1      -0.564  11.067  20.437  0.00  0.00    +0.000 A 
ATOM     15  C   UNL     1      -0.150  12.156  21.193  0.00  0.00    +0.000 A 
ATOM     16  C   UNL     1       0.114  13.313  20.493  0.00  0.00    +0.000 A 
ATOM     17  C   UNL     1      -0.490  13.609  19.290  0.00  0.00    +0.000 A 
ATOM     18  C   UNL     1      -0.839  12.528  18.507  0.00  0.00    +0.000 A 
ATOM     19  C   UNL     1       0.084  14.903  18.825  0.00  0.00    +0.000 C 
ATOM     20  C   UNL     1       1.497  14.444  19.106  0.00  0.00    +0.000 C 
ATOM     21  O   UNL     1       1.420  13.870  20.465  0.00  0.00    +0.000 OA
ENDBRANCH  12  13
BRANCH  12  23
ATOM     22  C   UNL     1      -3.164   9.652  17.635  0.00  0.00    +0.000 C 
ATOM     23  C   UNL     1      -1.782   9.982  17.120  0.00  0.00    +0.000 C 
ENDBRANCH  12  23
ENDBRANCH  10  12
ENDBRANCH   9  10
ENDBRANCH   1   9
BRANCH   4  24
ATOM     24  O   UNL     1       4.113   4.303  17.480  0.00  0.00    +0.000 OA
BRANCH  24  25
ATOM     25  C   UNL     1       3.168   3.309  17.072  0.00  0.00    +0.000 C 
BRANCH  25  26
ATOM     26  C   UNL     1       3.231   2.019  17.877  0.00  0.00    +0.000 C 
BRANCH  26  27
ATOM     27  N   UNL     1       2.722   2.239  19.236  0.00  0.00    +0.000 N 
ATOM     28  C   UNL     1       3.533   2.528  20.288  0.00  0.00    +0.000 C 
ATOM     29  O   UNL     1       4.772   2.597  20.262  0.00  0.00    +0.000 OA
ATOM     30  C   UNL     1       2.718   2.798  21.504  0.00  0.00    +0.000 C 
ATOM     31  C   UNL     1       1.282   2.749  21.015  0.00  0.00    +0.000 C 
ATOM     32  C   UNL     1       1.416   2.431  19.537  0.00  0.00    +0.000 C 
ATOM     33  O   UNL     1       0.476   2.384  18.762  0.00  0.00    +0.000 OA
ENDBRANCH  26  27
ENDBRANCH  25  26
ENDBRANCH  24  25
ENDBRANCH   4  24
TORSDOF 10
ENDMDL
MODEL 6
REMARK VINA RESULT:      -8.2      7.008      9.847
REMARK  Name = 
REMARK  12 active torsions:
REMARK  status: ('A' for Active; 'I' for Inactive)
REMARK    1  A    between atoms: C_1  and  C_2
REMARK    2  A    between atoms: C_2  and  C_3
REMARK    3  A    between atoms: C_3  and  N_4
REMARK    4  A    between atoms: C_3  and  C_24
REMARK    5  A    between atoms: N_4  and  C_5
REMARK    6  A    between atoms: C_5  and  C_6
REMARK    7  A    between atoms: C_9  and  O_10
REMARK    8  A    between atoms: O_10  and  C_11
REMARK    9  A    between atoms: C_11  and  C_12
REMARK   10  A    between atoms: C_12  and  N_13
REMARK   11  A    between atoms: C_20  and  O_21
REMARK   12  A    between atoms: O_21  and  C_22
REMARK                            x       y       z     vdW  Elec       q    Type
REMARK                         _______ _______ _______ _____ _____    ______ ____
ROOT
ATOM      1  C   UNL     1       1.764   8.337  19.463  0.00  0.00    +0.000 A 
ATOM      2  C   UNL     1       1.628   7.819  20.738  0.00  0.00    +0.000 A 
ATOM      3  C   UNL     1       1.157   8.616  21.780  0.00  0.00    +0.000 A 
ATOM      4  C   UNL     1       0.817   9.970  21.597  0.00  0.00    +0.000 A 
ATOM      5  C   UNL     1       0.960  10.512  20.307  0.00  0.00    +0.000 A 
ATOM      6  C   UNL     1       1.444   9.701  19.257  0.00  0.00    +0.000 A 
ENDROOT
BRANCH   5   7
ATOM      7  O   UNL     1       0.682  11.791  19.883  0.00  0.00    +0.000 OA
ATOM      8  C   UNL     1       1.369  12.279  18.738  0.00  0.00    +0.000 C 
ENDBRANCH   5   7
BRANCH   1   9
ATOM      9  C   UNL     1       2.206   7.429  18.342  0.00  0.00    +0.000 C 
BRANCH   9  10
ATOM     10  N   UNL     1       2.695   6.138  18.826  0.00  0.00    +0.000 NA
ATOM     11  H   UNL     1       3.551   6.283  19.356  0.00  0.00    +0.000 HD
BRANCH  10  12
ATOM     12  C   UNL     1       2.887   5.094  17.794  0.00  0.00    +0.000 C 
BRANCH  12  13
ATOM     13  C   UNL     1       4.368   4.723  17.610  0.00  0.00    +0.000 A 
ATOM     14  C   UNL     1       4.783   4.132  16.400  0.00  0.00    +0.000 A 
ATOM     15  C   UNL     1       6.104   4.267  15.993  0.00  0.00    +0.000 A 
ATOM     16  C   UNL     1       6.909   5.039  16.803  0.00  0.00    +0.000 A 
ATOM     17  C   UNL     1       6.673   5.200  18.151  0.00  0.00    +0.000 A 
ATOM     18  C   UNL     1       5.353   5.133  18.545  0.00  0.00    +0.000 A 
ATOM     19  C   UNL     1       7.715   6.133  18.664  0.00  0.00    +0.000 C 
ATOM     20  C   UNL     1       7.491   7.102  17.525  0.00  0.00    +0.000 C 
ATOM     21  O   UNL     1       7.491   6.243  16.323  0.00  0.00    +0.000 OA
ENDBRANCH  12  13
BRANCH  12  23
ATOM     22  C   UNL     1       1.246   3.651  19.226  0.00  0.00    +0.000 C 
ATOM     23  C   UNL     1       2.052   3.807  17.957  0.00  0.00    +0.000 C 
ENDBRANCH  12  23
ENDBRANCH  10  12
ENDBRANCH   9  10
ENDBRANCH   1   9
BRANCH   4  24
ATOM     24  O   UNL     1       0.353  10.741  22.647  0.00  0.00    +0.000 OA
BRANCH  24  25
ATOM     25  C   UNL     1      -1.046  11.038  22.583  0.00  0.00    +0.000 C 
BRANCH  25  26
ATOM     26  C   UNL     1      -1.393  12.484  22.910  0.00  0.00    +0.000 C 
BRANCH  26  27
ATOM     27  N   UNL     1      -2.720  12.822  22.381  0.00  0.00    +0.000 N 
ATOM     28  C   UNL     1      -2.919  13.238  21.102  0.00  0.00    +0.000 C 
ATOM     29  O   UNL     1      -2.039  13.427  20.247  0.00  0.00    +0.000 OA
ATOM     30  C   UNL     1      -4.374  13.403  20.838  0.00  0.00    +0.000 C 
ATOM     31  C   UNL     1      -5.047  12.912  22.107  0.00  0.00    +0.000 C 
ATOM     32  C   UNL     1      -3.885  12.523  23.002  0.00  0.00    +0.000 C 
ATOM     33  O   UNL     1      -4.013  12.002  24.097  0.00  0.00    +0.000 OA
ENDBRANCH  26  27
ENDBRANCH  25  26
ENDBRANCH  24  25
ENDBRANCH   4  24
TORSDOF 10
ENDMDL
MODEL 7
REMARK VINA RESULT:      -8.1      6.527      9.685
REMARK  Name = 
REMARK  12 active torsions:
REMARK  status: ('A' for Active; 'I' for Inactive)
REMARK    1  A    between atoms: C_1  and  C_2
REMARK    2  A    between atoms: C_2  and  C_3
REMARK    3  A    between atoms: C_3  and  N_4
REMARK    4  A    between atoms: C_3  and  C_24
REMARK    5  A    between atoms: N_4  and  C_5
REMARK    6  A    between atoms: C_5  and  C_6
REMARK    7  A    between atoms: C_9  and  O_10
REMARK    8  A    between atoms: O_10  and  C_11
REMARK    9  A    between atoms: C_11  and  C_12
REMARK   10  A    between atoms: C_12  and  N_13
REMARK   11  A    between atoms: C_20  and  O_21
REMARK   12  A    between atoms: O_21  and  C_22
REMARK                            x       y       z     vdW  Elec       q    Type
REMARK                         _______ _______ _______ _____ _____    ______ ____
ROOT
ATOM      1  C   UNL     1       2.173   7.645  19.112  0.00  0.00    +0.000 A 
ATOM      2  C   UNL     1       2.055   8.347  17.926  0.00  0.00    +0.000 A 
ATOM      3  C   UNL     1       1.410   9.582  17.896  0.00  0.00    +0.000 A 
ATOM      4  C   UNL     1       0.841  10.162  19.046  0.00  0.00    +0.000 A 
ATOM      5  C   UNL     1       0.945   9.453  20.257  0.00  0.00    +0.000 A 
ATOM      6  C   UNL     1       1.594   8.198  20.278  0.00  0.00    +0.000 A 
ENDROOT
BRANCH   5   7
ATOM      7  O   UNL     1       0.485   9.816  21.502  0.00  0.00    +0.000 OA
ATOM      8  C   UNL     1       1.095   9.220  22.638  0.00  0.00    +0.000 C 
ENDBRANCH   5   7
BRANCH   1   9
ATOM      9  C   UNL     1       2.941   6.345  19.124  0.00  0.00    +0.000 C 
BRANCH   9  10
ATOM     10  N   UNL     1       2.765   5.578  17.890  0.00  0.00    +0.000 NA
ATOM     11  H   UNL     1       1.784   5.596  17.624  0.00  0.00    +0.000 HD
BRANCH  10  12
ATOM     12  C   UNL     1       3.277   4.190  17.917  0.00  0.00    +0.000 C 
BRANCH  12  13
ATOM     13  C   UNL     1       4.781   4.117  17.604  0.00  0.00    +0.000 A 
ATOM     14  C   UNL     1       5.194   3.800  16.294  0.00  0.00    +0.000 A 
ATOM     15  C   UNL     1       6.440   4.225  15.852  0.00  0.00    +0.000 A 
ATOM     16  C   UNL     1       7.165   4.994  16.737  0.00  0.00    +0.000 A 
ATOM     17  C   UNL     1       7.009   4.904  18.103  0.00  0.00    +0.000 A 
ATOM     18  C   UNL     1       5.752   4.546  18.544  0.00  0.00    +0.000 A 
ATOM     19  C   UNL     1       7.918   5.916  18.710  0.00  0.00    +0.000 C 
ATOM     20  C   UNL     1       7.450   6.993  17.756  0.00  0.00    +0.000 C 
ATOM     21  O   UNL     1       7.501   6.340  16.432  0.00  0.00    +0.000 OA
ENDBRANCH  12  13
BRANCH  12  23
ATOM     22  C   UNL     1       1.546   2.967  19.446  0.00  0.00    +0.000 C 
ATOM     23  C   UNL     1       2.979   3.375  19.194  0.00  0.00    +0.000 C 
ENDBRANCH  12  23
ENDBRANCH  10  12
ENDBRANCH   9  10
ENDBRANCH   1   9
BRANCH   4  24
ATOM     24  O   UNL     1       0.205  11.389  18.991  0.00  0.00    +0.000 OA
BRANCH  24  25
ATOM     25  C   UNL     1      -1.216  11.320  19.156  0.00  0.00    +0.000 C 
BRANCH  25  26
ATOM     26  C   UNL     1      -2.009  11.838  17.965  0.00  0.00    +0.000 C 
BRANCH  26  27
ATOM     27  N   UNL     1      -3.447  11.647  18.186  0.00  0.00    +0.000 N 
ATOM     28  C   UNL     1      -4.103  12.167  19.258  0.00  0.00    +0.000 C 
ATOM     29  O   UNL     1      -3.592  12.812  20.187  0.00  0.00    +0.000 OA
ATOM     30  C   UNL     1      -5.561  11.890  19.150  0.00  0.00    +0.000 C 
ATOM     31  C   UNL     1      -5.720  11.227  17.794  0.00  0.00    +0.000 C 
ATOM     32  C   UNL     1      -4.303  11.169  17.253  0.00  0.00    +0.000 C 
ATOM     33  O   UNL     1      -4.015  10.771  16.137  0.00  0.00    +0.000 OA
ENDBRANCH  26  27
ENDBRANCH  25  26
ENDBRANCH  24  25
ENDBRANCH   4  24
TORSDOF 10
ENDMDL
MODEL 8
REMARK VINA RESULT:      -8.1      7.366     10.130
REMARK  Name = 
REMARK  12 active torsions:
REMARK  status: ('A' for Active; 'I' for Inactive)
REMARK    1  A    between atoms: C_1  and  C_2
REMARK    2  A    between atoms: C_2  and  C_3
REMARK    3  A    between atoms: C_3  and  N_4
REMARK    4  A    between atoms: C_3  and  C_24
REMARK    5  A    between atoms: N_4  and  C_5
REMARK    6  A    between atoms: C_5  and  C_6
REMARK    7  A    between atoms: C_9  and  O_10
REMARK    8  A    between atoms: O_10  and  C_11
REMARK    9  A    between atoms: C_11  and  C_12
REMARK   10  A    between atoms: C_12  and  N_13
REMARK   11  A    between atoms: C_20  and  O_21
REMARK   12  A    between atoms: O_21  and  C_22
REMARK                            x       y       z     vdW  Elec       q    Type
REMARK                         _______ _______ _______ _____ _____    ______ ____
ROOT
ATOM      1  C   UNL     1       1.688   8.609  19.000  0.00  0.00    +0.000 A 
ATOM      2  C   UNL     1       1.458   8.304  20.329  0.00  0.00    +0.000 A 
ATOM      3  C   UNL     1       0.529   9.030  21.073  0.00  0.00    +0.000 A 
ATOM      4  C   UNL     1      -0.200  10.102  20.525  0.00  0.00    +0.000 A 
ATOM      5  C   UNL     1       0.032  10.430  19.176  0.00  0.00    +0.000 A 
ATOM      6  C   UNL     1       0.980   9.695  18.431  0.00  0.00    +0.000 A 
ENDROOT
BRANCH   5   7
ATOM      7  O   UNL     1      -0.561  11.418  18.423  0.00  0.00    +0.000 OA
ATOM      8  C   UNL     1      -0.029  12.732  18.508  0.00  0.00    +0.000 C 
ENDBRANCH   5   7
BRANCH   1   9
ATOM      9  C   UNL     1       2.646   7.758  18.204  0.00  0.00    +0.000 C 
BRANCH   9  10
ATOM     10  N   UNL     1       2.799   6.414  18.761  0.00  0.00    +0.000 NA
ATOM     11  H   UNL     1       3.564   6.416  19.432  0.00  0.00    +0.000 HD
BRANCH  10  12
ATOM     12  C   UNL     1       2.970   5.324  17.775  0.00  0.00    +0.000 C 
BRANCH  12  13
ATOM     13  C   UNL     1       4.446   4.935  17.586  0.00  0.00    +0.000 A 
ATOM     14  C   UNL     1       4.856   4.370  16.361  0.00  0.00    +0.000 A 
ATOM     15  C   UNL     1       6.180   4.496  15.962  0.00  0.00    +0.000 A 
ATOM     16  C   UNL     1       6.994   5.235  16.794  0.00  0.00    +0.000 A 
ATOM     17  C   UNL     1       6.756   5.365  18.145  0.00  0.00    +0.000 A 
ATOM     18  C   UNL     1       5.433   5.307  18.534  0.00  0.00    +0.000 A 
ATOM     19  C   UNL     1       7.809   6.269  18.685  0.00  0.00    +0.000 C 
ATOM     20  C   UNL     1       7.603   7.271  17.570  0.00  0.00    +0.000 C 
ATOM     21  O   UNL     1       7.594   6.443  16.347  0.00  0.00    +0.000 OA
ENDBRANCH  12  13
BRANCH  12  23
ATOM     22  C   UNL     1       1.364   3.945  19.307  0.00  0.00    +0.000 C 
ATOM     23  C   UNL     1       2.130   4.050  18.009  0.00  0.00    +0.000 C 
ENDBRANCH  12  23
ENDBRANCH  10  12
ENDBRANCH   9  10
ENDBRANCH   1   9
BRANCH   4  24
ATOM     24  O   UNL     1      -1.115  10.809  21.283  0.00  0.00    +0.000 OA
BRANCH  24  25
ATOM     25  C   UNL     1      -0.525  11.704  22.231  0.00  0.00    +0.000 C 
BRANCH  25  26
ATOM     26  C   UNL     1      -0.991  13.147  22.104  0.00  0.00    +0.000 C 
BRANCH  26  27
ATOM     27  N   UNL     1      -1.831  13.516  23.251  0.00  0.00    +0.000 N 
ATOM     28  C   UNL     1      -1.507  14.520  24.107  0.00  0.00    +0.000 C 
ATOM     29  O   UNL     1      -0.475  15.210  24.072  0.00  0.00    +0.000 OA
ATOM     30  C   UNL     1      -2.599  14.721  25.098  0.00  0.00    +0.000 C 
ATOM     31  C   UNL     1      -3.694  13.769  24.651  0.00  0.00    +0.000 C 
ATOM     32  C   UNL     1      -3.102  13.089  23.430  0.00  0.00    +0.000 C 
ATOM     33  O   UNL     1      -3.712  12.301  22.727  0.00  0.00    +0.000 OA
ENDBRANCH  26  27
ENDBRANCH  25  26
ENDBRANCH  24  25
ENDBRANCH   4  24
TORSDOF 10
ENDMDL
MODEL 9
REMARK VINA RESULT:      -8.1      6.170      9.389
REMARK  Name = 
REMARK  12 active torsions:
REMARK  status: ('A' for Active; 'I' for Inactive)
REMARK    1  A    between atoms: C_1  and  C_2
REMARK    2  A    between atoms: C_2  and  C_3
REMARK    3  A    between atoms: C_3  and  N_4
REMARK    4  A    between atoms: C_3  and  C_24
REMARK    5  A    between atoms: N_4  and  C_5
REMARK    6  A    between atoms: C_5  and  C_6
REMARK    7  A    between atoms: C_9  and  O_10
REMARK    8  A    between atoms: O_10  and  C_11
REMARK    9  A    between atoms: C_11  and  C_12
REMARK   10  A    between atoms: C_12  and  N_13
REMARK   11  A    between atoms: C_20  and  O_21
REMARK   12  A    between atoms: O_21  and  C_22
REMARK                            x       y       z     vdW  Elec       q    Type
REMARK                         _______ _______ _______ _____ _____    ______ ____
ROOT
ATOM      1  C   UNL     1       2.184   7.602  19.118  0.00  0.00    +0.000 A 
ATOM      2  C   UNL     1       2.261   8.338  17.950  0.00  0.00    +0.000 A 
ATOM      3  C   UNL     1       1.761   9.639  17.898  0.00  0.00    +0.000 A 
ATOM      4  C   UNL     1       1.150  10.254  19.007  0.00  0.00    +0.000 A 
ATOM      5  C   UNL     1       1.056   9.512  20.198  0.00  0.00    +0.000 A 
ATOM      6  C   UNL     1       1.557   8.192  20.241  0.00  0.00    +0.000 A 
ENDROOT
BRANCH   5   7
ATOM      7  O   UNL     1       0.518   9.898  21.405  0.00  0.00    +0.000 OA
ATOM      8  C   UNL     1       0.952   9.220  22.576  0.00  0.00    +0.000 C 
ENDBRANCH   5   7
BRANCH   1   9
ATOM      9  C   UNL     1       2.799   6.224  19.161  0.00  0.00    +0.000 C 
BRANCH   9  10
ATOM     10  N   UNL     1       2.749   5.546  17.866  0.00  0.00    +0.000 NA
ATOM     11  H   UNL     1       1.798   5.586  17.506  0.00  0.00    +0.000 HD
BRANCH  10  12
ATOM     12  C   UNL     1       3.258   4.157  17.847  0.00  0.00    +0.000 C 
BRANCH  12  13
ATOM     13  C   UNL     1       4.766   4.093  17.550  0.00  0.00    +0.000 A 
ATOM     14  C   UNL     1       5.196   3.790  16.242  0.00  0.00    +0.000 A 
ATOM     15  C   UNL     1       6.445   4.226  15.818  0.00  0.00    +0.000 A 
ATOM     16  C   UNL     1       7.156   4.989  16.718  0.00  0.00    +0.000 A 
ATOM     17  C   UNL     1       6.985   4.886  18.082  0.00  0.00    +0.000 A 
ATOM     18  C   UNL     1       5.724   4.519  18.505  0.00  0.00    +0.000 A 
ATOM     19  C   UNL     1       7.881   5.896  18.708  0.00  0.00    +0.000 C 
ATOM     20  C   UNL     1       7.420   6.980  17.759  0.00  0.00    +0.000 C 
ATOM     21  O   UNL     1       7.489   6.340  16.430  0.00  0.00    +0.000 OA
ENDBRANCH  12  13
BRANCH  12  23
ATOM     22  C   UNL     1       1.900   2.210  18.941  0.00  0.00    +0.000 C 
ATOM     23  C   UNL     1       2.943   3.295  19.087  0.00  0.00    +0.000 C 
ENDBRANCH  12  23
ENDBRANCH  10  12
ENDBRANCH   9  10
ENDBRANCH   1   9
BRANCH   4  24
ATOM     24  O   UNL     1       0.660  11.545  18.931  0.00  0.00    +0.000 OA
BRANCH  24  25
ATOM     25  C   UNL     1      -0.758  11.645  19.099  0.00  0.00    +0.000 C 
BRANCH  25  26
ATOM     26  C   UNL     1      -1.539  10.468  18.533  0.00  0.00    +0.000 C 
BRANCH  26  27
ATOM     27  N   UNL     1      -2.712  10.943  17.789  0.00  0.00    +0.000 N 
ATOM     28  C   UNL     1      -3.003  10.523  16.529  0.00  0.00    +0.000 C 
ATOM     29  O   UNL     1      -2.324   9.746  15.839  0.00  0.00    +0.000 OA
ATOM     30  C   UNL     1      -4.301  11.100  16.085  0.00  0.00    +0.000 C 
ATOM     31  C   UNL     1      -4.822  11.841  17.303  0.00  0.00    +0.000 C 
ATOM     32  C   UNL     1      -3.739  11.628  18.344  0.00  0.00    +0.000 C 
ATOM     33  O   UNL     1      -3.820  12.007  19.500  0.00  0.00    +0.000 OA
ENDBRANCH  26  27
ENDBRANCH  25  26
ENDBRANCH  24  25
ENDBRANCH   4  24
TORSDOF 10
ENDMDL
