MODEL 1
REMARK VINA RESULT:      -6.4      0.000      0.000
REMARK  Name = 
REMARK  15 active torsions:
REMARK  status: ('A' for Active; 'I' for Inactive)
REMARK    1  A    between atoms: C_1  and  C_2
REMARK    2  A    between atoms: C_2  and  C_3
REMARK    3  A    between atoms: C_2  and  C_4
REMARK    4  A    between atoms: C_2  and  N_5
REMARK    5  A    between atoms: C_6  and  C_8
REMARK    6  A    between atoms: C_8  and  S_9
REMARK    7  A    between atoms: S_9  and  C_10
REMARK    8  A    between atoms: C_13  and  S_14
REMARK    9  A    between atoms: S_14  and  C_15
REMARK   10  A    between atoms: C_15  and  C_16
REMARK   11  A    between atoms: N_18  and  C_19
REMARK   12  A    between atoms: C_19  and  C_20
REMARK   13  A    between atoms: C_19  and  C_21
REMARK   14  A    between atoms: C_19  and  C_22
REMARK   15  A    between atoms: C_23  and  C_24
REMARK                            x       y       z     vdW  Elec       q    Type
REMARK                         _______ _______ _______ _____ _____    ______ ____
ROOT
ATOM      1  C   UNL     1       0.879  10.724  19.587  0.00  0.00    +0.000 A 
ATOM      2  N   UNL     1       1.141  10.518  18.299  0.00  0.00    +0.000 NA
ATOM      3  S   UNL     1       1.712   8.970  18.118  0.00  0.00    +0.000 S 
ATOM      4  C   UNL     1       1.612   8.537  19.774  0.00  0.00    +0.000 A 
ATOM      5  C   UNL     1       1.141   9.634  20.473  0.00  0.00    +0.000 A 
ENDROOT
BRANCH   5   6
ATOM      6  C   UNL     1       0.940   9.642  21.888  0.00  0.00    +0.000 C 
ATOM      7  N   UNL     1       0.766   9.678  23.034  0.00  0.00    +0.000 NA
ENDBRANCH   5   6
BRANCH   1   8
ATOM      8  S   UNL     1       0.276  12.294  20.123  0.00  0.00    +0.000 S 
BRANCH   8   9
ATOM      9  C   UNL     1      -0.539  12.913  18.621  0.00  0.00    +0.000 C 
BRANCH   9  11
ATOM     10  N   UNL     1      -1.940  11.637  17.064  0.00  0.00    +0.000 N 
ATOM     11  C   UNL     1      -1.815  12.131  18.351  0.00  0.00    +0.000 C 
ATOM     12  O   UNL     1      -2.635  11.922  19.241  0.00  0.00    +0.000 OA
ATOM     13  H   UNL     1      -1.249  11.940  16.386  0.00  0.00    +0.000 HD
BRANCH  10  15
ATOM     14  C   UNL     1      -2.894  10.447  15.102  0.00  0.00    +0.000 C 
ATOM     15  C   UNL     1      -3.085  10.851  16.573  0.00  0.00    +0.000 C 
ATOM     16  C   UNL     1      -4.395  11.638  16.740  0.00  0.00    +0.000 C 
ATOM     17  C   UNL     1      -3.193   9.559  17.407  0.00  0.00    +0.000 C 
ENDBRANCH  10  15
ENDBRANCH   9  11
ENDBRANCH   8   9
ENDBRANCH   1   8
BRANCH   4  18
ATOM     18  S   UNL     1       1.969   6.933  20.403  0.00  0.00    +0.000 S 
BRANCH  18  19
ATOM     19  C   UNL     1       2.286   5.967  18.901  0.00  0.00    +0.000 C 
BRANCH  19  20
ATOM     20  C   UNL     1       3.770   5.789  18.648  0.00  0.00    +0.000 C 
ATOM     21  O   UNL     1       4.541   5.549  19.573  0.00  0.00    +0.000 OA
ATOM     22  N   UNL     1       4.166   5.940  17.332  0.00  0.00    +0.000 N 
ATOM     23  H   UNL     1       3.440   6.029  16.630  0.00  0.00    +0.000 HD
BRANCH  22  24
ATOM     24  C   UNL     1       5.552   5.780  16.860  0.00  0.00    +0.000 C 
ATOM     25  C   UNL     1       6.172   4.490  17.425  0.00  0.00    +0.000 C 
ATOM     26  C   UNL     1       5.548   5.678  15.324  0.00  0.00    +0.000 C 
ATOM     27  C   UNL     1       6.406   6.997  17.252  0.00  0.00    +0.000 C 
ENDBRANCH  22  24
ENDBRANCH  19  20
ENDBRANCH  18  19
ENDBRANCH   4  18
TORSDOF 9
ENDMDL
MODEL 2
REMARK VINA RESULT:      -6.4      2.024      2.368
REMARK  Name = 
REMARK  15 active torsions:
REMARK  status: ('A' for Active; 'I' for Inactive)
REMARK    1  A    between atoms: C_1  and  C_2
REMARK    2  A    between atoms: C_2  and  C_3
REMARK    3  A    between atoms: C_2  and  C_4
REMARK    4  A    between atoms: C_2  and  N_5
REMARK    5  A    between atoms: C_6  and  C_8
REMARK    6  A    between atoms: C_8  and  S_9
REMARK    7  A    between atoms: S_9  and  C_10
REMARK    8  A    between atoms: C_13  and  S_14
REMARK    9  A    between atoms: S_14  and  C_15
REMARK   10  A    between atoms: C_15  and  C_16
REMARK   11  A    between atoms: N_18  and  C_19
REMARK   12  A    between atoms: C_19  and  C_20
REMARK   13  A    between atoms: C_19  and  C_21
REMARK   14  A    between atoms: C_19  and  C_22
REMARK   15  A    between atoms: C_23  and  C_24
REMARK                            x       y       z     vdW  Elec       q    Type
REMARK                         _______ _______ _______ _____ _____    ______ ____
ROOT
ATOM      1  C   UNL     1       0.643  11.159  19.828  0.00  0.00    +0.000 A 
ATOM      2  N   UNL     1       1.098  10.900  18.605  0.00  0.00    +0.000 NA
ATOM      3  S   UNL     1       1.610   9.323  18.557  0.00  0.00    +0.000 S 
ATOM      4  C   UNL     1       1.222   8.947  20.183  0.00  0.00    +0.000 A 
ATOM      5  C   UNL     1       0.701  10.087  20.770  0.00  0.00    +0.000 A 
ENDROOT
BRANCH   5   6
ATOM      6  C   UNL     1       0.274  10.149  22.133  0.00  0.00    +0.000 C 
ATOM      7  N   UNL     1      -0.066  10.230  23.238  0.00  0.00    +0.000 NA
ENDBRANCH   5   6
BRANCH   1   8
ATOM      8  S   UNL     1       0.043  12.772  20.221  0.00  0.00    +0.000 S 
BRANCH   8   9
ATOM      9  C   UNL     1      -0.777  13.254  18.673  0.00  0.00    +0.000 C 
BRANCH   9  11
ATOM     10  N   UNL     1      -2.028  11.835  17.111  0.00  0.00    +0.000 N 
ATOM     11  C   UNL     1      -1.963  12.342  18.397  0.00  0.00    +0.000 C 
ATOM     12  O   UNL     1      -2.763  12.053  19.283  0.00  0.00    +0.000 OA
ATOM     13  H   UNL     1      -1.367  12.205  16.437  0.00  0.00    +0.000 HD
BRANCH  10  15
ATOM     14  C   UNL     1      -2.848  10.557  15.144  0.00  0.00    +0.000 C 
ATOM     15  C   UNL     1      -3.082  10.932  16.617  0.00  0.00    +0.000 C 
ATOM     16  C   UNL     1      -4.469  11.574  16.785  0.00  0.00    +0.000 C 
ATOM     17  C   UNL     1      -3.052   9.633  17.445  0.00  0.00    +0.000 C 
ENDBRANCH  10  15
ENDBRANCH   9  11
ENDBRANCH   8   9
ENDBRANCH   1   8
BRANCH   4  18
ATOM     18  S   UNL     1       1.388   7.348  20.900  0.00  0.00    +0.000 S 
BRANCH  18  19
ATOM     19  C   UNL     1       2.374   6.451  19.670  0.00  0.00    +0.000 C 
BRANCH  19  20
ATOM     20  C   UNL     1       2.491   4.977  20.008  0.00  0.00    +0.000 C 
ATOM     21  O   UNL     1       2.209   4.566  21.131  0.00  0.00    +0.000 OA
ATOM     22  N   UNL     1       2.947   4.172  18.982  0.00  0.00    +0.000 N 
ATOM     23  H   UNL     1       3.047   4.591  18.064  0.00  0.00    +0.000 HD
BRANCH  22  24
ATOM     24  C   UNL     1       3.106   2.711  19.084  0.00  0.00    +0.000 C 
ATOM     25  C   UNL     1       4.187   2.353  20.117  0.00  0.00    +0.000 C 
ATOM     26  C   UNL     1       1.773   2.096  19.550  0.00  0.00    +0.000 C 
ATOM     27  C   UNL     1       3.454   2.103  17.715  0.00  0.00    +0.000 C 
ENDBRANCH  22  24
ENDBRANCH  19  20
ENDBRANCH  18  19
ENDBRANCH   4  18
TORSDOF 9
ENDMDL
MODEL 3
REMARK VINA RESULT:      -6.0      3.145      4.732
REMARK  Name = 
REMARK  15 active torsions:
REMARK  status: ('A' for Active; 'I' for Inactive)
REMARK    1  A    between atoms: C_1  and  C_2
REMARK    2  A    between atoms: C_2  and  C_3
REMARK    3  A    between atoms: C_2  and  C_4
REMARK    4  A    between atoms: C_2  and  N_5
REMARK    5  A    between atoms: C_6  and  C_8
REMARK    6  A    between atoms: C_8  and  S_9
REMARK    7  A    between atoms: S_9  and  C_10
REMARK    8  A    between atoms: C_13  and  S_14
REMARK    9  A    between atoms: S_14  and  C_15
REMARK   10  A    between atoms: C_15  and  C_16
REMARK   11  A    between atoms: N_18  and  C_19
REMARK   12  A    between atoms: C_19  and  C_20
REMARK   13  A    between atoms: C_19  and  C_21
REMARK   14  A    between atoms: C_19  and  C_22
REMARK   15  A    between atoms: C_23  and  C_24
REMARK                            x       y       z     vdW  Elec       q    Type
REMARK                         _______ _______ _______ _____ _____    ______ ____
ROOT
ATOM      1  C   UNL     1       3.008   6.987  18.171  0.00  0.00    +0.000 A 
ATOM      2  N   UNL     1       4.040   7.707  17.738  0.00  0.00    +0.000 NA
ATOM      3  S   UNL     1       5.134   6.684  17.025  0.00  0.00    +0.000 S 
ATOM      4  C   UNL     1       4.240   5.244  17.277  0.00  0.00    +0.000 A 
ATOM      5  C   UNL     1       3.075   5.578  17.946  0.00  0.00    +0.000 A 
ENDROOT
BRANCH   5   6
ATOM      6  C   UNL     1       2.086   4.623  18.336  0.00  0.00    +0.000 C 
ATOM      7  N   UNL     1       1.283   3.860  18.679  0.00  0.00    +0.000 NA
ENDBRANCH   5   6
BRANCH   1   8
ATOM      8  S   UNL     1       1.671   7.779  19.007  0.00  0.00    +0.000 S 
BRANCH   8   9
ATOM      9  C   UNL     1       1.447   9.283  18.012  0.00  0.00    +0.000 C 
BRANCH   9  11
ATOM     10  N   UNL     1      -0.768   9.965  17.205  0.00  0.00    +0.000 N 
ATOM     11  C   UNL     1       0.087   9.905  18.293  0.00  0.00    +0.000 C 
ATOM     12  O   UNL     1      -0.224  10.273  19.423  0.00  0.00    +0.000 OA
ATOM     13  H   UNL     1      -0.381   9.713  16.302  0.00  0.00    +0.000 HD
BRANCH  10  15
ATOM     14  C   UNL     1      -2.162  11.876  17.966  0.00  0.00    +0.000 C 
ATOM     15  C   UNL     1      -2.131  10.521  17.239  0.00  0.00    +0.000 C 
ATOM     16  C   UNL     1      -3.102   9.538  17.913  0.00  0.00    +0.000 C 
ATOM     17  C   UNL     1      -2.610  10.751  15.792  0.00  0.00    +0.000 C 
ENDBRANCH  10  15
ENDBRANCH   9  11
ENDBRANCH   8   9
ENDBRANCH   1   8
BRANCH   4  18
ATOM     18  S   UNL     1       4.721   3.659  16.681  0.00  0.00    +0.000 S 
BRANCH  18  19
ATOM     19  C   UNL     1       6.340   3.980  15.930  0.00  0.00    +0.000 C 
BRANCH  19  20
ATOM     20  C   UNL     1       6.228   4.254  14.443  0.00  0.00    +0.000 C 
ATOM     21  O   UNL     1       6.186   5.406  14.018  0.00  0.00    +0.000 OA
ATOM     22  N   UNL     1       6.156   3.131  13.641  0.00  0.00    +0.000 N 
ATOM     23  H   UNL     1       6.308   2.230  14.079  0.00  0.00    +0.000 HD
BRANCH  22  24
ATOM     24  C   UNL     1       6.074   3.168  12.170  0.00  0.00    +0.000 C 
ATOM     25  C   UNL     1       6.318   1.770  11.578  0.00  0.00    +0.000 C 
ATOM     26  C   UNL     1       4.662   3.625  11.760  0.00  0.00    +0.000 C 
ATOM     27  C   UNL     1       7.083   4.174  11.592  0.00  0.00    +0.000 C 
ENDBRANCH  22  24
ENDBRANCH  19  20
ENDBRANCH  18  19
ENDBRANCH   4  18
TORSDOF 9
ENDMDL
MODEL 4
REMARK VINA RESULT:      -6.0      6.423      8.813
REMARK  Name = 
REMARK  15 active torsions:
REMARK  status: ('A' for Active; 'I' for Inactive)
REMARK    1  A    between atoms: C_1  and  C_2
REMARK    2  A    between atoms: C_2  and  C_3
REMARK    3  A    between atoms: C_2  and  C_4
REMARK    4  A    between atoms: C_2  and  N_5
REMARK    5  A    between atoms: C_6  and  C_8
REMARK    6  A    between atoms: C_8  and  S_9
REMARK    7  A    between atoms: S_9  and  C_10
REMARK    8  A    between atoms: C_13  and  S_14
REMARK    9  A    between atoms: S_14  and  C_15
REMARK   10  A    between atoms: C_15  and  C_16
REMARK   11  A    between atoms: N_18  and  C_19
REMARK   12  A    between atoms: C_19  and  C_20
REMARK   13  A    between atoms: C_19  and  C_21
REMARK   14  A    between atoms: C_19  and  C_22
REMARK   15  A    between atoms: C_23  and  C_24
REMARK                            x       y       z     vdW  Elec       q    Type
REMARK                         _______ _______ _______ _____ _____    ______ ____
ROOT
ATOM      1  C   UNL     1       7.134   6.237  17.228  0.00  0.00    +0.000 A 
ATOM      2  N   UNL     1       7.517   6.127  15.959  0.00  0.00    +0.000 NA
ATOM      3  S   UNL     1       6.427   5.164  15.160  0.00  0.00    +0.000 S 
ATOM      4  C   UNL     1       5.405   4.878  16.506  0.00  0.00    +0.000 A 
ATOM      5  C   UNL     1       5.944   5.536  17.597  0.00  0.00    +0.000 A 
ENDROOT
BRANCH   5   6
ATOM      6  C   UNL     1       5.362   5.512  18.902  0.00  0.00    +0.000 C 
ATOM      7  N   UNL     1       4.865   5.478  19.949  0.00  0.00    +0.000 NA
ENDBRANCH   5   6
BRANCH   1   8
ATOM      8  S   UNL     1       8.101   7.182  18.362  0.00  0.00    +0.000 S 
BRANCH   8   9
ATOM      9  C   UNL     1       7.944   8.859  17.680  0.00  0.00    +0.000 C 
BRANCH   9  11
ATOM     10  N   UNL     1       9.018  11.057  17.860  0.00  0.00    +0.000 N 
ATOM     11  C   UNL     1       8.803   9.834  18.471  0.00  0.00    +0.000 C 
ATOM     12  O   UNL     1       9.220   9.551  19.591  0.00  0.00    +0.000 OA
ATOM     13  H   UNL     1       8.701  11.155  16.902  0.00  0.00    +0.000 HD
BRANCH  10  15
ATOM     14  C   UNL     1       9.209  12.643  19.763  0.00  0.00    +0.000 C 
ATOM     15  C   UNL     1       9.814  12.155  18.436  0.00  0.00    +0.000 C 
ATOM     16  C   UNL     1       9.924  13.324  17.444  0.00  0.00    +0.000 C 
ATOM     17  C   UNL     1      11.236  11.639  18.727  0.00  0.00    +0.000 C 
ENDBRANCH  10  15
ENDBRANCH   9  11
ENDBRANCH   8   9
ENDBRANCH   1   8
BRANCH   4  18
ATOM     18  S   UNL     1       3.895   3.977  16.431  0.00  0.00    +0.000 S 
BRANCH  18  19
ATOM     19  C   UNL     1       4.247   2.507  17.433  0.00  0.00    +0.000 C 
BRANCH  19  20
ATOM     20  C   UNL     1       3.248   2.341  18.561  0.00  0.00    +0.000 C 
ATOM     21  O   UNL     1       2.910   1.224  18.942  0.00  0.00    +0.000 OA
ATOM     22  N   UNL     1       2.753   3.520  19.088  0.00  0.00    +0.000 N 
ATOM     23  H   UNL     1       3.176   4.387  18.778  0.00  0.00    +0.000 HD
BRANCH  22  24
ATOM     24  C   UNL     1       1.798   3.590  20.207  0.00  0.00    +0.000 C 
ATOM     25  C   UNL     1       1.443   5.052  20.527  0.00  0.00    +0.000 C 
ATOM     26  C   UNL     1       0.503   2.858  19.806  0.00  0.00    +0.000 C 
ATOM     27  C   UNL     1       2.367   2.894  21.455  0.00  0.00    +0.000 C 
ENDBRANCH  22  24
ENDBRANCH  19  20
ENDBRANCH  18  19
ENDBRANCH   4  18
TORSDOF 9
ENDMDL
MODEL 5
REMARK VINA RESULT:      -6.0      3.410      4.481
REMARK  Name = 
REMARK  15 active torsions:
REMARK  status: ('A' for Active; 'I' for Inactive)
REMARK    1  A    between atoms: C_1  and  C_2
REMARK    2  A    between atoms: C_2  and  C_3
REMARK    3  A    between atoms: C_2  and  C_4
REMARK    4  A    between atoms: C_2  and  N_5
REMARK    5  A    between atoms: C_6  and  C_8
REMARK    6  A    between atoms: C_8  and  S_9
REMARK    7  A    between atoms: S_9  and  C_10
REMARK    8  A    between atoms: C_13  and  S_14
REMARK    9  A    between atoms: S_14  and  C_15
REMARK   10  A    between atoms: C_15  and  C_16
REMARK   11  A    between atoms: N_18  and  C_19
REMARK   12  A    between atoms: C_19  and  C_20
REMARK   13  A    between atoms: C_19  and  C_21
REMARK   14  A    between atoms: C_19  and  C_22
REMARK   15  A    between atoms: C_23  and  C_24
REMARK                            x       y       z     vdW  Elec       q    Type
REMARK                         _______ _______ _______ _____ _____    ______ ____
ROOT
ATOM      1  C   UNL     1      -0.105  11.141  20.255  0.00  0.00    +0.000 A 
ATOM      2  N   UNL     1       0.098  11.132  18.940  0.00  0.00    +0.000 NA
ATOM      3  S   UNL     1       0.933   9.754  18.545  0.00  0.00    +0.000 S 
ATOM      4  C   UNL     1       1.035   9.130  20.138  0.00  0.00    +0.000 A 
ATOM      5  C   UNL     1       0.418  10.032  20.988  0.00  0.00    +0.000 A 
ENDROOT
BRANCH   5   6
ATOM      6  C   UNL     1       0.321   9.846  22.402  0.00  0.00    +0.000 C 
ATOM      7  N   UNL     1       0.233   9.667  23.544  0.00  0.00    +0.000 NA
ENDBRANCH   5   6
BRANCH   1   8
ATOM      8  S   UNL     1      -0.950  12.496  21.006  0.00  0.00    +0.000 S 
BRANCH   8   9
ATOM      9  C   UNL     1      -2.568  12.431  20.181  0.00  0.00    +0.000 C 
BRANCH   9  11
ATOM     10  N   UNL     1      -3.663  12.684  22.362  0.00  0.00    +0.000 N 
ATOM     11  C   UNL     1      -3.628  13.101  21.043  0.00  0.00    +0.000 C 
ATOM     12  O   UNL     1      -4.355  13.981  20.589  0.00  0.00    +0.000 OA
ATOM     13  H   UNL     1      -3.079  11.893  22.610  0.00  0.00    +0.000 HD
BRANCH  10  15
ATOM     14  C   UNL     1      -6.060  13.001  22.935  0.00  0.00    +0.000 C 
ATOM     15  C   UNL     1      -4.600  13.192  23.379  0.00  0.00    +0.000 C 
ATOM     16  C   UNL     1      -4.327  14.675  23.675  0.00  0.00    +0.000 C 
ATOM     17  C   UNL     1      -4.395  12.398  24.684  0.00  0.00    +0.000 C 
ENDBRANCH  10  15
ENDBRANCH   9  11
ENDBRANCH   8   9
ENDBRANCH   1   8
BRANCH   4  18
ATOM     18  S   UNL     1       1.728   7.566  20.549  0.00  0.00    +0.000 S 
BRANCH  18  19
ATOM     19  C   UNL     1       2.471   7.025  18.986  0.00  0.00    +0.000 C 
BRANCH  19  20
ATOM     20  C   UNL     1       2.456   5.515  18.848  0.00  0.00    +0.000 C 
ATOM     21  O   UNL     1       2.781   4.978  17.792  0.00  0.00    +0.000 OA
ATOM     22  N   UNL     1       2.039   4.825  19.970  0.00  0.00    +0.000 N 
ATOM     23  H   UNL     1       1.899   5.354  20.823  0.00  0.00    +0.000 HD
BRANCH  22  24
ATOM     24  C   UNL     1       1.979   3.356  20.064  0.00  0.00    +0.000 C 
ATOM     25  C   UNL     1       3.360   2.738  19.787  0.00  0.00    +0.000 C 
ATOM     26  C   UNL     1       1.555   2.964  21.491  0.00  0.00    +0.000 C 
ATOM     27  C   UNL     1       0.936   2.788  19.087  0.00  0.00    +0.000 C 
ENDBRANCH  22  24
ENDBRANCH  19  20
ENDBRANCH  18  19
ENDBRANCH   4  18
TORSDOF 9
ENDMDL
MODEL 6
REMARK VINA RESULT:      -6.0      0.922      1.361
REMARK  Name = 
REMARK  15 active torsions:
REMARK  status: ('A' for Active; 'I' for Inactive)
REMARK    1  A    between atoms: C_1  and  C_2
REMARK    2  A    between atoms: C_2  and  C_3
REMARK    3  A    between atoms: C_2  and  C_4
REMARK    4  A    between atoms: C_2  and  N_5
REMARK    5  A    between atoms: C_6  and  C_8
REMARK    6  A    between atoms: C_8  and  S_9
REMARK    7  A    between atoms: S_9  and  C_10
REMARK    8  A    between atoms: C_13  and  S_14
REMARK    9  A    between atoms: S_14  and  C_15
REMARK   10  A    between atoms: C_15  and  C_16
REMARK   11  A    between atoms: N_18  and  C_19
REMARK   12  A    between atoms: C_19  and  C_20
REMARK   13  A    between atoms: C_19  and  C_21
REMARK   14  A    between atoms: C_19  and  C_22
REMARK   15  A    between atoms: C_23  and  C_24
REMARK                            x       y       z     vdW  Elec       q    Type
REMARK                         _______ _______ _______ _____ _____    ______ ____
ROOT
ATOM      1  C   UNL     1       1.237  10.450  19.347  0.00  0.00    +0.000 A 
ATOM      2  N   UNL     1       1.733  10.313  18.120  0.00  0.00    +0.000 NA
ATOM      3  S   UNL     1       2.161   8.725  17.899  0.00  0.00    +0.000 S 
ATOM      4  C   UNL     1       1.680   8.181  19.452  0.00  0.00    +0.000 A 
ATOM      5  C   UNL     1       1.195   9.271  20.153  0.00  0.00    +0.000 A 
ENDROOT
BRANCH   5   6
ATOM      6  C   UNL     1       0.712   9.196  21.496  0.00  0.00    +0.000 C 
ATOM      7  N   UNL     1       0.293   9.127  22.574  0.00  0.00    +0.000 NA
ENDBRANCH   5   6
BRANCH   1   8
ATOM      8  S   UNL     1       0.708  12.037  19.910  0.00  0.00    +0.000 S 
BRANCH   8   9
ATOM      9  C   UNL     1      -0.214  12.656  18.472  0.00  0.00    +0.000 C 
BRANCH   9  11
ATOM     10  N   UNL     1      -1.881  11.575  17.032  0.00  0.00    +0.000 N 
ATOM     11  C   UNL     1      -1.533  11.911  18.329  0.00  0.00    +0.000 C 
ATOM     12  O   UNL     1      -2.197  11.597  19.314  0.00  0.00    +0.000 OA
ATOM     13  H   UNL     1      -1.306  11.956  16.288  0.00  0.00    +0.000 HD
BRANCH  10  15
ATOM     14  C   UNL     1      -4.361  11.689  16.949  0.00  0.00    +0.000 C 
ATOM     15  C   UNL     1      -3.107  10.852  16.652  0.00  0.00    +0.000 C 
ATOM     16  C   UNL     1      -3.188   9.501  17.380  0.00  0.00    +0.000 C 
ATOM     17  C   UNL     1      -3.071  10.577  15.136  0.00  0.00    +0.000 C 
ENDBRANCH  10  15
ENDBRANCH   9  11
ENDBRANCH   8   9
ENDBRANCH   1   8
BRANCH   4  18
ATOM     18  S   UNL     1       1.728   6.502  19.974  0.00  0.00    +0.000 S 
BRANCH  18  19
ATOM     19  C   UNL     1       3.477   6.062  19.777  0.00  0.00    +0.000 C 
BRANCH  19  20
ATOM     20  C   UNL     1       3.769   5.521  18.391  0.00  0.00    +0.000 C 
ATOM     21  O   UNL     1       2.857   5.162  17.651  0.00  0.00    +0.000 OA
ATOM     22  N   UNL     1       5.108   5.450  18.057  0.00  0.00    +0.000 N 
ATOM     23  H   UNL     1       5.775   5.872  18.694  0.00  0.00    +0.000 HD
BRANCH  22  24
ATOM     24  C   UNL     1       5.613   4.985  16.753  0.00  0.00    +0.000 C 
ATOM     25  C   UNL     1       7.114   4.664  16.836  0.00  0.00    +0.000 C 
ATOM     26  C   UNL     1       4.866   3.698  16.359  0.00  0.00    +0.000 C 
ATOM     27  C   UNL     1       5.353   6.036  15.661  0.00  0.00    +0.000 C 
ENDBRANCH  22  24
ENDBRANCH  19  20
ENDBRANCH  18  19
ENDBRANCH   4  18
TORSDOF 9
ENDMDL
MODEL 7
REMARK VINA RESULT:      -5.8      2.159      3.269
REMARK  Name = 
REMARK  15 active torsions:
REMARK  status: ('A' for Active; 'I' for Inactive)
REMARK    1  A    between atoms: C_1  and  C_2
REMARK    2  A    between atoms: C_2  and  C_3
REMARK    3  A    between atoms: C_2  and  C_4
REMARK    4  A    between atoms: C_2  and  N_5
REMARK    5  A    between atoms: C_6  and  C_8
REMARK    6  A    between atoms: C_8  and  S_9
REMARK    7  A    between atoms: S_9  and  C_10
REMARK    8  A    between atoms: C_13  and  S_14
REMARK    9  A    between atoms: S_14  and  C_15
REMARK   10  A    between atoms: C_15  and  C_16
REMARK   11  A    between atoms: N_18  and  C_19
REMARK   12  A    between atoms: C_19  and  C_20
REMARK   13  A    between atoms: C_19  and  C_21
REMARK   14  A    between atoms: C_19  and  C_22
REMARK   15  A    between atoms: C_23  and  C_24
REMARK                            x       y       z     vdW  Elec       q    Type
REMARK                         _______ _______ _______ _____ _____    ______ ____
ROOT
ATOM      1  C   UNL     1       1.520   9.596  18.705  0.00  0.00    +0.000 A 
ATOM      2  N   UNL     1       2.028   9.330  17.505  0.00  0.00    +0.000 NA
ATOM      3  S   UNL     1       2.701   7.813  17.542  0.00  0.00    +0.000 S 
ATOM      4  C   UNL     1       2.315   7.474  19.177  0.00  0.00    +0.000 A 
ATOM      5  C   UNL     1       1.666   8.579  19.699  0.00  0.00    +0.000 A 
ENDROOT
BRANCH   5   6
ATOM      6  C   UNL     1       1.204   8.660  21.049  0.00  0.00    +0.000 C 
ATOM      7  N   UNL     1       0.809   8.703  22.138  0.00  0.00    +0.000 NA
ENDBRANCH   5   6
BRANCH   1   8
ATOM      8  S   UNL     1       0.748  11.154  19.009  0.00  0.00    +0.000 S 
BRANCH   8   9
ATOM      9  C   UNL     1      -1.010  10.750  18.787  0.00  0.00    +0.000 C 
BRANCH   9  11
ATOM     10  N   UNL     1      -1.318  12.177  20.758  0.00  0.00    +0.000 N 
ATOM     11  C   UNL     1      -1.878  11.714  19.580  0.00  0.00    +0.000 C 
ATOM     12  O   UNL     1      -2.973  12.080  19.159  0.00  0.00    +0.000 OA
ATOM     13  H   UNL     1      -0.448  11.746  21.054  0.00  0.00    +0.000 HD
BRANCH  10  15
ATOM     14  C   UNL     1      -1.140  13.299  22.968  0.00  0.00    +0.000 C 
ATOM     15  C   UNL     1      -1.970  13.117  21.686  0.00  0.00    +0.000 C 
ATOM     16  C   UNL     1      -3.387  12.637  22.038  0.00  0.00    +0.000 C 
ATOM     17  C   UNL     1      -2.087  14.492  20.999  0.00  0.00    +0.000 C 
ENDBRANCH  10  15
ENDBRANCH   9  11
ENDBRANCH   8   9
ENDBRANCH   1   8
BRANCH   4  18
ATOM     18  S   UNL     1       2.629   5.936  19.972  0.00  0.00    +0.000 S 
BRANCH  18  19
ATOM     19  C   UNL     1       3.300   4.914  18.634  0.00  0.00    +0.000 C 
BRANCH  19  20
ATOM     20  C   UNL     1       4.804   4.756  18.744  0.00  0.00    +0.000 C 
ATOM     21  O   UNL     1       5.293   3.800  19.340  0.00  0.00    +0.000 OA
ATOM     22  N   UNL     1       5.547   5.762  18.155  0.00  0.00    +0.000 N 
ATOM     23  H   UNL     1       5.051   6.446  17.595  0.00  0.00    +0.000 HD
BRANCH  22  24
ATOM     24  C   UNL     1       7.020   5.791  18.118  0.00  0.00    +0.000 C 
ATOM     25  C   UNL     1       7.520   7.103  17.491  0.00  0.00    +0.000 C 
ATOM     26  C   UNL     1       7.556   5.709  19.559  0.00  0.00    +0.000 C 
ATOM     27  C   UNL     1       7.570   4.585  17.339  0.00  0.00    +0.000 C 
ENDBRANCH  22  24
ENDBRANCH  19  20
ENDBRANCH  18  19
ENDBRANCH   4  18
TORSDOF 9
ENDMDL
MODEL 8
REMARK VINA RESULT:      -5.8      6.289      8.761
REMARK  Name = 
REMARK  15 active torsions:
REMARK  status: ('A' for Active; 'I' for Inactive)
REMARK    1  A    between atoms: C_1  and  C_2
REMARK    2  A    between atoms: C_2  and  C_3
REMARK    3  A    between atoms: C_2  and  C_4
REMARK    4  A    between atoms: C_2  and  N_5
REMARK    5  A    between atoms: C_6  and  C_8
REMARK    6  A    between atoms: C_8  and  S_9
REMARK    7  A    between atoms: S_9  and  C_10
REMARK    8  A    between atoms: C_13  and  S_14
REMARK    9  A    between atoms: S_14  and  C_15
REMARK   10  A    between atoms: C_15  and  C_16
REMARK   11  A    between atoms: N_18  and  C_19
REMARK   12  A    between atoms: C_19  and  C_20
REMARK   13  A    between atoms: C_19  and  C_21
REMARK   14  A    between atoms: C_19  and  C_22
REMARK   15  A    between atoms: C_23  and  C_24
REMARK                            x       y       z     vdW  Elec       q    Type
REMARK                         _______ _______ _______ _____ _____    ______ ____
ROOT
ATOM      1  C   UNL     1       6.225   4.775  17.453  0.00  0.00    +0.000 A 
ATOM      2  N   UNL     1       6.978   4.465  18.505  0.00  0.00    +0.000 NA
ATOM      3  S   UNL     1       7.839   5.812  18.951  0.00  0.00    +0.000 S 
ATOM      4  C   UNL     1       7.211   6.849  17.739  0.00  0.00    +0.000 A 
ATOM      5  C   UNL     1       6.328   6.115  16.967  0.00  0.00    +0.000 A 
ENDROOT
BRANCH   5   6
ATOM      6  C   UNL     1       5.618   6.654  15.850  0.00  0.00    +0.000 C 
ATOM      7  N   UNL     1       5.050   7.119  14.953  0.00  0.00    +0.000 NA
ENDBRANCH   5   6
BRANCH   1   8
ATOM      8  S   UNL     1       5.199   3.545  16.712  0.00  0.00    +0.000 S 
BRANCH   8   9
ATOM      9  C   UNL     1       4.550   2.672  18.169  0.00  0.00    +0.000 C 
BRANCH   9  11
ATOM     10  N   UNL     1       2.820   2.952  19.885  0.00  0.00    +0.000 N 
ATOM     11  C   UNL     1       3.226   3.282  18.604  0.00  0.00    +0.000 C 
ATOM     12  O   UNL     1       2.607   4.050  17.871  0.00  0.00    +0.000 OA
ATOM     13  H   UNL     1       3.361   2.245  20.371  0.00  0.00    +0.000 HD
BRANCH  10  15
ATOM     14  C   UNL     1       0.350   3.095  19.655  0.00  0.00    +0.000 C 
ATOM     15  C   UNL     1       1.578   3.425  20.520  0.00  0.00    +0.000 C 
ATOM     16  C   UNL     1       1.646   4.937  20.786  0.00  0.00    +0.000 C 
ATOM     17  C   UNL     1       1.408   2.708  21.874  0.00  0.00    +0.000 C 
ENDBRANCH  10  15
ENDBRANCH   9  11
ENDBRANCH   8   9
ENDBRANCH   1   8
BRANCH   4  18
ATOM     18  S   UNL     1       7.586   8.563  17.608  0.00  0.00    +0.000 S 
BRANCH  18  19
ATOM     19  C   UNL     1       8.773   8.826  18.954  0.00  0.00    +0.000 C 
BRANCH  19  20
ATOM     20  C   UNL     1       9.295  10.249  18.976  0.00  0.00    +0.000 C 
ATOM     21  O   UNL     1       9.659  10.800  17.941  0.00  0.00    +0.000 OA
ATOM     22  N   UNL     1       9.342  10.840  20.224  0.00  0.00    +0.000 N 
ATOM     23  H   UNL     1       8.918  10.341  20.998  0.00  0.00    +0.000 HD
BRANCH  22  24
ATOM     24  C   UNL     1       9.786  12.223  20.469  0.00  0.00    +0.000 C 
ATOM     25  C   UNL     1      11.285  12.375  20.161  0.00  0.00    +0.000 C 
ATOM     26  C   UNL     1       9.005  13.169  19.538  0.00  0.00    +0.000 C 
ATOM     27  C   UNL     1       9.495  12.641  21.920  0.00  0.00    +0.000 C 
ENDBRANCH  22  24
ENDBRANCH  19  20
ENDBRANCH  18  19
ENDBRANCH   4  18
TORSDOF 9
ENDMDL
MODEL 9
REMARK VINA RESULT:      -5.8      3.482      9.245
REMARK  Name = 
REMARK  15 active torsions:
REMARK  status: ('A' for Active; 'I' for Inactive)
REMARK    1  A    between atoms: C_1  and  C_2
REMARK    2  A    between atoms: C_2  and  C_3
REMARK    3  A    between atoms: C_2  and  C_4
REMARK    4  A    between atoms: C_2  and  N_5
REMARK    5  A    between atoms: C_6  and  C_8
REMARK    6  A    between atoms: C_8  and  S_9
REMARK    7  A    between atoms: S_9  and  C_10
REMARK    8  A    between atoms: C_13  and  S_14
REMARK    9  A    between atoms: S_14  and  C_15
REMARK   10  A    between atoms: C_15  and  C_16
REMARK   11  A    between atoms: N_18  and  C_19
REMARK   12  A    between atoms: C_19  and  C_20
REMARK   13  A    between atoms: C_19  and  C_21
REMARK   14  A    between atoms: C_19  and  C_22
REMARK   15  A    between atoms: C_23  and  C_24
REMARK                            x       y       z     vdW  Elec       q    Type
REMARK                         _______ _______ _______ _____ _____    ______ ____
ROOT
ATOM      1  C   UNL     1       1.010   9.116  20.133  0.00  0.00    +0.000 A 
ATOM      2  N   UNL     1       0.986   9.513  18.863  0.00  0.00    +0.000 NA
ATOM      3  S   UNL     1       0.213  10.980  18.784  0.00  0.00    +0.000 S 
ATOM      4  C   UNL     1      -0.102  11.119  20.463  0.00  0.00    +0.000 A 
ATOM      5  C   UNL     1       0.394   9.986  21.084  0.00  0.00    +0.000 A 
ENDROOT
BRANCH   5   6
ATOM      6  C   UNL     1       0.301   9.751  22.491  0.00  0.00    +0.000 C 
ATOM      7  N   UNL     1       0.253   9.572  23.635  0.00  0.00    +0.000 NA
ENDBRANCH   5   6
BRANCH   1   8
ATOM      8  S   UNL     1       1.745   7.569  20.557  0.00  0.00    +0.000 S 
BRANCH   8   9
ATOM      9  C   UNL     1       2.511   7.075  18.985  0.00  0.00    +0.000 C 
BRANCH   9  11
ATOM     10  N   UNL     1       2.008   4.873  19.943  0.00  0.00    +0.000 N 
ATOM     11  C   UNL     1       2.534   5.559  18.862  0.00  0.00    +0.000 C 
ATOM     12  O   UNL     1       2.948   5.009  17.844  0.00  0.00    +0.000 OA
ATOM     13  H   UNL     1       1.773   5.420  20.764  0.00  0.00    +0.000 HD
BRANCH  10  15
ATOM     14  C   UNL     1       1.026   2.822  18.941  0.00  0.00    +0.000 C 
ATOM     15  C   UNL     1       1.922   3.406  20.046  0.00  0.00    +0.000 C 
ATOM     16  C   UNL     1       1.396   2.989  21.429  0.00  0.00    +0.000 C 
ATOM     17  C   UNL     1       3.334   2.813  19.872  0.00  0.00    +0.000 C 
ENDBRANCH  10  15
ENDBRANCH   9  11
ENDBRANCH   8   9
ENDBRANCH   1   8
BRANCH   4  18
ATOM     18  S   UNL     1      -0.843  12.524  21.221  0.00  0.00    +0.000 S 
BRANCH  18  19
ATOM     19  C   UNL     1      -2.469  12.608  20.423  0.00  0.00    +0.000 C 
BRANCH  19  20
ATOM     20  C   UNL     1      -3.495  13.293  21.304  0.00  0.00    +0.000 C 
ATOM     21  O   UNL     1      -4.081  14.301  20.919  0.00  0.00    +0.000 OA
ATOM     22  N   UNL     1      -3.686  12.714  22.545  0.00  0.00    +0.000 N 
ATOM     23  H   UNL     1      -3.235  11.824  22.723  0.00  0.00    +0.000 HD
BRANCH  22  24
ATOM     24  C   UNL     1      -4.655  13.198  23.544  0.00  0.00    +0.000 C 
ATOM     25  C   UNL     1      -6.093  13.064  23.014  0.00  0.00    +0.000 C 
ATOM     26  C   UNL     1      -4.529  12.340  24.817  0.00  0.00    +0.000 C 
ATOM     27  C   UNL     1      -4.362  14.658  23.926  0.00  0.00    +0.000 C 
ENDBRANCH  22  24
ENDBRANCH  19  20
ENDBRANCH  18  19
ENDBRANCH   4  18
TORSDOF 9
ENDMDL
