MODEL 1
REMARK VINA RESULT:      -8.5      0.000      0.000
REMARK  Name = 
REMARK  11 active torsions:
REMARK  status: ('A' for Active; 'I' for Inactive)
REMARK    1  A    between atoms: C_1  and  N_2
REMARK    2  A    between atoms: N_2  and  C_3
REMARK    3  A    between atoms: N_2  and  C_22
REMARK    4  A    between atoms: C_3  and  C_4
REMARK    5  A    between atoms: C_7  and  C_8
REMARK    6  A    between atoms: C_11  and  C_13
REMARK    7  A    between atoms: C_13  and  N_14
REMARK    8  A    between atoms: C_13  and  C_15
REMARK    9  A    between atoms: C_15  and  C_16
REMARK   10  A    between atoms: C_16  and  C_17
REMARK   11  A    between atoms: C_17  and  O_19
REMARK                            x       y       z     vdW  Elec       q    Type
REMARK                         _______ _______ _______ _____ _____    ______ ____
ROOT
ATOM      1  C   UNL     1       1.004   9.377  20.387  0.00  0.00    +0.000 A 
ATOM      2  C   UNL     1       1.460   8.176  20.938  0.00  0.00    +0.000 A 
ATOM      3  C   UNL     1       2.106   7.238  20.131  0.00  0.00    +0.000 A 
ATOM      4  C   UNL     1       2.325   7.472  18.759  0.00  0.00    +0.000 A 
ATOM      5  C   UNL     1       1.875   8.682  18.212  0.00  0.00    +0.000 A 
ATOM      6  C   UNL     1       1.221   9.624  19.022  0.00  0.00    +0.000 A 
ENDROOT
BRANCH   4   7
ATOM      7  C   UNL     1       3.043   6.403  17.999  0.00  0.00    +0.000 C 
ATOM      8  O   UNL     1       4.013   6.752  17.321  0.00  0.00    +0.000 OA
ATOM      9  N   UNL     1       2.606   5.095  18.089  0.00  0.00    +0.000 N 
ATOM     10  C   UNL     1       3.200   4.044  17.404  0.00  0.00    +0.000 C 
ATOM     11  O   UNL     1       4.152   4.136  16.635  0.00  0.00    +0.000 OA
ATOM     12  H   UNL     1       1.878   4.835  18.740  0.00  0.00    +0.000 HD
BRANCH  10  13
ATOM     13  C   UNL     1       2.543   2.675  17.698  0.00  0.00    +0.000 C 
BRANCH  13  14
ATOM     14  N   UNL     1       1.145   2.916  18.109  0.00  0.00    +0.000 NA
ATOM     15  H   UNL     1       0.880   2.200  18.791  0.00  0.00    +0.000 HD
ATOM     16  H   UNL     1       0.527   2.757  17.309  0.00  0.00    +0.000 HD
ENDBRANCH  13  14
BRANCH  13  17
ATOM     17  C   UNL     1       3.337   1.924  18.784  0.00  0.00    +0.000 C 
BRANCH  17  18
ATOM     18  C   UNL     1       3.874   2.806  19.907  0.00  0.00    +0.000 C 
BRANCH  18  19
ATOM     19  C   UNL     1       2.881   2.951  21.028  0.00  0.00    +0.000 C 
ATOM     20  O   UNL     1       2.855   2.227  22.014  0.00  0.00    +0.000 OA
BRANCH  19  21
ATOM     21  O   UNL     1       2.045   3.999  20.872  0.00  0.00    +0.000 OA
ATOM     22  H   UNL     1       1.143   3.842  21.214  0.00  0.00    +0.000 HD
ENDBRANCH  19  21
ENDBRANCH  18  19
ENDBRANCH  17  18
ENDBRANCH  13  17
ENDBRANCH  10  13
ENDBRANCH   4   7
BRANCH   1  23
ATOM     23  C   UNL     1       0.290  10.386  21.255  0.00  0.00    +0.000 C 
BRANCH  23  25
ATOM     24  C   UNL     1       0.955  12.767  20.565  0.00  0.00    +0.000 C 
ATOM     25  N   UNL     1      -0.021  11.682  20.633  0.00  0.00    +0.000 N 
BRANCH  25  26
ATOM     26  C   UNL     1      -1.297  11.905  20.116  0.00  0.00    +0.000 A 
ATOM     27  C   UNL     1      -2.369  12.381  20.874  0.00  0.00    +0.000 A 
ATOM     28  N   UNL     1      -3.644  12.559  20.442  0.00  0.00    +0.000 NA
ATOM     29  C   UNL     1      -3.946  12.251  19.186  0.00  0.00    +0.000 A 
ATOM     30  N   UNL     1      -5.210  12.373  18.822  0.00  0.00    +0.000 NA
ATOM     31  C   UNL     1      -5.536  12.026  17.582  0.00  0.00    +0.000 A 
ATOM     32  N   UNL     1      -6.870  12.092  17.243  0.00  0.00    +0.000 N 
ATOM     33  N   UNL     1      -4.671  11.629  16.647  0.00  0.00    +0.000 NA
ATOM     34  C   UNL     1      -3.392  11.523  17.020  0.00  0.00    +0.000 A 
ATOM     35  N   UNL     1      -2.499  11.166  16.003  0.00  0.00    +0.000 N 
ATOM     36  C   UNL     1      -2.963  11.803  18.315  0.00  0.00    +0.000 A 
ATOM     37  C   UNL     1      -1.637  11.655  18.790  0.00  0.00    +0.000 A 
ATOM     38  H   UNL     1      -7.360  12.729  17.855  0.00  0.00    +0.000 HD
ATOM     39  H   UNL     1      -7.001  12.195  16.246  0.00  0.00    +0.000 HD
ATOM     40  H   UNL     1      -3.045  10.919  15.179  0.00  0.00    +0.000 HD
ATOM     41  H   UNL     1      -1.858  10.429  16.269  0.00  0.00    +0.000 HD
ENDBRANCH  25  26
ENDBRANCH  23  25
ENDBRANCH   1  23
TORSDOF 10
ENDMDL
MODEL 2
REMARK VINA RESULT:      -8.4      2.300      3.264
REMARK  Name = 
REMARK  11 active torsions:
REMARK  status: ('A' for Active; 'I' for Inactive)
REMARK    1  A    between atoms: C_1  and  N_2
REMARK    2  A    between atoms: N_2  and  C_3
REMARK    3  A    between atoms: N_2  and  C_22
REMARK    4  A    between atoms: C_3  and  C_4
REMARK    5  A    between atoms: C_7  and  C_8
REMARK    6  A    between atoms: C_11  and  C_13
REMARK    7  A    between atoms: C_13  and  N_14
REMARK    8  A    between atoms: C_13  and  C_15
REMARK    9  A    between atoms: C_15  and  C_16
REMARK   10  A    between atoms: C_16  and  C_17
REMARK   11  A    between atoms: C_17  and  O_19
REMARK                            x       y       z     vdW  Elec       q    Type
REMARK                         _______ _______ _______ _____ _____    ______ ____
ROOT
ATOM      1  C   UNL     1       1.130   9.259  18.869  0.00  0.00    +0.000 A 
ATOM      2  C   UNL     1       1.326   8.471  20.007  0.00  0.00    +0.000 A 
ATOM      3  C   UNL     1       2.228   7.408  19.973  0.00  0.00    +0.000 A 
ATOM      4  C   UNL     1       2.968   7.105  18.813  0.00  0.00    +0.000 A 
ATOM      5  C   UNL     1       2.777   7.903  17.676  0.00  0.00    +0.000 A 
ATOM      6  C   UNL     1       1.865   8.971  17.709  0.00  0.00    +0.000 A 
ENDROOT
BRANCH   4   7
ATOM      7  C   UNL     1       3.918   5.953  18.900  0.00  0.00    +0.000 C 
ATOM      8  O   UNL     1       5.121   6.221  18.958  0.00  0.00    +0.000 OA
ATOM      9  N   UNL     1       3.422   4.663  18.919  0.00  0.00    +0.000 N 
ATOM     10  C   UNL     1       4.231   3.537  18.979  0.00  0.00    +0.000 C 
ATOM     11  O   UNL     1       5.457   3.535  19.004  0.00  0.00    +0.000 OA
ATOM     12  H   UNL     1       2.429   4.490  18.981  0.00  0.00    +0.000 HD
BRANCH  10  13
ATOM     13  C   UNL     1       3.432   2.213  19.019  0.00  0.00    +0.000 C 
BRANCH  13  14
ATOM     14  N   UNL     1       4.064   1.267  18.077  0.00  0.00    +0.000 NA
ATOM     15  H   UNL     1       4.766   0.724  18.587  0.00  0.00    +0.000 HD
ATOM     16  H   UNL     1       4.595   1.792  17.379  0.00  0.00    +0.000 HD
ENDBRANCH  13  14
BRANCH  13  17
ATOM     17  C   UNL     1       1.954   2.471  18.667  0.00  0.00    +0.000 C 
BRANCH  17  18
ATOM     18  C   UNL     1       0.971   2.201  19.800  0.00  0.00    +0.000 C 
BRANCH  18  19
ATOM     19  C   UNL     1       1.182   3.136  20.959  0.00  0.00    +0.000 C 
ATOM     20  O   UNL     1       1.143   4.355  20.868  0.00  0.00    +0.000 OA
BRANCH  19  21
ATOM     21  O   UNL     1       1.366   2.500  22.136  0.00  0.00    +0.000 OA
ATOM     22  H   UNL     1       0.602   2.556  22.742  0.00  0.00    +0.000 HD
ENDBRANCH  19  21
ENDBRANCH  18  19
ENDBRANCH  17  18
ENDBRANCH  13  17
ENDBRANCH  10  13
ENDBRANCH   4   7
BRANCH   1  23
ATOM     23  C   UNL     1       0.140  10.401  18.899  0.00  0.00    +0.000 C 
BRANCH  23  25
ATOM     24  C   UNL     1       1.611  12.265  19.873  0.00  0.00    +0.000 C 
ATOM     25  N   UNL     1       0.392  11.460  19.888  0.00  0.00    +0.000 N 
BRANCH  25  26
ATOM     26  C   UNL     1      -0.541  11.690  20.898  0.00  0.00    +0.000 A 
ATOM     27  C   UNL     1      -0.425  11.183  22.192  0.00  0.00    +0.000 A 
ATOM     28  N   UNL     1      -1.329  11.322  23.197  0.00  0.00    +0.000 NA
ATOM     29  C   UNL     1      -2.453  11.989  22.961  0.00  0.00    +0.000 A 
ATOM     30  N   UNL     1      -3.338  12.045  23.941  0.00  0.00    +0.000 NA
ATOM     31  C   UNL     1      -4.485  12.670  23.706  0.00  0.00    +0.000 A 
ATOM     32  N   UNL     1      -5.424  12.656  24.715  0.00  0.00    +0.000 N 
ATOM     33  N   UNL     1      -4.790  13.311  22.576  0.00  0.00    +0.000 NA
ATOM     34  C   UNL     1      -3.883  13.261  21.596  0.00  0.00    +0.000 A 
ATOM     35  N   UNL     1      -4.201  13.996  20.447  0.00  0.00    +0.000 N 
ATOM     36  C   UNL     1      -2.676  12.578  21.725  0.00  0.00    +0.000 A 
ATOM     37  C   UNL     1      -1.701  12.437  20.708  0.00  0.00    +0.000 A 
ATOM     38  H   UNL     1      -4.983  12.492  25.608  0.00  0.00    +0.000 HD
ATOM     39  H   UNL     1      -6.070  13.430  24.640  0.00  0.00    +0.000 HD
ATOM     40  H   UNL     1      -5.161  14.325  20.542  0.00  0.00    +0.000 HD
ATOM     41  H   UNL     1      -4.059  13.481  19.588  0.00  0.00    +0.000 HD
ENDBRANCH  25  26
ENDBRANCH  23  25
ENDBRANCH   1  23
TORSDOF 10
ENDMDL
MODEL 3
REMARK VINA RESULT:      -8.4      2.780      4.409
REMARK  Name = 
REMARK  11 active torsions:
REMARK  status: ('A' for Active; 'I' for Inactive)
REMARK    1  A    between atoms: C_1  and  N_2
REMARK    2  A    between atoms: N_2  and  C_3
REMARK    3  A    between atoms: N_2  and  C_22
REMARK    4  A    between atoms: C_3  and  C_4
REMARK    5  A    between atoms: C_7  and  C_8
REMARK    6  A    between atoms: C_11  and  C_13
REMARK    7  A    between atoms: C_13  and  N_14
REMARK    8  A    between atoms: C_13  and  C_15
REMARK    9  A    between atoms: C_15  and  C_16
REMARK   10  A    between atoms: C_16  and  C_17
REMARK   11  A    between atoms: C_17  and  O_19
REMARK                            x       y       z     vdW  Elec       q    Type
REMARK                         _______ _______ _______ _____ _____    ______ ____
ROOT
ATOM      1  C   UNL     1       0.959   9.346  18.952  0.00  0.00    +0.000 A 
ATOM      2  C   UNL     1       1.125   8.626  20.138  0.00  0.00    +0.000 A 
ATOM      3  C   UNL     1       1.976   7.520  20.170  0.00  0.00    +0.000 A 
ATOM      4  C   UNL     1       2.691   7.106  19.028  0.00  0.00    +0.000 A 
ATOM      5  C   UNL     1       2.529   7.837  17.843  0.00  0.00    +0.000 A 
ATOM      6  C   UNL     1       1.671   8.947  17.810  0.00  0.00    +0.000 A 
ENDROOT
BRANCH   4   7
ATOM      7  C   UNL     1       3.585   5.918  19.186  0.00  0.00    +0.000 C 
ATOM      8  O   UNL     1       3.090   4.906  19.688  0.00  0.00    +0.000 OA
ATOM      9  N   UNL     1       4.899   5.996  18.766  0.00  0.00    +0.000 N 
ATOM     10  C   UNL     1       5.803   4.951  18.892  0.00  0.00    +0.000 C 
ATOM     11  O   UNL     1       5.568   3.856  19.394  0.00  0.00    +0.000 OA
ATOM     12  H   UNL     1       5.235   6.804  18.260  0.00  0.00    +0.000 HD
BRANCH  10  13
ATOM     13  C   UNL     1       7.201   5.280  18.318  0.00  0.00    +0.000 C 
BRANCH  13  14
ATOM     14  N   UNL     1       7.224   6.713  17.959  0.00  0.00    +0.000 NA
ATOM     15  H   UNL     1       6.707   7.233  18.673  0.00  0.00    +0.000 HD
ATOM     16  H   UNL     1       6.693   6.852  17.096  0.00  0.00    +0.000 HD
ENDBRANCH  13  14
BRANCH  13  17
ATOM     17  C   UNL     1       7.505   4.381  17.103  0.00  0.00    +0.000 C 
BRANCH  17  18
ATOM     18  C   UNL     1       6.362   4.252  16.103  0.00  0.00    +0.000 C 
BRANCH  18  19
ATOM     19  C   UNL     1       6.427   5.312  15.038  0.00  0.00    +0.000 C 
ATOM     20  O   UNL     1       7.150   5.246  14.054  0.00  0.00    +0.000 OA
BRANCH  19  21
ATOM     21  O   UNL     1       5.564   6.331  15.241  0.00  0.00    +0.000 OA
ATOM     22  H   UNL     1       5.490   6.608  16.175  0.00  0.00    +0.000 HD
ENDBRANCH  19  21
ENDBRANCH  18  19
ENDBRANCH  17  18
ENDBRANCH  13  17
ENDBRANCH  10  13
ENDBRANCH   4   7
BRANCH   1  23
ATOM     23  C   UNL     1       0.026  10.534  18.911  0.00  0.00    +0.000 C 
BRANCH  23  25
ATOM     24  C   UNL     1       1.479  12.380  19.944  0.00  0.00    +0.000 C 
ATOM     25  N   UNL     1       0.256  11.582  19.917  0.00  0.00    +0.000 N 
BRANCH  25  26
ATOM     26  C   UNL     1      -0.705  11.808  20.903  0.00  0.00    +0.000 A 
ATOM     27  C   UNL     1      -0.618  11.303  22.201  0.00  0.00    +0.000 A 
ATOM     28  N   UNL     1      -1.548  11.438  23.182  0.00  0.00    +0.000 NA
ATOM     29  C   UNL     1      -2.670  12.098  22.917  0.00  0.00    +0.000 A 
ATOM     30  N   UNL     1      -3.579  12.150  23.873  0.00  0.00    +0.000 NA
ATOM     31  C   UNL     1      -4.724  12.768  23.609  0.00  0.00    +0.000 A 
ATOM     32  N   UNL     1      -5.689  12.749  24.594  0.00  0.00    +0.000 N 
ATOM     33  N   UNL     1      -5.004  13.406  22.470  0.00  0.00    +0.000 NA
ATOM     34  C   UNL     1      -4.072  13.360  21.514  0.00  0.00    +0.000 A 
ATOM     35  N   UNL     1      -4.365  14.091  20.356  0.00  0.00    +0.000 N 
ATOM     36  C   UNL     1      -2.865  12.684  21.674  0.00  0.00    +0.000 A 
ATOM     37  C   UNL     1      -1.863  12.548  20.682  0.00  0.00    +0.000 A 
ATOM     38  H   UNL     1      -5.269  12.589  25.498  0.00  0.00    +0.000 HD
ATOM     39  H   UNL     1      -6.337  13.520  24.501  0.00  0.00    +0.000 HD
ATOM     40  H   UNL     1      -5.329  14.415  20.426  0.00  0.00    +0.000 HD
ATOM     41  H   UNL     1      -4.199  13.577  19.501  0.00  0.00    +0.000 HD
ENDBRANCH  25  26
ENDBRANCH  23  25
ENDBRANCH   1  23
TORSDOF 10
ENDMDL
MODEL 4
REMARK VINA RESULT:      -8.4      1.260      2.470
REMARK  Name = 
REMARK  11 active torsions:
REMARK  status: ('A' for Active; 'I' for Inactive)
REMARK    1  A    between atoms: C_1  and  N_2
REMARK    2  A    between atoms: N_2  and  C_3
REMARK    3  A    between atoms: N_2  and  C_22
REMARK    4  A    between atoms: C_3  and  C_4
REMARK    5  A    between atoms: C_7  and  C_8
REMARK    6  A    between atoms: C_11  and  C_13
REMARK    7  A    between atoms: C_13  and  N_14
REMARK    8  A    between atoms: C_13  and  C_15
REMARK    9  A    between atoms: C_15  and  C_16
REMARK   10  A    between atoms: C_16  and  C_17
REMARK   11  A    between atoms: C_17  and  O_19
REMARK                            x       y       z     vdW  Elec       q    Type
REMARK                         _______ _______ _______ _____ _____    ______ ____
ROOT
ATOM      1  C   UNL     1       1.593   9.574  19.112  0.00  0.00    +0.000 A 
ATOM      2  C   UNL     1       2.173   8.671  18.217  0.00  0.00    +0.000 A 
ATOM      3  C   UNL     1       2.358   7.339  18.589  0.00  0.00    +0.000 A 
ATOM      4  C   UNL     1       1.963   6.866  19.856  0.00  0.00    +0.000 A 
ATOM      5  C   UNL     1       1.373   7.771  20.749  0.00  0.00    +0.000 A 
ATOM      6  C   UNL     1       1.190   9.112  20.376  0.00  0.00    +0.000 A 
ENDROOT
BRANCH   4   7
ATOM      7  C   UNL     1       2.196   5.415  20.137  0.00  0.00    +0.000 C 
ATOM      8  O   UNL     1       2.077   5.044  21.307  0.00  0.00    +0.000 OA
ATOM      9  N   UNL     1       2.521   4.565  19.097  0.00  0.00    +0.000 N 
ATOM     10  C   UNL     1       2.772   3.212  19.269  0.00  0.00    +0.000 C 
ATOM     11  O   UNL     1       2.758   2.610  20.338  0.00  0.00    +0.000 OA
ATOM     12  H   UNL     1       2.501   4.886  18.139  0.00  0.00    +0.000 HD
BRANCH  10  13
ATOM     13  C   UNL     1       3.083   2.475  17.945  0.00  0.00    +0.000 C 
BRANCH  13  14
ATOM     14  N   UNL     1       4.173   1.511  18.202  0.00  0.00    +0.000 NA
ATOM     15  H   UNL     1       4.945   2.008  18.653  0.00  0.00    +0.000 HD
ATOM     16  H   UNL     1       4.555   1.189  17.309  0.00  0.00    +0.000 HD
ENDBRANCH  13  14
BRANCH  13  17
ATOM     17  C   UNL     1       3.462   3.488  16.847  0.00  0.00    +0.000 C 
BRANCH  17  18
ATOM     18  C   UNL     1       4.961   3.681  16.646  0.00  0.00    +0.000 C 
BRANCH  18  19
ATOM     19  C   UNL     1       5.559   4.562  17.709  0.00  0.00    +0.000 C 
ATOM     20  O   UNL     1       5.341   5.763  17.802  0.00  0.00    +0.000 OA
BRANCH  19  21
ATOM     21  O   UNL     1       6.325   3.891  18.595  0.00  0.00    +0.000 OA
ATOM     22  H   UNL     1       6.113   2.939  18.662  0.00  0.00    +0.000 HD
ENDBRANCH  19  21
ENDBRANCH  18  19
ENDBRANCH  17  18
ENDBRANCH  13  17
ENDBRANCH  10  13
ENDBRANCH   4   7
BRANCH   1  23
ATOM     23  C   UNL     1       1.406  11.020  18.717  0.00  0.00    +0.000 C 
BRANCH  23  25
ATOM     24  C   UNL     1       1.112  12.537  20.766  0.00  0.00    +0.000 C 
ATOM     25  N   UNL     1       0.566  11.838  19.605  0.00  0.00    +0.000 N 
BRANCH  25  26
ATOM     26  C   UNL     1      -0.803  11.930  19.359  0.00  0.00    +0.000 A 
ATOM     27  C   UNL     1      -1.743  12.287  20.327  0.00  0.00    +0.000 A 
ATOM     28  N   UNL     1      -3.091  12.334  20.164  0.00  0.00    +0.000 NA
ATOM     29  C   UNL     1      -3.606  12.003  18.985  0.00  0.00    +0.000 A 
ATOM     30  N   UNL     1      -4.923  11.994  18.884  0.00  0.00    +0.000 NA
ATOM     31  C   UNL     1      -5.455  11.623  17.725  0.00  0.00    +0.000 A 
ATOM     32  N   UNL     1      -6.830  11.551  17.661  0.00  0.00    +0.000 N 
ATOM     33  N   UNL     1      -4.760  11.324  16.626  0.00  0.00    +0.000 NA
ATOM     34  C   UNL     1      -3.428  11.349  16.734  0.00  0.00    +0.000 A 
ATOM     35  N   UNL     1      -2.726  11.094  15.550  0.00  0.00    +0.000 N 
ATOM     36  C   UNL     1      -2.778  11.666  17.924  0.00  0.00    +0.000 A 
ATOM     37  C   UNL     1      -1.375  11.654  18.121  0.00  0.00    +0.000 A 
ATOM     38  H   UNL     1      -7.249  12.130  18.374  0.00  0.00    +0.000 HD
ATOM     39  H   UNL     1      -7.169  11.646  16.713  0.00  0.00    +0.000 HD
ATOM     40  H   UNL     1      -3.399  10.796  14.845  0.00  0.00    +0.000 HD
ATOM     41  H   UNL     1      -1.974  10.426  15.662  0.00  0.00    +0.000 HD
ENDBRANCH  25  26
ENDBRANCH  23  25
ENDBRANCH   1  23
TORSDOF 10
ENDMDL
MODEL 5
REMARK VINA RESULT:      -8.3      2.530      4.447
REMARK  Name = 
REMARK  11 active torsions:
REMARK  status: ('A' for Active; 'I' for Inactive)
REMARK    1  A    between atoms: C_1  and  N_2
REMARK    2  A    between atoms: N_2  and  C_3
REMARK    3  A    between atoms: N_2  and  C_22
REMARK    4  A    between atoms: C_3  and  C_4
REMARK    5  A    between atoms: C_7  and  C_8
REMARK    6  A    between atoms: C_11  and  C_13
REMARK    7  A    between atoms: C_13  and  N_14
REMARK    8  A    between atoms: C_13  and  C_15
REMARK    9  A    between atoms: C_15  and  C_16
REMARK   10  A    between atoms: C_16  and  C_17
REMARK   11  A    between atoms: C_17  and  O_19
REMARK                            x       y       z     vdW  Elec       q    Type
REMARK                         _______ _______ _______ _____ _____    ______ ____
ROOT
ATOM      1  C   UNL     1       1.190   9.547  18.934  0.00  0.00    +0.000 A 
ATOM      2  C   UNL     1       1.918   8.947  17.903  0.00  0.00    +0.000 A 
ATOM      3  C   UNL     1       2.583   7.741  18.128  0.00  0.00    +0.000 A 
ATOM      4  C   UNL     1       2.534   7.094  19.379  0.00  0.00    +0.000 A 
ATOM      5  C   UNL     1       1.795   7.694  20.409  0.00  0.00    +0.000 A 
ATOM      6  C   UNL     1       1.129   8.909  20.183  0.00  0.00    +0.000 A 
ENDROOT
BRANCH   4   7
ATOM      7  C   UNL     1       3.271   5.798  19.498  0.00  0.00    +0.000 C 
ATOM      8  O   UNL     1       2.852   4.988  20.328  0.00  0.00    +0.000 OA
ATOM      9  N   UNL     1       4.364   5.561  18.685  0.00  0.00    +0.000 N 
ATOM     10  C   UNL     1       5.116   4.396  18.741  0.00  0.00    +0.000 C 
ATOM     11  O   UNL     1       4.930   3.458  19.508  0.00  0.00    +0.000 OA
ATOM     12  H   UNL     1       4.607   6.202  17.943  0.00  0.00    +0.000 HD
BRANCH  10  13
ATOM     13  C   UNL     1       6.266   4.363  17.707  0.00  0.00    +0.000 C 
BRANCH  13  14
ATOM     14  N   UNL     1       7.510   4.774  18.390  0.00  0.00    +0.000 NA
ATOM     15  H   UNL     1       7.654   4.159  19.196  0.00  0.00    +0.000 HD
ATOM     16  H   UNL     1       7.381   5.706  18.792  0.00  0.00    +0.000 HD
ENDBRANCH  13  14
BRANCH  13  17
ATOM     17  C   UNL     1       5.939   5.281  16.514  0.00  0.00    +0.000 C 
BRANCH  17  18
ATOM     18  C   UNL     1       5.526   4.551  15.240  0.00  0.00    +0.000 C 
BRANCH  18  19
ATOM     19  C   UNL     1       6.616   4.571  14.204  0.00  0.00    +0.000 C 
ATOM     20  O   UNL     1       6.549   3.985  13.133  0.00  0.00    +0.000 OA
BRANCH  19  21
ATOM     21  O   UNL     1       7.665   5.350  14.544  0.00  0.00    +0.000 OA
ATOM     22  H   UNL     1       8.485   4.851  14.730  0.00  0.00    +0.000 HD
ENDBRANCH  19  21
ENDBRANCH  18  19
ENDBRANCH  17  18
ENDBRANCH  13  17
ENDBRANCH  10  13
ENDBRANCH   4   7
BRANCH   1  23
ATOM     23  C   UNL     1       0.483  10.861  18.697  0.00  0.00    +0.000 C 
BRANCH  23  25
ATOM     24  C   UNL     1      -1.818  10.151  17.810  0.00  0.00    +0.000 C 
ATOM     25  N   UNL     1      -0.985  10.841  18.791  0.00  0.00    +0.000 N 
BRANCH  25  26
ATOM     26  C   UNL     1      -1.614  11.529  19.829  0.00  0.00    +0.000 A 
ATOM     27  C   UNL     1      -1.126  11.579  21.135  0.00  0.00    +0.000 A 
ATOM     28  N   UNL     1      -1.725  12.179  22.197  0.00  0.00    +0.000 NA
ATOM     29  C   UNL     1      -2.898  12.776  22.019  0.00  0.00    +0.000 A 
ATOM     30  N   UNL     1      -3.482  13.289  23.087  0.00  0.00    +0.000 NA
ATOM     31  C   UNL     1      -4.675  13.851  22.934  0.00  0.00    +0.000 A 
ATOM     32  N   UNL     1      -5.301  14.315  24.071  0.00  0.00    +0.000 N 
ATOM     33  N   UNL     1      -5.304  14.003  21.767  0.00  0.00    +0.000 NA
ATOM     34  C   UNL     1      -4.699  13.494  20.689  0.00  0.00    +0.000 A 
ATOM     35  N   UNL     1      -5.351  13.725  19.471  0.00  0.00    +0.000 N 
ATOM     36  C   UNL     1      -3.476  12.832  20.759  0.00  0.00    +0.000 A 
ATOM     37  C   UNL     1      -2.812  12.221  19.667  0.00  0.00    +0.000 A 
ATOM     38  H   UNL     1      -4.625  14.492  24.800  0.00  0.00    +0.000 HD
ATOM     39  H   UNL     1      -5.974  15.039  23.862  0.00  0.00    +0.000 HD
ATOM     40  H   UNL     1      -6.261  14.135  19.676  0.00  0.00    +0.000 HD
ATOM     41  H   UNL     1      -5.429  12.898  18.893  0.00  0.00    +0.000 HD
ENDBRANCH  25  26
ENDBRANCH  23  25
ENDBRANCH   1  23
TORSDOF 10
ENDMDL
MODEL 6
REMARK VINA RESULT:      -8.3      2.185      2.966
REMARK  Name = 
REMARK  11 active torsions:
REMARK  status: ('A' for Active; 'I' for Inactive)
REMARK    1  A    between atoms: C_1  and  N_2
REMARK    2  A    between atoms: N_2  and  C_3
REMARK    3  A    between atoms: N_2  and  C_22
REMARK    4  A    between atoms: C_3  and  C_4
REMARK    5  A    between atoms: C_7  and  C_8
REMARK    6  A    between atoms: C_11  and  C_13
REMARK    7  A    between atoms: C_13  and  N_14
REMARK    8  A    between atoms: C_13  and  C_15
REMARK    9  A    between atoms: C_15  and  C_16
REMARK   10  A    between atoms: C_16  and  C_17
REMARK   11  A    between atoms: C_17  and  O_19
REMARK                            x       y       z     vdW  Elec       q    Type
REMARK                         _______ _______ _______ _____ _____    ______ ____
ROOT
ATOM      1  C   UNL     1       1.269   9.045  20.233  0.00  0.00    +0.000 A 
ATOM      2  C   UNL     1       1.705   9.086  18.906  0.00  0.00    +0.000 A 
ATOM      3  C   UNL     1       2.293   7.959  18.329  0.00  0.00    +0.000 A 
ATOM      4  C   UNL     1       2.453   6.759  19.050  0.00  0.00    +0.000 A 
ATOM      5  C   UNL     1       2.004   6.718  20.378  0.00  0.00    +0.000 A 
ATOM      6  C   UNL     1       1.417   7.853  20.960  0.00  0.00    +0.000 A 
ENDROOT
BRANCH   4   7
ATOM      7  C   UNL     1       3.079   5.613  18.323  0.00  0.00    +0.000 C 
ATOM      8  O   UNL     1       2.579   4.498  18.495  0.00  0.00    +0.000 OA
ATOM      9  N   UNL     1       4.165   5.842  17.499  0.00  0.00    +0.000 N 
ATOM     10  C   UNL     1       4.819   4.836  16.802  0.00  0.00    +0.000 C 
ATOM     11  O   UNL     1       4.541   3.642  16.837  0.00  0.00    +0.000 OA
ATOM     12  H   UNL     1       4.475   6.783  17.299  0.00  0.00    +0.000 HD
BRANCH  10  13
ATOM     13  C   UNL     1       5.983   5.357  15.927  0.00  0.00    +0.000 C 
BRANCH  13  14
ATOM     14  N   UNL     1       5.820   4.801  14.568  0.00  0.00    +0.000 NA
ATOM     15  H   UNL     1       5.005   5.242  14.134  0.00  0.00    +0.000 HD
ATOM     16  H   UNL     1       5.577   3.810  14.638  0.00  0.00    +0.000 HD
ENDBRANCH  13  14
BRANCH  13  17
ATOM     17  C   UNL     1       7.336   4.963  16.549  0.00  0.00    +0.000 C 
BRANCH  17  18
ATOM     18  C   UNL     1       7.286   4.646  18.040  0.00  0.00    +0.000 C 
BRANCH  18  19
ATOM     19  C   UNL     1       7.752   5.807  18.875  0.00  0.00    +0.000 C 
ATOM     20  O   UNL     1       8.068   6.895  18.414  0.00  0.00    +0.000 OA
BRANCH  19  21
ATOM     21  O   UNL     1       7.739   5.555  20.201  0.00  0.00    +0.000 OA
ATOM     22  H   UNL     1       6.861   5.302  20.548  0.00  0.00    +0.000 HD
ENDBRANCH  19  21
ENDBRANCH  18  19
ENDBRANCH  17  18
ENDBRANCH  13  17
ENDBRANCH  10  13
ENDBRANCH   4   7
BRANCH   1  23
ATOM     23  C   UNL     1       0.648  10.269  20.864  0.00  0.00    +0.000 C 
BRANCH  23  25
ATOM     24  C   UNL     1       1.427  12.310  19.518  0.00  0.00    +0.000 C 
ATOM     25  N   UNL     1       0.375  11.401  19.967  0.00  0.00    +0.000 N 
BRANCH  25  26
ATOM     26  C   UNL     1      -0.934  11.646  19.551  0.00  0.00    +0.000 A 
ATOM     27  C   UNL     1      -1.916  12.207  20.368  0.00  0.00    +0.000 A 
ATOM     28  N   UNL     1      -3.218  12.411  20.040  0.00  0.00    +0.000 NA
ATOM     29  C   UNL     1      -3.642  12.043  18.836  0.00  0.00    +0.000 A 
ATOM     30  N   UNL     1      -4.928  12.195  18.576  0.00  0.00    +0.000 NA
ATOM     31  C   UNL     1      -5.375  11.791  17.393  0.00  0.00    +0.000 A 
ATOM     32  N   UNL     1      -6.732  11.890  17.169  0.00  0.00    +0.000 N 
ATOM     33  N   UNL     1      -4.611  11.305  16.412  0.00  0.00    +0.000 NA
ATOM     34  C   UNL     1      -3.309  11.170  16.678  0.00  0.00    +0.000 A 
ATOM     35  N   UNL     1      -2.523  10.719  15.611  0.00  0.00    +0.000 N 
ATOM     36  C   UNL     1      -2.757  11.507  17.911  0.00  0.00    +0.000 A 
ATOM     37  C   UNL     1      -1.399  11.333  18.277  0.00  0.00    +0.000 A 
ATOM     38  H   UNL     1      -7.142  12.580  17.780  0.00  0.00    +0.000 HD
ATOM     39  H   UNL     1      -6.947  11.941  16.182  0.00  0.00    +0.000 HD
ATOM     40  H   UNL     1      -3.150  10.447  14.854  0.00  0.00    +0.000 HD
ATOM     41  H   UNL     1      -1.888   9.974  15.864  0.00  0.00    +0.000 HD
ENDBRANCH  25  26
ENDBRANCH  23  25
ENDBRANCH   1  23
TORSDOF 10
ENDMDL
MODEL 7
REMARK VINA RESULT:      -8.3      1.780      3.120
REMARK  Name = 
REMARK  11 active torsions:
REMARK  status: ('A' for Active; 'I' for Inactive)
REMARK    1  A    between atoms: C_1  and  N_2
REMARK    2  A    between atoms: N_2  and  C_3
REMARK    3  A    between atoms: N_2  and  C_22
REMARK    4  A    between atoms: C_3  and  C_4
REMARK    5  A    between atoms: C_7  and  C_8
REMARK    6  A    between atoms: C_11  and  C_13
REMARK    7  A    between atoms: C_13  and  N_14
REMARK    8  A    between atoms: C_13  and  C_15
REMARK    9  A    between atoms: C_15  and  C_16
REMARK   10  A    between atoms: C_16  and  C_17
REMARK   11  A    between atoms: C_17  and  O_19
REMARK                            x       y       z     vdW  Elec       q    Type
REMARK                         _______ _______ _______ _____ _____    ______ ____
ROOT
ATOM      1  C   UNL     1       1.345  10.302  19.157  0.00  0.00    +0.000 A 
ATOM      2  C   UNL     1       1.920   9.475  18.187  0.00  0.00    +0.000 A 
ATOM      3  C   UNL     1       2.190   8.137  18.482  0.00  0.00    +0.000 A 
ATOM      4  C   UNL     1       1.888   7.584  19.742  0.00  0.00    +0.000 A 
ATOM      5  C   UNL     1       1.303   8.414  20.708  0.00  0.00    +0.000 A 
ATOM      6  C   UNL     1       1.035   9.760  20.414  0.00  0.00    +0.000 A 
ENDROOT
BRANCH   4   7
ATOM      7  C   UNL     1       2.206   6.136  19.936  0.00  0.00    +0.000 C 
ATOM      8  O   UNL     1       1.351   5.443  20.494  0.00  0.00    +0.000 OA
ATOM      9  N   UNL     1       3.415   5.639  19.486  0.00  0.00    +0.000 N 
ATOM     10  C   UNL     1       3.800   4.315  19.641  0.00  0.00    +0.000 C 
ATOM     11  O   UNL     1       3.147   3.438  20.198  0.00  0.00    +0.000 OA
ATOM     12  H   UNL     1       4.040   6.213  18.937  0.00  0.00    +0.000 HD
BRANCH  10  13
ATOM     13  C   UNL     1       5.185   4.006  19.025  0.00  0.00    +0.000 C 
BRANCH  13  14
ATOM     14  N   UNL     1       6.169   4.934  19.619  0.00  0.00    +0.000 NA
ATOM     15  H   UNL     1       5.671   5.763  19.953  0.00  0.00    +0.000 HD
ATOM     16  H   UNL     1       6.791   5.281  18.884  0.00  0.00    +0.000 HD
ENDBRANCH  13  14
BRANCH  13  17
ATOM     17  C   UNL     1       5.128   4.137  17.491  0.00  0.00    +0.000 C 
BRANCH  17  18
ATOM     18  C   UNL     1       5.889   5.330  16.923  0.00  0.00    +0.000 C 
BRANCH  18  19
ATOM     19  C   UNL     1       7.256   4.940  16.432  0.00  0.00    +0.000 C 
ATOM     20  O   UNL     1       8.034   4.239  17.066  0.00  0.00    +0.000 OA
BRANCH  19  21
ATOM     21  O   UNL     1       7.531   5.393  15.191  0.00  0.00    +0.000 OA
ATOM     22  H   UNL     1       7.751   4.688  14.550  0.00  0.00    +0.000 HD
ENDBRANCH  19  21
ENDBRANCH  18  19
ENDBRANCH  17  18
ENDBRANCH  13  17
ENDBRANCH  10  13
ENDBRANCH   4   7
BRANCH   1  23
ATOM     23  C   UNL     1       1.068  11.754  18.846  0.00  0.00    +0.000 C 
BRANCH  23  25
ATOM     24  C   UNL     1       0.630  13.226  20.902  0.00  0.00    +0.000 C 
ATOM     25  N   UNL     1       0.151  12.455  19.757  0.00  0.00    +0.000 N 
BRANCH  25  26
ATOM     26  C   UNL     1      -1.225  12.360  19.552  0.00  0.00    +0.000 A 
ATOM     27  C   UNL     1      -2.175  12.554  20.555  0.00  0.00    +0.000 A 
ATOM     28  N   UNL     1      -3.521  12.415  20.430  0.00  0.00    +0.000 NA
ATOM     29  C   UNL     1      -4.021  12.047  19.255  0.00  0.00    +0.000 A 
ATOM     30  N   UNL     1      -5.327  11.856  19.189  0.00  0.00    +0.000 NA
ATOM     31  C   UNL     1      -5.836  11.445  18.034  0.00  0.00    +0.000 A 
ATOM     32  N   UNL     1      -7.189  11.182  18.004  0.00  0.00    +0.000 N 
ATOM     33  N   UNL     1      -5.141  11.277  16.908  0.00  0.00    +0.000 NA
ATOM     34  C   UNL     1      -3.823  11.487  16.981  0.00  0.00    +0.000 A 
ATOM     35  N   UNL     1      -3.129  11.365  15.770  0.00  0.00    +0.000 N 
ATOM     36  C   UNL     1      -3.187  11.859  18.162  0.00  0.00    +0.000 A 
ATOM     37  C   UNL     1      -1.791  12.039  18.321  0.00  0.00    +0.000 A 
ATOM     38  H   UNL     1      -7.663  11.676  18.747  0.00  0.00    +0.000 HD
ATOM     39  H   UNL     1      -7.567  11.254  17.069  0.00  0.00    +0.000 HD
ATOM     40  H   UNL     1      -3.776  10.994  15.075  0.00  0.00    +0.000 HD
ATOM     41  H   UNL     1      -2.288  10.807  15.842  0.00  0.00    +0.000 HD
ENDBRANCH  25  26
ENDBRANCH  23  25
ENDBRANCH   1  23
TORSDOF 10
ENDMDL
MODEL 8
REMARK VINA RESULT:      -8.2      2.209      4.512
REMARK  Name = 
REMARK  11 active torsions:
REMARK  status: ('A' for Active; 'I' for Inactive)
REMARK    1  A    between atoms: C_1  and  N_2
REMARK    2  A    between atoms: N_2  and  C_3
REMARK    3  A    between atoms: N_2  and  C_22
REMARK    4  A    between atoms: C_3  and  C_4
REMARK    5  A    between atoms: C_7  and  C_8
REMARK    6  A    between atoms: C_11  and  C_13
REMARK    7  A    between atoms: C_13  and  N_14
REMARK    8  A    between atoms: C_13  and  C_15
REMARK    9  A    between atoms: C_15  and  C_16
REMARK   10  A    between atoms: C_16  and  C_17
REMARK   11  A    between atoms: C_17  and  O_19
REMARK                            x       y       z     vdW  Elec       q    Type
REMARK                         _______ _______ _______ _____ _____    ______ ____
ROOT
ATOM      1  C   UNL     1       1.215   9.672  19.254  0.00  0.00    +0.000 A 
ATOM      2  C   UNL     1       1.814   8.892  18.261  0.00  0.00    +0.000 A 
ATOM      3  C   UNL     1       2.230   7.591  18.550  0.00  0.00    +0.000 A 
ATOM      4  C   UNL     1       2.052   7.028  19.829  0.00  0.00    +0.000 A 
ATOM      5  C   UNL     1       1.442   7.809  20.820  0.00  0.00    +0.000 A 
ATOM      6  C   UNL     1       1.027   9.119  20.530  0.00  0.00    +0.000 A 
ENDROOT
BRANCH   4   7
ATOM      7  C   UNL     1       2.521   5.620  20.016  0.00  0.00    +0.000 C 
ATOM      8  O   UNL     1       2.023   4.982  20.947  0.00  0.00    +0.000 OA
ATOM      9  N   UNL     1       3.468   5.098  19.155  0.00  0.00    +0.000 N 
ATOM     10  C   UNL     1       3.973   3.811  19.266  0.00  0.00    +0.000 C 
ATOM     11  O   UNL     1       3.670   2.994  20.130  0.00  0.00    +0.000 OA
ATOM     12  H   UNL     1       3.769   5.615  18.340  0.00  0.00    +0.000 HD
BRANCH  10  13
ATOM     13  C   UNL     1       4.997   3.459  18.162  0.00  0.00    +0.000 C 
BRANCH  13  14
ATOM     14  N   UNL     1       6.309   4.007  18.562  0.00  0.00    +0.000 NA
ATOM     15  H   UNL     1       6.665   3.454  19.346  0.00  0.00    +0.000 HD
ATOM     16  H   UNL     1       6.180   4.948  18.942  0.00  0.00    +0.000 HD
ENDBRANCH  13  14
BRANCH  13  17
ATOM     17  C   UNL     1       4.532   4.020  16.804  0.00  0.00    +0.000 C 
BRANCH  17  18
ATOM     18  C   UNL     1       5.592   4.810  16.044  0.00  0.00    +0.000 C 
BRANCH  18  19
ATOM     19  C   UNL     1       5.368   6.294  16.150  0.00  0.00    +0.000 C 
ATOM     20  O   UNL     1       5.064   7.007  15.203  0.00  0.00    +0.000 OA
BRANCH  19  21
ATOM     21  O   UNL     1       5.481   6.766  17.409  0.00  0.00    +0.000 OA
ATOM     22  H   UNL     1       4.849   7.479  17.624  0.00  0.00    +0.000 HD
ENDBRANCH  19  21
ENDBRANCH  18  19
ENDBRANCH  17  18
ENDBRANCH  13  17
ENDBRANCH  10  13
ENDBRANCH   4   7
BRANCH   1  23
ATOM     23  C   UNL     1       0.779  11.086  18.947  0.00  0.00    +0.000 C 
BRANCH  23  25
ATOM     24  C   UNL     1      -1.675  11.024  18.198  0.00  0.00    +0.000 C 
ATOM     25  N   UNL     1      -0.643  11.394  19.163  0.00  0.00    +0.000 N 
BRANCH  25  26
ATOM     26  C   UNL     1      -1.026  12.092  20.308  0.00  0.00    +0.000 A 
ATOM     27  C   UNL     1      -0.133  12.769  21.140  0.00  0.00    +0.000 A 
ATOM     28  N   UNL     1      -0.439  13.412  22.297  0.00  0.00    +0.000 NA
ATOM     29  C   UNL     1      -1.698  13.409  22.720  0.00  0.00    +0.000 A 
ATOM     30  N   UNL     1      -1.946  13.986  23.882  0.00  0.00    +0.000 NA
ATOM     31  C   UNL     1      -3.192  13.952  24.340  0.00  0.00    +0.000 A 
ATOM     32  N   UNL     1      -3.416  14.495  25.587  0.00  0.00    +0.000 N 
ATOM     33  N   UNL     1      -4.234  13.441  23.682  0.00  0.00    +0.000 NA
ATOM     34  C   UNL     1      -3.977  12.874  22.500  0.00  0.00    +0.000 A 
ATOM     35  N   UNL     1      -5.098  12.404  21.804  0.00  0.00    +0.000 N 
ATOM     36  C   UNL     1      -2.693  12.804  21.965  0.00  0.00    +0.000 A 
ATOM     37  C   UNL     1      -2.345  12.166  20.749  0.00  0.00    +0.000 A 
ATOM     38  H   UNL     1      -2.691  15.157  25.821  0.00  0.00    +0.000 HD
ATOM     39  H   UNL     1      -4.378  14.783  25.705  0.00  0.00    +0.000 HD
ATOM     40  H   UNL     1      -5.903  12.473  22.425  0.00  0.00    +0.000 HD
ATOM     41  H   UNL     1      -4.981  11.469  21.436  0.00  0.00    +0.000 HD
ENDBRANCH  25  26
ENDBRANCH  23  25
ENDBRANCH   1  23
TORSDOF 10
ENDMDL
MODEL 9
REMARK VINA RESULT:      -8.2      2.423      3.358
REMARK  Name = 
REMARK  11 active torsions:
REMARK  status: ('A' for Active; 'I' for Inactive)
REMARK    1  A    between atoms: C_1  and  N_2
REMARK    2  A    between atoms: N_2  and  C_3
REMARK    3  A    between atoms: N_2  and  C_22
REMARK    4  A    between atoms: C_3  and  C_4
REMARK    5  A    between atoms: C_7  and  C_8
REMARK    6  A    between atoms: C_11  and  C_13
REMARK    7  A    between atoms: C_13  and  N_14
REMARK    8  A    between atoms: C_13  and  C_15
REMARK    9  A    between atoms: C_15  and  C_16
REMARK   10  A    between atoms: C_16  and  C_17
REMARK   11  A    between atoms: C_17  and  O_19
REMARK                            x       y       z     vdW  Elec       q    Type
REMARK                         _______ _______ _______ _____ _____    ______ ____
ROOT
ATOM      1  C   UNL     1       0.974   9.332  18.971  0.00  0.00    +0.000 A 
ATOM      2  C   UNL     1       1.255   8.426  19.998  0.00  0.00    +0.000 A 
ATOM      3  C   UNL     1       2.217   7.432  19.809  0.00  0.00    +0.000 A 
ATOM      4  C   UNL     1       2.931   7.318  18.600  0.00  0.00    +0.000 A 
ATOM      5  C   UNL     1       2.654   8.234  17.575  0.00  0.00    +0.000 A 
ATOM      6  C   UNL     1       1.683   9.231  17.764  0.00  0.00    +0.000 A 
ENDROOT
BRANCH   4   7
ATOM      7  C   UNL     1       3.949   6.225  18.518  0.00  0.00    +0.000 C 
ATOM      8  O   UNL     1       4.845   6.354  17.680  0.00  0.00    +0.000 OA
ATOM      9  N   UNL     1       3.853   5.142  19.371  0.00  0.00    +0.000 N 
ATOM     10  C   UNL     1       4.740   4.076  19.352  0.00  0.00    +0.000 C 
ATOM     11  O   UNL     1       5.690   3.947  18.586  0.00  0.00    +0.000 OA
ATOM     12  H   UNL     1       3.170   5.127  20.116  0.00  0.00    +0.000 HD
BRANCH  10  13
ATOM     13  C   UNL     1       4.433   3.006  20.426  0.00  0.00    +0.000 C 
BRANCH  13  14
ATOM     14  N   UNL     1       5.114   1.754  20.035  0.00  0.00    +0.000 NA
ATOM     15  H   UNL     1       4.474   1.206  19.454  0.00  0.00    +0.000 HD
ATOM     16  H   UNL     1       5.269   1.181  20.868  0.00  0.00    +0.000 HD
ENDBRANCH  13  14
BRANCH  13  17
ATOM     17  C   UNL     1       2.911   2.810  20.564  0.00  0.00    +0.000 C 
BRANCH  17  18
ATOM     18  C   UNL     1       2.243   2.136  19.370  0.00  0.00    +0.000 C 
BRANCH  18  19
ATOM     19  C   UNL     1       0.817   2.583  19.200  0.00  0.00    +0.000 C 
ATOM     20  O   UNL     1       0.059   2.138  18.349  0.00  0.00    +0.000 OA
BRANCH  19  21
ATOM     21  O   UNL     1       0.425   3.491  20.119  0.00  0.00    +0.000 OA
ATOM     22  H   UNL     1       0.619   4.416  19.870  0.00  0.00    +0.000 HD
ENDBRANCH  19  21
ENDBRANCH  18  19
ENDBRANCH  17  18
ENDBRANCH  13  17
ENDBRANCH  10  13
ENDBRANCH   4   7
BRANCH   1  23
ATOM     23  C   UNL     1      -0.078  10.398  19.168  0.00  0.00    +0.000 C 
BRANCH  23  25
ATOM     24  C   UNL     1       1.475  12.059  20.357  0.00  0.00    +0.000 C 
ATOM     25  N   UNL     1       0.184  11.389  20.222  0.00  0.00    +0.000 N 
BRANCH  25  26
ATOM     26  C   UNL     1      -0.815  11.684  21.150  0.00  0.00    +0.000 A 
ATOM     27  C   UNL     1      -0.841  11.176  22.449  0.00  0.00    +0.000 A 
ATOM     28  N   UNL     1      -1.816  11.377  23.374  0.00  0.00    +0.000 NA
ATOM     29  C   UNL     1      -2.872  12.113  23.044  0.00  0.00    +0.000 A 
ATOM     30  N   UNL     1      -3.831  12.230  23.945  0.00  0.00    +0.000 NA
ATOM     31  C   UNL     1      -4.912  12.926  23.615  0.00  0.00    +0.000 A 
ATOM     32  N   UNL     1      -5.932  12.976  24.541  0.00  0.00    +0.000 N 
ATOM     33  N   UNL     1      -5.078  13.579  22.463  0.00  0.00    +0.000 NA
ATOM     34  C   UNL     1      -4.097  13.468  21.564  0.00  0.00    +0.000 A 
ATOM     35  N   UNL     1      -4.269  14.215  20.392  0.00  0.00    +0.000 N 
ATOM     36  C   UNL     1      -2.952  12.709  21.794  0.00  0.00    +0.000 A 
ATOM     37  C   UNL     1      -1.904  12.502  20.863  0.00  0.00    +0.000 A 
ATOM     38  H   UNL     1      -5.579  12.789  25.468  0.00  0.00    +0.000 HD
ATOM     39  H   UNL     1      -6.519  13.790  24.411  0.00  0.00    +0.000 HD
ATOM     40  H   UNL     1      -5.211  14.605  20.406  0.00  0.00    +0.000 HD
ATOM     41  H   UNL     1      -4.089  13.688  19.547  0.00  0.00    +0.000 HD
ENDBRANCH  25  26
ENDBRANCH  23  25
ENDBRANCH   1  23
TORSDOF 10
ENDMDL
