MODEL 1
REMARK VINA RESULT:      -9.2      0.000      0.000
REMARK  Name = 
REMARK  4 active torsions:
REMARK  status: ('A' for Active; 'I' for Inactive)
REMARK    1  A    between atoms: C_1  and  O_2
REMARK    2  A    between atoms: O_2  and  C_3
REMARK    3  A    between atoms: C_5  and  C_6
REMARK    4  A    between atoms: N_11  and  C_12
REMARK                            x       y       z     vdW  Elec       q    Type
REMARK                         _______ _______ _______ _____ _____    ______ ____
ROOT
ATOM      1  C   UNL     1       4.245   4.276  18.562  0.00  0.00    +0.000 C 
ATOM      2  C   UNL     1       4.031   2.760  18.655  0.00  0.00    +0.000 C 
ATOM      3  N   UNL     1       2.751   2.559  18.044  0.00  0.00    +0.000 N 
ATOM      4  C   UNL     1       2.012   3.736  18.081  0.00  0.00    +0.000 C 
ATOM      5  O   UNL     1       0.812   3.752  17.856  0.00  0.00    +0.000 OA
ATOM      6  N   UNL     1       2.882   4.788  18.435  0.00  0.00    +0.000 N 
ATOM      7  H   UNL     1       2.244   1.683  18.014  0.00  0.00    +0.000 HD
ENDROOT
BRANCH   6   8
ATOM      8  C   UNL     1       2.504   6.108  18.808  0.00  0.00    +0.000 A 
ATOM      9  C   UNL     1       2.410   7.131  17.850  0.00  0.00    +0.000 A 
ATOM     10  C   UNL     1       1.949   8.420  18.172  0.00  0.00    +0.000 A 
ATOM     11  C   UNL     1       1.593   8.695  19.494  0.00  0.00    +0.000 A 
ATOM     12  N   UNL     1       1.108   9.847  20.059  0.00  0.00    +0.000 NA
ATOM     13  C   UNL     1       0.955   9.569  21.334  0.00  0.00    +0.000 A 
ATOM     14  N   UNL     1       1.323   8.285  21.616  0.00  0.00    +0.000 N 
ATOM     15  C   UNL     1       1.719   7.691  20.445  0.00  0.00    +0.000 A 
ATOM     16  C   UNL     1       2.164   6.398  20.144  0.00  0.00    +0.000 A 
ATOM     17  H   UNL     1       1.302   7.849  22.526  0.00  0.00    +0.000 HD
ENDBRANCH   6   8
BRANCH   1  20
ATOM     18  C   UNL     1       7.030   5.988  16.478  0.00  0.00    +0.000 A 
ATOM     19  C   UNL     1       6.159   5.666  17.535  0.00  0.00    +0.000 A 
ATOM     20  C   UNL     1       5.188   4.643  17.422  0.00  0.00    +0.000 A 
ATOM     21  C   UNL     1       5.082   3.950  16.205  0.00  0.00    +0.000 A 
ATOM     22  C   UNL     1       5.951   4.277  15.183  0.00  0.00    +0.000 A 
ATOM     23  C   UNL     1       6.904   5.267  15.305  0.00  0.00    +0.000 A 
ATOM     24  O   UNL     1       7.639   5.388  14.164  0.00  0.00    +0.000 OA
ATOM     25  C   UNL     1       7.079   4.347  13.343  0.00  0.00    +0.000 C 
ATOM     26  O   UNL     1       5.975   3.666  13.966  0.00  0.00    +0.000 OA
BRANCH  18  28
ATOM     27  C   UNL     1       7.474   8.023  17.629  0.00  0.00    +0.000 C 
ATOM     28  O   UNL     1       7.914   6.988  16.760  0.00  0.00    +0.000 OA
ENDBRANCH  18  28
ENDBRANCH   1  20
TORSDOF 3
ENDMDL
MODEL 2
REMARK VINA RESULT:      -9.2      0.849      1.486
REMARK  Name = 
REMARK  4 active torsions:
REMARK  status: ('A' for Active; 'I' for Inactive)
REMARK    1  A    between atoms: C_1  and  O_2
REMARK    2  A    between atoms: O_2  and  C_3
REMARK    3  A    between atoms: C_5  and  C_6
REMARK    4  A    between atoms: N_11  and  C_12
REMARK                            x       y       z     vdW  Elec       q    Type
REMARK                         _______ _______ _______ _____ _____    ______ ____
ROOT
ATOM      1  C   UNL     1       4.488   4.494  19.174  0.00  0.00    +0.000 C 
ATOM      2  C   UNL     1       4.519   3.000  19.520  0.00  0.00    +0.000 C 
ATOM      3  N   UNL     1       3.262   2.512  19.036  0.00  0.00    +0.000 N 
ATOM      4  C   UNL     1       2.349   3.557  18.935  0.00  0.00    +0.000 C 
ATOM      5  O   UNL     1       1.153   3.358  18.792  0.00  0.00    +0.000 OA
ATOM      6  N   UNL     1       3.059   4.770  19.059  0.00  0.00    +0.000 N 
ATOM      7  H   UNL     1       2.898   1.578  19.179  0.00  0.00    +0.000 HD
ENDROOT
BRANCH   6   8
ATOM      8  C   UNL     1       2.494   6.063  19.243  0.00  0.00    +0.000 A 
ATOM      9  C   UNL     1       1.930   6.438  20.474  0.00  0.00    +0.000 A 
ATOM     10  C   UNL     1       1.451   7.737  20.715  0.00  0.00    +0.000 A 
ATOM     11  C   UNL     1       1.520   8.680  19.686  0.00  0.00    +0.000 A 
ATOM     12  N   UNL     1       1.141   9.999  19.667  0.00  0.00    +0.000 NA
ATOM     13  C   UNL     1       1.409  10.417  18.451  0.00  0.00    +0.000 A 
ATOM     14  N   UNL     1       1.945   9.422  17.683  0.00  0.00    +0.000 N 
ATOM     15  C   UNL     1       2.047   8.296  18.460  0.00  0.00    +0.000 A 
ATOM     16  C   UNL     1       2.541   7.012  18.203  0.00  0.00    +0.000 A 
ATOM     17  H   UNL     1       2.221   9.504  16.716  0.00  0.00    +0.000 HD
ENDBRANCH   6   8
BRANCH   1  20
ATOM     18  C   UNL     1       7.047   6.096  16.741  0.00  0.00    +0.000 A 
ATOM     19  C   UNL     1       6.285   5.830  17.893  0.00  0.00    +0.000 A 
ATOM     20  C   UNL     1       5.313   4.801  17.930  0.00  0.00    +0.000 A 
ATOM     21  C   UNL     1       5.095   4.044  16.767  0.00  0.00    +0.000 A 
ATOM     22  C   UNL     1       5.858   4.317  15.649  0.00  0.00    +0.000 A 
ATOM     23  C   UNL     1       6.811   5.313  15.626  0.00  0.00    +0.000 A 
ATOM     24  O   UNL     1       7.432   5.374  14.414  0.00  0.00    +0.000 OA
ATOM     25  C   UNL     1       6.801   4.291  13.707  0.00  0.00    +0.000 C 
ATOM     26  O   UNL     1       5.767   3.643  14.470  0.00  0.00    +0.000 OA
BRANCH  18  28
ATOM     27  C   UNL     1       7.562   8.219  17.685  0.00  0.00    +0.000 C 
ATOM     28  O   UNL     1       7.948   7.111  16.882  0.00  0.00    +0.000 OA
ENDBRANCH  18  28
ENDBRANCH   1  20
TORSDOF 3
ENDMDL
MODEL 3
REMARK VINA RESULT:      -8.4      2.986      6.727
REMARK  Name = 
REMARK  4 active torsions:
REMARK  status: ('A' for Active; 'I' for Inactive)
REMARK    1  A    between atoms: C_1  and  O_2
REMARK    2  A    between atoms: O_2  and  C_3
REMARK    3  A    between atoms: C_5  and  C_6
REMARK    4  A    between atoms: N_11  and  C_12
REMARK                            x       y       z     vdW  Elec       q    Type
REMARK                         _______ _______ _______ _____ _____    ______ ____
ROOT
ATOM      1  C   UNL     1       2.550   4.866  18.393  0.00  0.00    +0.000 C 
ATOM      2  C   UNL     1       1.896   3.849  19.336  0.00  0.00    +0.000 C 
ATOM      3  N   UNL     1       2.967   3.446  20.198  0.00  0.00    +0.000 N 
ATOM      4  C   UNL     1       4.192   3.686  19.584  0.00  0.00    +0.000 C 
ATOM      5  O   UNL     1       5.231   3.200  20.005  0.00  0.00    +0.000 OA
ATOM      6  N   UNL     1       3.964   4.508  18.461  0.00  0.00    +0.000 N 
ATOM      7  H   UNL     1       2.921   2.708  20.890  0.00  0.00    +0.000 HD
ENDROOT
BRANCH   6   8
ATOM      8  C   UNL     1       4.897   4.804  17.428  0.00  0.00    +0.000 A 
ATOM      9  C   UNL     1       5.961   5.694  17.649  0.00  0.00    +0.000 A 
ATOM     10  C   UNL     1       6.952   5.934  16.680  0.00  0.00    +0.000 A 
ATOM     11  C   UNL     1       6.859   5.279  15.449  0.00  0.00    +0.000 A 
ATOM     12  N   UNL     1       7.688   5.326  14.357  0.00  0.00    +0.000 NA
ATOM     13  C   UNL     1       7.132   4.536  13.467  0.00  0.00    +0.000 A 
ATOM     14  N   UNL     1       5.977   3.980  13.939  0.00  0.00    +0.000 N 
ATOM     15  C   UNL     1       5.787   4.426  15.222  0.00  0.00    +0.000 A 
ATOM     16  C   UNL     1       4.797   4.164  16.177  0.00  0.00    +0.000 A 
ATOM     17  H   UNL     1       5.372   3.350  13.433  0.00  0.00    +0.000 HD
ENDBRANCH   6   8
BRANCH   1  20
ATOM     18  C   UNL     1       1.510   7.977  20.460  0.00  0.00    +0.000 A 
ATOM     19  C   UNL     1       1.802   6.649  20.101  0.00  0.00    +0.000 A 
ATOM     20  C   UNL     1       2.220   6.299  18.794  0.00  0.00    +0.000 A 
ATOM     21  C   UNL     1       2.319   7.314  17.828  0.00  0.00    +0.000 A 
ATOM     22  C   UNL     1       2.034   8.611  18.203  0.00  0.00    +0.000 A 
ATOM     23  C   UNL     1       1.641   8.946  19.482  0.00  0.00    +0.000 A 
ATOM     24  O   UNL     1       1.431  10.288  19.599  0.00  0.00    +0.000 OA
ATOM     25  C   UNL     1       1.777  10.754  18.283  0.00  0.00    +0.000 C 
ATOM     26  O   UNL     1       2.118   9.690  17.376  0.00  0.00    +0.000 OA
BRANCH  18  28
ATOM     27  C   UNL     1      -0.201   8.552  22.012  0.00  0.00    +0.000 C 
ATOM     28  O   UNL     1       1.137   8.140  21.763  0.00  0.00    +0.000 OA
ENDBRANCH  18  28
ENDBRANCH   1  20
TORSDOF 3
ENDMDL
MODEL 4
REMARK VINA RESULT:      -8.2      2.957      6.787
REMARK  Name = 
REMARK  4 active torsions:
REMARK  status: ('A' for Active; 'I' for Inactive)
REMARK    1  A    between atoms: C_1  and  O_2
REMARK    2  A    between atoms: O_2  and  C_3
REMARK    3  A    between atoms: C_5  and  C_6
REMARK    4  A    between atoms: N_11  and  C_12
REMARK                            x       y       z     vdW  Elec       q    Type
REMARK                         _______ _______ _______ _____ _____    ______ ____
ROOT
ATOM      1  C   UNL     1       2.505   4.811  18.422  0.00  0.00    +0.000 C 
ATOM      2  C   UNL     1       1.844   3.759  19.322  0.00  0.00    +0.000 C 
ATOM      3  N   UNL     1       2.913   3.316  20.168  0.00  0.00    +0.000 N 
ATOM      4  C   UNL     1       4.140   3.575  19.565  0.00  0.00    +0.000 C 
ATOM      5  O   UNL     1       5.176   3.068  19.966  0.00  0.00    +0.000 OA
ATOM      6  N   UNL     1       3.917   4.444  18.477  0.00  0.00    +0.000 N 
ATOM      7  H   UNL     1       2.863   2.551  20.829  0.00  0.00    +0.000 HD
ENDROOT
BRANCH   6   8
ATOM      8  C   UNL     1       4.853   4.778  17.458  0.00  0.00    +0.000 A 
ATOM      9  C   UNL     1       5.872   5.715  17.691  0.00  0.00    +0.000 A 
ATOM     10  C   UNL     1       6.866   5.996  16.737  0.00  0.00    +0.000 A 
ATOM     11  C   UNL     1       6.824   5.333  15.509  0.00  0.00    +0.000 A 
ATOM     12  N   UNL     1       7.668   5.413  14.430  0.00  0.00    +0.000 NA
ATOM     13  C   UNL     1       7.163   4.595  13.535  0.00  0.00    +0.000 A 
ATOM     14  N   UNL     1       6.027   3.989  13.991  0.00  0.00    +0.000 N 
ATOM     15  C   UNL     1       5.795   4.431  15.269  0.00  0.00    +0.000 A 
ATOM     16  C   UNL     1       4.803   4.128  16.209  0.00  0.00    +0.000 A 
ATOM     17  H   UNL     1       5.460   3.330  13.478  0.00  0.00    +0.000 HD
ENDBRANCH   6   8
BRANCH   1  20
ATOM     18  C   UNL     1       1.927   8.645  18.447  0.00  0.00    +0.000 A 
ATOM     19  C   UNL     1       2.238   7.344  18.012  0.00  0.00    +0.000 A 
ATOM     20  C   UNL     1       2.181   6.228  18.882  0.00  0.00    +0.000 A 
ATOM     21  C   UNL     1       1.826   6.442  20.223  0.00  0.00    +0.000 A 
ATOM     22  C   UNL     1       1.518   7.725  20.628  0.00  0.00    +0.000 A 
ATOM     23  C   UNL     1       1.563   8.805  19.771  0.00  0.00    +0.000 A 
ATOM     24  O   UNL     1       1.207   9.956  20.408  0.00  0.00    +0.000 OA
ATOM     25  C   UNL     1       0.894   9.475  21.728  0.00  0.00    +0.000 C 
ATOM     26  O   UNL     1       1.133   8.065  21.889  0.00  0.00    +0.000 OA
BRANCH  18  28
ATOM     27  C   UNL     1       2.365  10.917  17.888  0.00  0.00    +0.000 C 
ATOM     28  O   UNL     1       2.018   9.601  17.477  0.00  0.00    +0.000 OA
ENDBRANCH  18  28
ENDBRANCH   1  20
TORSDOF 3
ENDMDL
MODEL 5
REMARK VINA RESULT:      -7.8      1.106      1.140
REMARK  Name = 
REMARK  4 active torsions:
REMARK  status: ('A' for Active; 'I' for Inactive)
REMARK    1  A    between atoms: C_1  and  O_2
REMARK    2  A    between atoms: O_2  and  C_3
REMARK    3  A    between atoms: C_5  and  C_6
REMARK    4  A    between atoms: N_11  and  C_12
REMARK                            x       y       z     vdW  Elec       q    Type
REMARK                         _______ _______ _______ _____ _____    ______ ____
ROOT
ATOM      1  C   UNL     1       3.822   3.881  19.303  0.00  0.00    +0.000 C 
ATOM      2  C   UNL     1       3.473   2.389  19.377  0.00  0.00    +0.000 C 
ATOM      3  N   UNL     1       2.272   2.283  18.603  0.00  0.00    +0.000 N 
ATOM      4  C   UNL     1       1.634   3.518  18.536  0.00  0.00    +0.000 C 
ATOM      5  O   UNL     1       0.479   3.628  18.154  0.00  0.00    +0.000 OA
ATOM      6  N   UNL     1       2.536   4.500  18.996  0.00  0.00    +0.000 N 
ATOM      7  H   UNL     1       1.702   1.451  18.511  0.00  0.00    +0.000 HD
ENDROOT
BRANCH   6   8
ATOM      8  C   UNL     1       2.223   5.853  19.308  0.00  0.00    +0.000 A 
ATOM      9  C   UNL     1       2.449   6.881  18.378  0.00  0.00    +0.000 A 
ATOM     10  C   UNL     1       2.064   8.211  18.621  0.00  0.00    +0.000 A 
ATOM     11  C   UNL     1       1.455   8.521  19.840  0.00  0.00    +0.000 A 
ATOM     12  N   UNL     1       0.980   9.718  20.312  0.00  0.00    +0.000 NA
ATOM     13  C   UNL     1       0.522   9.458  21.515  0.00  0.00    +0.000 A 
ATOM     14  N   UNL     1       0.683   8.141  21.841  0.00  0.00    +0.000 N 
ATOM     15  C   UNL     1       1.265   7.509  20.771  0.00  0.00    +0.000 A 
ATOM     16  C   UNL     1       1.629   6.176  20.544  0.00  0.00    +0.000 A 
ATOM     17  H   UNL     1       0.418   7.709  22.714  0.00  0.00    +0.000 HD
ENDBRANCH   6   8
BRANCH   1  20
ATOM     18  C   UNL     1       7.214   4.913  17.732  0.00  0.00    +0.000 A 
ATOM     19  C   UNL     1       6.193   4.678  18.671  0.00  0.00    +0.000 A 
ATOM     20  C   UNL     1       4.934   4.151  18.296  0.00  0.00    +0.000 A 
ATOM     21  C   UNL     1       4.698   3.880  16.938  0.00  0.00    +0.000 A 
ATOM     22  C   UNL     1       5.715   4.111  16.034  0.00  0.00    +0.000 A 
ATOM     23  C   UNL     1       6.944   4.613  16.410  0.00  0.00    +0.000 A 
ATOM     24  O   UNL     1       7.775   4.740  15.336  0.00  0.00    +0.000 OA
ATOM     25  C   UNL     1       6.956   4.226  14.271  0.00  0.00    +0.000 C 
ATOM     26  O   UNL     1       5.630   3.867  14.697  0.00  0.00    +0.000 OA
BRANCH  18  28
ATOM     27  C   UNL     1       8.342   5.794  19.633  0.00  0.00    +0.000 C 
ATOM     28  O   UNL     1       8.368   5.408  18.265  0.00  0.00    +0.000 OA
ENDBRANCH  18  28
ENDBRANCH   1  20
TORSDOF 3
ENDMDL
MODEL 6
REMARK VINA RESULT:      -7.7      3.034      7.169
REMARK  Name = 
REMARK  4 active torsions:
REMARK  status: ('A' for Active; 'I' for Inactive)
REMARK    1  A    between atoms: C_1  and  O_2
REMARK    2  A    between atoms: O_2  and  C_3
REMARK    3  A    between atoms: C_5  and  C_6
REMARK    4  A    between atoms: N_11  and  C_12
REMARK                            x       y       z     vdW  Elec       q    Type
REMARK                         _______ _______ _______ _____ _____    ______ ____
ROOT
ATOM      1  C   UNL     1       6.583   4.780  18.608  0.00  0.00    +0.000 C 
ATOM      2  C   UNL     1       7.513   5.512  19.584  0.00  0.00    +0.000 C 
ATOM      3  N   UNL     1       7.713   6.790  18.969  0.00  0.00    +0.000 N 
ATOM      4  C   UNL     1       7.464   6.709  17.602  0.00  0.00    +0.000 C 
ATOM      5  O   UNL     1       7.808   7.590  16.830  0.00  0.00    +0.000 OA
ATOM      6  N   UNL     1       6.819   5.481  17.348  0.00  0.00    +0.000 N 
ATOM      7  H   UNL     1       8.353   7.505  19.291  0.00  0.00    +0.000 HD
ENDROOT
BRANCH   6   8
ATOM      8  C   UNL     1       6.592   4.894  16.072  0.00  0.00    +0.000 A 
ATOM      9  C   UNL     1       5.491   4.051  15.849  0.00  0.00    +0.000 A 
ATOM     10  C   UNL     1       5.188   3.532  14.577  0.00  0.00    +0.000 A 
ATOM     11  C   UNL     1       6.025   3.853  13.506  0.00  0.00    +0.000 A 
ATOM     12  N   UNL     1       5.945   3.496  12.183  0.00  0.00    +0.000 NA
ATOM     13  C   UNL     1       6.988   4.053  11.612  0.00  0.00    +0.000 A 
ATOM     14  N   UNL     1       7.740   4.755  12.511  0.00  0.00    +0.000 N 
ATOM     15  C   UNL     1       7.131   4.660  13.736  0.00  0.00    +0.000 A 
ATOM     16  C   UNL     1       7.444   5.196  14.991  0.00  0.00    +0.000 A 
ATOM     17  H   UNL     1       8.591   5.257  12.307  0.00  0.00    +0.000 HD
ENDBRANCH   6   8
BRANCH   1  20
ATOM     18  C   UNL     1       2.992   5.930  19.510  0.00  0.00    +0.000 A 
ATOM     19  C   UNL     1       4.326   5.943  19.066  0.00  0.00    +0.000 A 
ATOM     20  C   UNL     1       5.139   4.784  19.096  0.00  0.00    +0.000 A 
ATOM     21  C   UNL     1       4.593   3.596  19.609  0.00  0.00    +0.000 A 
ATOM     22  C   UNL     1       3.279   3.603  20.033  0.00  0.00    +0.000 A 
ATOM     23  C   UNL     1       2.491   4.733  19.989  0.00  0.00    +0.000 A 
ATOM     24  O   UNL     1       1.235   4.478  20.454  0.00  0.00    +0.000 OA
ATOM     25  C   UNL     1       1.312   3.071  20.745  0.00  0.00    +0.000 C 
ATOM     26  O   UNL     1       2.621   2.517  20.524  0.00  0.00    +0.000 OA
BRANCH  18  28
ATOM     27  C   UNL     1       2.565   7.877  18.209  0.00  0.00    +0.000 C 
ATOM     28  O   UNL     1       2.348   7.128  19.398  0.00  0.00    +0.000 OA
ENDBRANCH  18  28
ENDBRANCH   1  20
TORSDOF 3
ENDMDL
MODEL 7
REMARK VINA RESULT:      -7.6      4.989      9.409
REMARK  Name = 
REMARK  4 active torsions:
REMARK  status: ('A' for Active; 'I' for Inactive)
REMARK    1  A    between atoms: C_1  and  O_2
REMARK    2  A    between atoms: O_2  and  C_3
REMARK    3  A    between atoms: C_5  and  C_6
REMARK    4  A    between atoms: N_11  and  C_12
REMARK                            x       y       z     vdW  Elec       q    Type
REMARK                         _______ _______ _______ _____ _____    ______ ____
ROOT
ATOM      1  C   UNL     1      -0.422  11.474  19.961  0.00  0.00    +0.000 C 
ATOM      2  C   UNL     1      -0.197  12.916  20.436  0.00  0.00    +0.000 C 
ATOM      3  N   UNL     1       0.811  13.413  19.548  0.00  0.00    +0.000 N 
ATOM      4  C   UNL     1       1.528  12.356  18.997  0.00  0.00    +0.000 C 
ATOM      5  O   UNL     1       2.589  12.528  18.416  0.00  0.00    +0.000 OA
ATOM      6  N   UNL     1       0.827  11.163  19.270  0.00  0.00    +0.000 N 
ATOM      7  H   UNL     1       1.276  14.309  19.626  0.00  0.00    +0.000 HD
ENDROOT
BRANCH   6   8
ATOM      8  C   UNL     1       1.313   9.838  19.092  0.00  0.00    +0.000 A 
ATOM      9  C   UNL     1       1.881   9.434  17.873  0.00  0.00    +0.000 A 
ATOM     10  C   UNL     1       2.455   8.162  17.697  0.00  0.00    +0.000 A 
ATOM     11  C   UNL     1       2.439   7.265  18.767  0.00  0.00    +0.000 A 
ATOM     12  N   UNL     1       2.936   5.989  18.860  0.00  0.00    +0.000 NA
ATOM     13  C   UNL     1       2.641   5.592  20.077  0.00  0.00    +0.000 A 
ATOM     14  N   UNL     1       1.973   6.558  20.774  0.00  0.00    +0.000 N 
ATOM     15  C   UNL     1       1.847   7.656  19.961  0.00  0.00    +0.000 A 
ATOM     16  C   UNL     1       1.281   8.920  20.161  0.00  0.00    +0.000 A 
ATOM     17  H   UNL     1       1.636   6.479  21.722  0.00  0.00    +0.000 HD
ENDBRANCH   6   8
BRANCH   1  20
ATOM     18  C   UNL     1      -2.919  10.437  17.183  0.00  0.00    +0.000 A 
ATOM     19  C   UNL     1      -1.744  10.551  17.949  0.00  0.00    +0.000 A 
ATOM     20  C   UNL     1      -1.684  11.350  19.116  0.00  0.00    +0.000 A 
ATOM     21  C   UNL     1      -2.830  12.064  19.500  0.00  0.00    +0.000 A 
ATOM     22  C   UNL     1      -3.975  11.933  18.739  0.00  0.00    +0.000 A 
ATOM     23  C   UNL     1      -4.029  11.143  17.610  0.00  0.00    +0.000 A 
ATOM     24  O   UNL     1      -5.269  11.174  17.044  0.00  0.00    +0.000 OA
ATOM     25  C   UNL     1      -5.986  12.022  17.959  0.00  0.00    +0.000 C 
ATOM     26  O   UNL     1      -5.159  12.546  19.014  0.00  0.00    +0.000 OA
BRANCH  18  28
ATOM     27  C   UNL     1      -2.951  10.209  14.814  0.00  0.00    +0.000 C 
ATOM     28  O   UNL     1      -2.808   9.616  16.099  0.00  0.00    +0.000 OA
ENDBRANCH  18  28
ENDBRANCH   1  20
TORSDOF 3
ENDMDL
MODEL 8
REMARK VINA RESULT:      -7.5      5.034      9.158
REMARK  Name = 
REMARK  4 active torsions:
REMARK  status: ('A' for Active; 'I' for Inactive)
REMARK    1  A    between atoms: C_1  and  O_2
REMARK    2  A    between atoms: O_2  and  C_3
REMARK    3  A    between atoms: C_5  and  C_6
REMARK    4  A    between atoms: N_11  and  C_12
REMARK                            x       y       z     vdW  Elec       q    Type
REMARK                         _______ _______ _______ _____ _____    ______ ____
ROOT
ATOM      1  C   UNL     1      -0.853  11.191  19.896  0.00  0.00    +0.000 C 
ATOM      2  C   UNL     1      -0.857  12.552  20.603  0.00  0.00    +0.000 C 
ATOM      3  N   UNL     1       0.270  13.232  20.037  0.00  0.00    +0.000 N 
ATOM      4  C   UNL     1       1.174  12.311  19.517  0.00  0.00    +0.000 C 
ATOM      5  O   UNL     1       2.315  12.626  19.215  0.00  0.00    +0.000 OA
ATOM      6  N   UNL     1       0.535  11.055  19.462  0.00  0.00    +0.000 N 
ATOM      7  H   UNL     1       0.631  14.129  20.339  0.00  0.00    +0.000 HD
ENDROOT
BRANCH   6   8
ATOM      8  C   UNL     1       1.158   9.800  19.214  0.00  0.00    +0.000 A 
ATOM      9  C   UNL     1       1.816   9.547  17.999  0.00  0.00    +0.000 A 
ATOM     10  C   UNL     1       2.521   8.354  17.762  0.00  0.00    +0.000 A 
ATOM     11  C   UNL     1       2.548   7.380  18.763  0.00  0.00    +0.000 A 
ATOM     12  N   UNL     1       3.165   6.155  18.790  0.00  0.00    +0.000 NA
ATOM     13  C   UNL     1       2.859   5.640  19.958  0.00  0.00    +0.000 A 
ATOM     14  N   UNL     1       2.068   6.481  20.688  0.00  0.00    +0.000 N 
ATOM     15  C   UNL     1       1.868   7.620  19.950  0.00  0.00    +0.000 A 
ATOM     16  C   UNL     1       1.171   8.805  20.211  0.00  0.00    +0.000 A 
ATOM     17  H   UNL     1       1.699   6.297  21.609  0.00  0.00    +0.000 HD
ENDBRANCH   6   8
BRANCH   1  20
ATOM     18  C   UNL     1      -4.124  11.663  17.869  0.00  0.00    +0.000 A 
ATOM     19  C   UNL     1      -3.176  11.717  18.907  0.00  0.00    +0.000 A 
ATOM     20  C   UNL     1      -1.894  11.131  18.784  0.00  0.00    +0.000 A 
ATOM     21  C   UNL     1      -1.577  10.455  17.595  0.00  0.00    +0.000 A 
ATOM     22  C   UNL     1      -2.518  10.419  16.585  0.00  0.00    +0.000 A 
ATOM     23  C   UNL     1      -3.761  11.004  16.708  0.00  0.00    +0.000 A 
ATOM     24  O   UNL     1      -4.499  10.839  15.574  0.00  0.00    +0.000 OA
ATOM     25  C   UNL     1      -3.575  10.135  14.724  0.00  0.00    +0.000 C 
ATOM     26  O   UNL     1      -2.330   9.824  15.375  0.00  0.00    +0.000 OA
BRANCH  18  28
ATOM     27  C   UNL     1      -6.443  11.472  18.371  0.00  0.00    +0.000 C 
ATOM     28  O   UNL     1      -5.303  12.291  18.147  0.00  0.00    +0.000 OA
ENDBRANCH  18  28
ENDBRANCH   1  20
TORSDOF 3
ENDMDL
MODEL 9
REMARK VINA RESULT:      -7.2      2.955      6.982
REMARK  Name = 
REMARK  4 active torsions:
REMARK  status: ('A' for Active; 'I' for Inactive)
REMARK    1  A    between atoms: C_1  and  O_2
REMARK    2  A    between atoms: O_2  and  C_3
REMARK    3  A    between atoms: C_5  and  C_6
REMARK    4  A    between atoms: N_11  and  C_12
REMARK                            x       y       z     vdW  Elec       q    Type
REMARK                         _______ _______ _______ _____ _____    ______ ____
ROOT
ATOM      1  C   UNL     1       6.535   4.680  18.040  0.00  0.00    +0.000 C 
ATOM      2  C   UNL     1       7.346   5.301  19.185  0.00  0.00    +0.000 C 
ATOM      3  N   UNL     1       7.536   6.659  18.770  0.00  0.00    +0.000 N 
ATOM      4  C   UNL     1       7.405   6.761  17.389  0.00  0.00    +0.000 C 
ATOM      5  O   UNL     1       7.768   7.753  16.777  0.00  0.00    +0.000 OA
ATOM      6  N   UNL     1       6.841   5.558  16.914  0.00  0.00    +0.000 N 
ATOM      7  H   UNL     1       8.113   7.344  19.241  0.00  0.00    +0.000 HD
ENDROOT
BRANCH   6   8
ATOM      8  C   UNL     1       6.748   5.148  15.554  0.00  0.00    +0.000 A 
ATOM      9  C   UNL     1       7.808   5.367  14.659  0.00  0.00    +0.000 A 
ATOM     10  C   UNL     1       7.783   4.890  13.336  0.00  0.00    +0.000 A 
ATOM     11  C   UNL     1       6.656   4.193  12.895  0.00  0.00    +0.000 A 
ATOM     12  N   UNL     1       6.391   3.620  11.677  0.00  0.00    +0.000 NA
ATOM     13  C   UNL     1       5.186   3.108  11.791  0.00  0.00    +0.000 A 
ATOM     14  N   UNL     1       4.662   3.327  13.033  0.00  0.00    +0.000 N 
ATOM     15  C   UNL     1       5.596   4.007  13.773  0.00  0.00    +0.000 A 
ATOM     16  C   UNL     1       5.605   4.463  15.096  0.00  0.00    +0.000 A 
ATOM     17  H   UNL     1       3.749   3.037  13.351  0.00  0.00    +0.000 HD
ENDBRANCH   6   8
BRANCH   1  20
ATOM     18  C   UNL     1       2.900   5.567  19.056  0.00  0.00    +0.000 A 
ATOM     19  C   UNL     1       4.266   5.686  18.740  0.00  0.00    +0.000 A 
ATOM     20  C   UNL     1       5.058   4.564  18.395  0.00  0.00    +0.000 A 
ATOM     21  C   UNL     1       4.457   3.295  18.395  0.00  0.00    +0.000 A 
ATOM     22  C   UNL     1       3.114   3.200  18.701  0.00  0.00    +0.000 A 
ATOM     23  C   UNL     1       2.347   4.300  19.024  0.00  0.00    +0.000 A 
ATOM     24  O   UNL     1       1.055   3.944  19.274  0.00  0.00    +0.000 OA
ATOM     25  C   UNL     1       1.090   2.527  19.030  0.00  0.00    +0.000 C 
ATOM     26  O   UNL     1       2.405   2.038  18.710  0.00  0.00    +0.000 OA
BRANCH  18  28
ATOM     27  C   UNL     1       2.412   7.804  18.408  0.00  0.00    +0.000 C 
ATOM     28  O   UNL     1       2.284   6.748  19.351  0.00  0.00    +0.000 OA
ENDBRANCH  18  28
ENDBRANCH   1  20
TORSDOF 3
ENDMDL
