MODEL 1
REMARK VINA RESULT:      -6.7      0.000      0.000
REMARK  Name = 
REMARK  11 active torsions:
REMARK  status: ('A' for Active; 'I' for Inactive)
REMARK    1  A    between atoms: C_1  and  C_2
REMARK    2  A    between atoms: N_4  and  C_5
REMARK    3  A    between atoms: C_5  and  C_6
REMARK    4  A    between atoms: C_5  and  C_7
REMARK    5  A    between atoms: C_7  and  O_8
REMARK    6  A    between atoms: C_21  and  C_22
REMARK    7  A    between atoms: C_22  and  N_23
REMARK    8  A    between atoms: N_23  and  C_24
REMARK    9  A    between atoms: C_25  and  C_27
REMARK   10  A    between atoms: C_27  and  C_28
REMARK   11  A    between atoms: C_28  and  C_29
REMARK                            x       y       z     vdW  Elec       q    Type
REMARK                         _______ _______ _______ _____ _____    ______ ____
ROOT
ATOM      1  C   UNL     1       1.932  12.233  18.550  0.00  0.00    +0.000 C 
ATOM      2  C   UNL     1       1.054  11.767  19.752  0.00  0.00    +0.000 C 
ATOM      3  C   UNL     1       0.290  13.281  20.367  0.00  0.00    +0.000 C 
ATOM      4  N   UNL     1      -1.188  13.403  20.963  0.00  0.00    +0.000 N 
ATOM      5  C   UNL     1      -2.164  14.444  21.102  0.00  0.00    +0.000 C 
ATOM      6  O   UNL     1      -1.829  15.595  21.405  0.00  0.00    +0.000 OA
ATOM      7  C   UNL     1      -3.891  14.079  20.856  0.00  0.00    +0.000 C 
ATOM      8  C   UNL     1      -4.785  12.750  20.314  0.00  0.00    +0.000 C 
ATOM      9  C   UNL     1      -5.166  12.495  18.791  0.00  0.00    +0.000 C 
ATOM     10  N   UNL     1      -4.467  11.430  18.036  0.00  0.00    +0.000 N 
ATOM     11  C   UNL     1      -3.602  10.454  18.486  0.00  0.00    +0.000 A 
ATOM     12  C   UNL     1      -2.651  10.384  17.468  0.00  0.00    +0.000 A 
ATOM     13  N   UNL     1      -3.178  10.983  16.353  0.00  0.00    +0.000 NA
ATOM     14  N   UNL     1      -4.323  11.567  16.698  0.00  0.00    +0.000 NA
ATOM     15  C   UNL     1      -1.156  10.160  17.589  0.00  0.00    +0.000 C 
ATOM     16  O   UNL     1      -0.754   9.932  18.968  0.00  0.00    +0.000 OA
ATOM     17  C   UNL     1       0.640  10.175  19.196  0.00  0.00    +0.000 C 
ENDROOT
BRANCH   4  18
ATOM     18  C   UNL     1      -1.845  12.231  20.658  0.00  0.00    +0.000 C 
ATOM     19  C   UNL     1      -1.710  12.573  19.141  0.00  0.00    +0.000 C 
BRANCH  18  20
ATOM     20  C   UNL     1      -1.391  11.473  21.949  0.00  0.00    +0.000 C 
BRANCH  20  21
ATOM     21  O   UNL     1      -2.257  11.605  23.064  0.00  0.00    +0.000 OA
ATOM     22  H   UNL     1      -1.774  12.158  23.713  0.00  0.00    +0.000 HD
ENDBRANCH  20  21
ENDBRANCH  18  20
ENDBRANCH   4  18
BRANCH  17  23
ATOM     23  C   UNL     1       1.294   8.913  19.988  0.00  0.00    +0.000 C 
BRANCH  23  24
ATOM     24  N   UNL     1       2.159   7.947  19.153  0.00  0.00    +0.000 N 
ATOM     25  C   UNL     1       2.489   8.298  17.767  0.00  0.00    +0.000 C 
ATOM     26  C   UNL     1       2.220   6.593  19.538  0.00  0.00    +0.000 C 
ATOM     27  O   UNL     1       1.891   6.240  20.681  0.00  0.00    +0.000 OA
BRANCH  26  28
ATOM     28  C   UNL     1       2.780   5.546  18.547  0.00  0.00    +0.000 C 
BRANCH  28  29
ATOM     29  C   UNL     1       1.715   4.557  18.028  0.00  0.00    +0.000 C 
BRANCH  29  30
ATOM     30  C   UNL     1       1.575   3.329  18.899  0.00  0.00    +0.000 C 
ATOM     31  F   UNL     1       0.508   3.414  19.723  0.00  0.00    +0.000 F 
ATOM     32  F   UNL     1       1.390   2.229  18.128  0.00  0.00    +0.000 F 
ATOM     33  F   UNL     1       2.672   3.108  19.646  0.00  0.00    +0.000 F 
ENDBRANCH  29  30
ENDBRANCH  28  29
ENDBRANCH  26  28
ENDBRANCH  23  24
ENDBRANCH  17  23
TORSDOF 8
ENDMDL
MODEL 2
REMARK VINA RESULT:      -6.3      0.945      1.211
REMARK  Name = 
REMARK  11 active torsions:
REMARK  status: ('A' for Active; 'I' for Inactive)
REMARK    1  A    between atoms: C_1  and  C_2
REMARK    2  A    between atoms: N_4  and  C_5
REMARK    3  A    between atoms: C_5  and  C_6
REMARK    4  A    between atoms: C_5  and  C_7
REMARK    5  A    between atoms: C_7  and  O_8
REMARK    6  A    between atoms: C_21  and  C_22
REMARK    7  A    between atoms: C_22  and  N_23
REMARK    8  A    between atoms: N_23  and  C_24
REMARK    9  A    between atoms: C_25  and  C_27
REMARK   10  A    between atoms: C_27  and  C_28
REMARK   11  A    between atoms: C_28  and  C_29
REMARK                            x       y       z     vdW  Elec       q    Type
REMARK                         _______ _______ _______ _____ _____    ______ ____
ROOT
ATOM      1  C   UNL     1       1.921  12.071  18.454  0.00  0.00    +0.000 C 
ATOM      2  C   UNL     1       1.054  11.613  19.667  0.00  0.00    +0.000 C 
ATOM      3  C   UNL     1       0.369  13.143  20.336  0.00  0.00    +0.000 C 
ATOM      4  N   UNL     1      -1.089  13.311  20.971  0.00  0.00    +0.000 N 
ATOM      5  C   UNL     1      -2.016  14.386  21.158  0.00  0.00    +0.000 C 
ATOM      6  O   UNL     1      -1.627  15.515  21.479  0.00  0.00    +0.000 OA
ATOM      7  C   UNL     1      -3.763  14.099  20.948  0.00  0.00    +0.000 C 
ATOM      8  C   UNL     1      -4.724  12.821  20.398  0.00  0.00    +0.000 C 
ATOM      9  C   UNL     1      -5.152  12.618  18.880  0.00  0.00    +0.000 C 
ATOM     10  N   UNL     1      -4.516  11.543  18.084  0.00  0.00    +0.000 N 
ATOM     11  C   UNL     1      -3.682  10.523  18.489  0.00  0.00    +0.000 A 
ATOM     12  C   UNL     1      -2.759  10.438  17.446  0.00  0.00    +0.000 A 
ATOM     13  N   UNL     1      -3.288  11.084  16.359  0.00  0.00    +0.000 NA
ATOM     14  N   UNL     1      -4.399  11.706  16.746  0.00  0.00    +0.000 NA
ATOM     15  C   UNL     1      -1.273  10.150  17.524  0.00  0.00    +0.000 C 
ATOM     16  O   UNL     1      -0.848   9.873  18.887  0.00  0.00    +0.000 OA
ATOM     17  C   UNL     1       0.561  10.053  19.085  0.00  0.00    +0.000 C 
ENDROOT
BRANCH   4  18
ATOM     18  C   UNL     1      -1.801  12.174  20.656  0.00  0.00    +0.000 C 
ATOM     19  C   UNL     1      -1.698  12.552  19.145  0.00  0.00    +0.000 C 
BRANCH  18  20
ATOM     20  C   UNL     1      -1.338  11.364  21.911  0.00  0.00    +0.000 C 
BRANCH  20  21
ATOM     21  O   UNL     1      -2.007  11.685  23.120  0.00  0.00    +0.000 OA
ATOM     22  H   UNL     1      -2.025  10.857  23.643  0.00  0.00    +0.000 HD
ENDBRANCH  20  21
ENDBRANCH  18  20
ENDBRANCH   4  18
BRANCH  17  23
ATOM     23  C   UNL     1       1.181   8.747  19.832  0.00  0.00    +0.000 C 
BRANCH  23  24
ATOM     24  N   UNL     1       2.226   7.933  19.043  0.00  0.00    +0.000 N 
ATOM     25  C   UNL     1       2.620   8.381  17.703  0.00  0.00    +0.000 C 
ATOM     26  C   UNL     1       2.428   6.581  19.387  0.00  0.00    +0.000 C 
ATOM     27  O   UNL     1       2.055   6.141  20.485  0.00  0.00    +0.000 OA
BRANCH  26  28
ATOM     28  C   UNL     1       3.194   5.656  18.414  0.00  0.00    +0.000 C 
BRANCH  28  29
ATOM     29  C   UNL     1       3.069   4.157  18.760  0.00  0.00    +0.000 C 
BRANCH  29  30
ATOM     30  C   UNL     1       3.455   3.251  17.613  0.00  0.00    +0.000 C 
ATOM     31  F   UNL     1       4.593   3.658  17.008  0.00  0.00    +0.000 F 
ATOM     32  F   UNL     1       3.680   1.993  18.067  0.00  0.00    +0.000 F 
ATOM     33  F   UNL     1       2.487   3.169  16.682  0.00  0.00    +0.000 F 
ENDBRANCH  29  30
ENDBRANCH  28  29
ENDBRANCH  26  28
ENDBRANCH  23  24
ENDBRANCH  17  23
TORSDOF 8
ENDMDL
MODEL 3
REMARK VINA RESULT:      -6.1      1.463      1.764
REMARK  Name = 
REMARK  11 active torsions:
REMARK  status: ('A' for Active; 'I' for Inactive)
REMARK    1  A    between atoms: C_1  and  C_2
REMARK    2  A    between atoms: N_4  and  C_5
REMARK    3  A    between atoms: C_5  and  C_6
REMARK    4  A    between atoms: C_5  and  C_7
REMARK    5  A    between atoms: C_7  and  O_8
REMARK    6  A    between atoms: C_21  and  C_22
REMARK    7  A    between atoms: C_22  and  N_23
REMARK    8  A    between atoms: N_23  and  C_24
REMARK    9  A    between atoms: C_25  and  C_27
REMARK   10  A    between atoms: C_27  and  C_28
REMARK   11  A    between atoms: C_28  and  C_29
REMARK                            x       y       z     vdW  Elec       q    Type
REMARK                         _______ _______ _______ _____ _____    ______ ____
ROOT
ATOM      1  C   UNL     1       2.127  12.190  18.306  0.00  0.00    +0.000 C 
ATOM      2  C   UNL     1       1.306  11.755  19.559  0.00  0.00    +0.000 C 
ATOM      3  C   UNL     1       0.575  13.285  20.175  0.00  0.00    +0.000 C 
ATOM      4  N   UNL     1      -0.873  13.424  20.837  0.00  0.00    +0.000 N 
ATOM      5  C   UNL     1      -1.839  14.469  20.999  0.00  0.00    +0.000 C 
ATOM      6  O   UNL     1      -1.490  15.626  21.259  0.00  0.00    +0.000 OA
ATOM      7  C   UNL     1      -3.577  14.104  20.844  0.00  0.00    +0.000 C 
ATOM      8  C   UNL     1      -4.498  12.765  20.376  0.00  0.00    +0.000 C 
ATOM      9  C   UNL     1      -4.952  12.476  18.879  0.00  0.00    +0.000 C 
ATOM     10  N   UNL     1      -4.291  11.392  18.117  0.00  0.00    +0.000 N 
ATOM     11  C   UNL     1      -3.407  10.425  18.547  0.00  0.00    +0.000 A 
ATOM     12  C   UNL     1      -2.505  10.329  17.487  0.00  0.00    +0.000 A 
ATOM     13  N   UNL     1      -3.085  10.903  16.385  0.00  0.00    +0.000 NA
ATOM     14  N   UNL     1      -4.211  11.498  16.771  0.00  0.00    +0.000 NA
ATOM     15  C   UNL     1      -1.007  10.104  17.541  0.00  0.00    +0.000 C 
ATOM     16  O   UNL     1      -0.540   9.907  18.904  0.00  0.00    +0.000 OA
ATOM     17  C   UNL     1       0.864  10.151  19.060  0.00  0.00    +0.000 C 
ENDROOT
BRANCH   4  18
ATOM     18  C   UNL     1      -1.546  12.246  20.591  0.00  0.00    +0.000 C 
ATOM     19  C   UNL     1      -1.427  12.521  19.059  0.00  0.00    +0.000 C 
BRANCH  18  20
ATOM     20  C   UNL     1      -1.082  11.540  21.908  0.00  0.00    +0.000 C 
BRANCH  20  21
ATOM     21  O   UNL     1      -0.948  10.131  21.823  0.00  0.00    +0.000 OA
ATOM     22  H   UNL     1      -1.565   9.763  22.489  0.00  0.00    +0.000 HD
ENDBRANCH  20  21
ENDBRANCH  18  20
ENDBRANCH   4  18
BRANCH  17  23
ATOM     23  C   UNL     1       1.553   8.906  19.849  0.00  0.00    +0.000 C 
BRANCH  23  24
ATOM     24  N   UNL     1       2.277   7.856  18.982  0.00  0.00    +0.000 N 
ATOM     25  C   UNL     1       2.613   8.184  17.592  0.00  0.00    +0.000 C 
ATOM     26  C   UNL     1       2.188   6.499  19.352  0.00  0.00    +0.000 C 
ATOM     27  O   UNL     1       1.848   6.172  20.499  0.00  0.00    +0.000 OA
BRANCH  26  28
ATOM     28  C   UNL     1       2.596   5.407  18.336  0.00  0.00    +0.000 C 
BRANCH  28  29
ATOM     29  C   UNL     1       4.085   5.010  18.421  0.00  0.00    +0.000 C 
BRANCH  29  30
ATOM     30  C   UNL     1       4.692   4.700  17.072  0.00  0.00    +0.000 C 
ATOM     31  F   UNL     1       5.973   4.284  17.178  0.00  0.00    +0.000 F 
ATOM     32  F   UNL     1       4.003   3.699  16.470  0.00  0.00    +0.000 F 
ATOM     33  F   UNL     1       4.656   5.759  16.243  0.00  0.00    +0.000 F 
ENDBRANCH  29  30
ENDBRANCH  28  29
ENDBRANCH  26  28
ENDBRANCH  23  24
ENDBRANCH  17  23
TORSDOF 8
ENDMDL
MODEL 4
REMARK VINA RESULT:      -6.0      2.698      4.421
REMARK  Name = 
REMARK  11 active torsions:
REMARK  status: ('A' for Active; 'I' for Inactive)
REMARK    1  A    between atoms: C_1  and  C_2
REMARK    2  A    between atoms: N_4  and  C_5
REMARK    3  A    between atoms: C_5  and  C_6
REMARK    4  A    between atoms: C_5  and  C_7
REMARK    5  A    between atoms: C_7  and  O_8
REMARK    6  A    between atoms: C_21  and  C_22
REMARK    7  A    between atoms: C_22  and  N_23
REMARK    8  A    between atoms: N_23  and  C_24
REMARK    9  A    between atoms: C_25  and  C_27
REMARK   10  A    between atoms: C_27  and  C_28
REMARK   11  A    between atoms: C_28  and  C_29
REMARK                            x       y       z     vdW  Elec       q    Type
REMARK                         _______ _______ _______ _____ _____    ______ ____
ROOT
ATOM      1  C   UNL     1       0.109   9.779  23.241  0.00  0.00    +0.000 C 
ATOM      2  C   UNL     1      -0.803  10.479  22.186  0.00  0.00    +0.000 C 
ATOM      3  C   UNL     1      -2.021  11.377  23.167  0.00  0.00    +0.000 C 
ATOM      4  N   UNL     1      -2.649  12.800  22.797  0.00  0.00    +0.000 N 
ATOM      5  C   UNL     1      -3.241  13.888  23.519  0.00  0.00    +0.000 C 
ATOM      6  O   UNL     1      -3.995  13.682  24.477  0.00  0.00    +0.000 OA
ATOM      7  C   UNL     1      -2.907  15.567  23.025  0.00  0.00    +0.000 C 
ATOM      8  C   UNL     1      -1.874  16.324  21.919  0.00  0.00    +0.000 C 
ATOM      9  C   UNL     1      -0.396  16.801  22.264  0.00  0.00    +0.000 C 
ATOM     10  N   UNL     1       0.756  16.038  21.733  0.00  0.00    +0.000 N 
ATOM     11  C   UNL     1       0.785  15.016  20.808  0.00  0.00    +0.000 A 
ATOM     12  C   UNL     1       1.760  14.158  21.317  0.00  0.00    +0.000 A 
ATOM     13  N   UNL     1       2.501  14.856  22.235  0.00  0.00    +0.000 NA
ATOM     14  N   UNL     1       1.913  16.032  22.435  0.00  0.00    +0.000 NA
ATOM     15  C   UNL     1       1.783  12.642  21.300  0.00  0.00    +0.000 C 
ATOM     16  O   UNL     1       0.641  12.093  20.586  0.00  0.00    +0.000 OA
ATOM     17  C   UNL     1       0.366  10.727  20.926  0.00  0.00    +0.000 C 
ENDROOT
BRANCH   4  18
ATOM     18  C   UNL     1      -1.892  13.322  21.771  0.00  0.00    +0.000 C 
ATOM     19  C   UNL     1      -0.650  13.331  22.718  0.00  0.00    +0.000 C 
BRANCH  18  20
ATOM     20  C   UNL     1      -2.750  12.691  20.626  0.00  0.00    +0.000 C 
BRANCH  20  21
ATOM     21  O   UNL     1      -2.148  12.703  19.342  0.00  0.00    +0.000 OA
ATOM     22  H   UNL     1      -1.182  12.728  19.501  0.00  0.00    +0.000 HD
ENDBRANCH  20  21
ENDBRANCH  18  20
ENDBRANCH   4  18
BRANCH  17  23
ATOM     23  C   UNL     1       0.201   9.846  19.569  0.00  0.00    +0.000 C 
BRANCH  23  24
ATOM     24  N   UNL     1       1.423   9.012  19.135  0.00  0.00    +0.000 N 
ATOM     25  C   UNL     1       1.931   9.145  17.765  0.00  0.00    +0.000 C 
ATOM     26  C   UNL     1       1.731   7.840  19.857  0.00  0.00    +0.000 C 
ATOM     27  O   UNL     1       1.273   7.655  20.995  0.00  0.00    +0.000 OA
BRANCH  26  28
ATOM     28  C   UNL     1       2.714   6.812  19.252  0.00  0.00    +0.000 C 
BRANCH  28  29
ATOM     29  C   UNL     1       2.173   5.367  19.252  0.00  0.00    +0.000 C 
BRANCH  29  30
ATOM     30  C   UNL     1       2.500   4.613  17.983  0.00  0.00    +0.000 C 
ATOM     31  F   UNL     1       3.007   3.387  18.239  0.00  0.00    +0.000 F 
ATOM     32  F   UNL     1       1.376   4.428  17.248  0.00  0.00    +0.000 F 
ATOM     33  F   UNL     1       3.375   5.280  17.207  0.00  0.00    +0.000 F 
ENDBRANCH  29  30
ENDBRANCH  28  29
ENDBRANCH  26  28
ENDBRANCH  23  24
ENDBRANCH  17  23
TORSDOF 8
ENDMDL
MODEL 5
REMARK VINA RESULT:      -5.9      2.985      4.339
REMARK  Name = 
REMARK  11 active torsions:
REMARK  status: ('A' for Active; 'I' for Inactive)
REMARK    1  A    between atoms: C_1  and  C_2
REMARK    2  A    between atoms: N_4  and  C_5
REMARK    3  A    between atoms: C_5  and  C_6
REMARK    4  A    between atoms: C_5  and  C_7
REMARK    5  A    between atoms: C_7  and  O_8
REMARK    6  A    between atoms: C_21  and  C_22
REMARK    7  A    between atoms: C_22  and  N_23
REMARK    8  A    between atoms: N_23  and  C_24
REMARK    9  A    between atoms: C_25  and  C_27
REMARK   10  A    between atoms: C_27  and  C_28
REMARK   11  A    between atoms: C_28  and  C_29
REMARK                            x       y       z     vdW  Elec       q    Type
REMARK                         _______ _______ _______ _____ _____    ______ ____
ROOT
ATOM      1  C   UNL     1      -1.266  11.072  18.367  0.00  0.00    +0.000 C 
ATOM      2  C   UNL     1      -0.110  11.895  19.014  0.00  0.00    +0.000 C 
ATOM      3  C   UNL     1      -0.345  13.572  18.392  0.00  0.00    +0.000 C 
ATOM      4  N   UNL     1      -0.067  14.917  19.211  0.00  0.00    +0.000 N 
ATOM      5  C   UNL     1      -0.538  16.269  19.167  0.00  0.00    +0.000 C 
ATOM      6  O   UNL     1      -0.742  16.839  18.088  0.00  0.00    +0.000 OA
ATOM      7  C   UNL     1      -0.819  17.161  20.684  0.00  0.00    +0.000 C 
ATOM      8  C   UNL     1      -0.820  16.781  22.332  0.00  0.00    +0.000 C 
ATOM      9  C   UNL     1      -2.103  16.281  23.129  0.00  0.00    +0.000 C 
ATOM     10  N   UNL     1      -2.201  14.859  23.529  0.00  0.00    +0.000 N 
ATOM     11  C   UNL     1      -1.253  13.859  23.469  0.00  0.00    +0.000 A 
ATOM     12  C   UNL     1      -1.997  12.743  23.086  0.00  0.00    +0.000 A 
ATOM     13  N   UNL     1      -3.321  13.016  23.318  0.00  0.00    +0.000 NA
ATOM     14  N   UNL     1      -3.427  14.300  23.651  0.00  0.00    +0.000 NA
ATOM     15  C   UNL     1      -1.593  11.615  22.156  0.00  0.00    +0.000 C 
ATOM     16  O   UNL     1      -0.219  11.756  21.702  0.00  0.00    +0.000 OA
ATOM     17  C   UNL     1       0.057  11.018  20.504  0.00  0.00    +0.000 C 
ENDROOT
BRANCH   4  18
ATOM     18  C   UNL     1       0.102  14.559  20.530  0.00  0.00    +0.000 C 
ATOM     19  C   UNL     1      -1.379  14.067  20.567  0.00  0.00    +0.000 C 
BRANCH  18  20
ATOM     20  C   UNL     1       1.641  14.302  20.412  0.00  0.00    +0.000 C 
BRANCH  20  21
ATOM     21  O   UNL     1       2.224  13.607  21.503  0.00  0.00    +0.000 OA
ATOM     22  H   UNL     1       2.441  12.714  21.164  0.00  0.00    +0.000 HD
ENDBRANCH  20  21
ENDBRANCH  18  20
ENDBRANCH   4  18
BRANCH  17  23
ATOM     23  C   UNL     1       1.409  10.135  20.704  0.00  0.00    +0.000 C 
BRANCH  23  24
ATOM     24  N   UNL     1       1.419   8.735  20.058  0.00  0.00    +0.000 N 
ATOM     25  C   UNL     1       1.329   7.549  20.917  0.00  0.00    +0.000 C 
ATOM     26  C   UNL     1       1.969   8.591  18.768  0.00  0.00    +0.000 C 
ATOM     27  O   UNL     1       2.123   9.575  18.028  0.00  0.00    +0.000 OA
BRANCH  26  28
ATOM     28  C   UNL     1       2.310   7.178  18.241  0.00  0.00    +0.000 C 
BRANCH  28  29
ATOM     29  C   UNL     1       3.732   7.067  17.650  0.00  0.00    +0.000 C 
BRANCH  29  30
ATOM     30  C   UNL     1       4.122   5.646  17.313  0.00  0.00    +0.000 C 
ATOM     31  F   UNL     1       4.970   5.124  18.225  0.00  0.00    +0.000 F 
ATOM     32  F   UNL     1       3.022   4.851  17.299  0.00  0.00    +0.000 F 
ATOM     33  F   UNL     1       4.694   5.550  16.098  0.00  0.00    +0.000 F 
ENDBRANCH  29  30
ENDBRANCH  28  29
ENDBRANCH  26  28
ENDBRANCH  23  24
ENDBRANCH  17  23
TORSDOF 8
ENDMDL
MODEL 6
REMARK VINA RESULT:      -5.9      2.755      4.510
REMARK  Name = 
REMARK  11 active torsions:
REMARK  status: ('A' for Active; 'I' for Inactive)
REMARK    1  A    between atoms: C_1  and  C_2
REMARK    2  A    between atoms: N_4  and  C_5
REMARK    3  A    between atoms: C_5  and  C_6
REMARK    4  A    between atoms: C_5  and  C_7
REMARK    5  A    between atoms: C_7  and  O_8
REMARK    6  A    between atoms: C_21  and  C_22
REMARK    7  A    between atoms: C_22  and  N_23
REMARK    8  A    between atoms: N_23  and  C_24
REMARK    9  A    between atoms: C_25  and  C_27
REMARK   10  A    between atoms: C_27  and  C_28
REMARK   11  A    between atoms: C_28  and  C_29
REMARK                            x       y       z     vdW  Elec       q    Type
REMARK                         _______ _______ _______ _____ _____    ______ ____
ROOT
ATOM      1  C   UNL     1       0.176   9.757  23.166  0.00  0.00    +0.000 C 
ATOM      2  C   UNL     1      -0.771  10.482  22.161  0.00  0.00    +0.000 C 
ATOM      3  C   UNL     1      -1.978  11.325  23.204  0.00  0.00    +0.000 C 
ATOM      4  N   UNL     1      -2.634  12.751  22.903  0.00  0.00    +0.000 N 
ATOM      5  C   UNL     1      -3.223  13.802  23.678  0.00  0.00    +0.000 C 
ATOM      6  O   UNL     1      -3.951  13.550  24.645  0.00  0.00    +0.000 OA
ATOM      7  C   UNL     1      -2.925  15.504  23.239  0.00  0.00    +0.000 C 
ATOM      8  C   UNL     1      -1.931  16.316  22.138  0.00  0.00    +0.000 C 
ATOM      9  C   UNL     1      -0.452  16.802  22.465  0.00  0.00    +0.000 C 
ATOM     10  N   UNL     1       0.698  16.076  21.879  0.00  0.00    +0.000 N 
ATOM     11  C   UNL     1       0.718  15.090  20.915  0.00  0.00    +0.000 A 
ATOM     12  C   UNL     1       1.717  14.228  21.368  0.00  0.00    +0.000 A 
ATOM     13  N   UNL     1       2.471  14.903  22.294  0.00  0.00    +0.000 NA
ATOM     14  N   UNL     1       1.871  16.062  22.552  0.00  0.00    +0.000 NA
ATOM     15  C   UNL     1       1.761  12.714  21.294  0.00  0.00    +0.000 C 
ATOM     16  O   UNL     1       0.610  12.175  20.587  0.00  0.00    +0.000 OA
ATOM     17  C   UNL     1       0.363  10.794  20.883  0.00  0.00    +0.000 C 
ENDROOT
BRANCH   4  18
ATOM     18  C   UNL     1      -1.910  13.322  21.879  0.00  0.00    +0.000 C 
ATOM     19  C   UNL     1      -0.652  13.339  22.804  0.00  0.00    +0.000 C 
BRANCH  18  20
ATOM     20  C   UNL     1      -2.772  12.700  20.731  0.00  0.00    +0.000 C 
BRANCH  20  21
ATOM     21  O   UNL     1      -2.230  12.833  19.427  0.00  0.00    +0.000 OA
ATOM     22  H   UNL     1      -2.319  11.951  19.010  0.00  0.00    +0.000 HD
ENDBRANCH  20  21
ENDBRANCH  18  20
ENDBRANCH   4  18
BRANCH  17  23
ATOM     23  C   UNL     1       0.176   9.961  19.498  0.00  0.00    +0.000 C 
BRANCH  23  24
ATOM     24  N   UNL     1       1.430   9.254  18.945  0.00  0.00    +0.000 N 
ATOM     25  C   UNL     1       1.919   9.607  17.608  0.00  0.00    +0.000 C 
ATOM     26  C   UNL     1       1.794   8.005  19.487  0.00  0.00    +0.000 C 
ATOM     27  O   UNL     1       1.355   7.636  20.588  0.00  0.00    +0.000 OA
BRANCH  26  28
ATOM     28  C   UNL     1       2.816   7.120  18.737  0.00  0.00    +0.000 C 
BRANCH  28  29
ATOM     29  C   UNL     1       2.471   5.616  18.770  0.00  0.00    +0.000 C 
BRANCH  29  30
ATOM     30  C   UNL     1       3.440   4.806  19.600  0.00  0.00    +0.000 C 
ATOM     31  F   UNL     1       4.557   5.505  19.899  0.00  0.00    +0.000 F 
ATOM     32  F   UNL     1       2.867   4.458  20.779  0.00  0.00    +0.000 F 
ATOM     33  F   UNL     1       3.805   3.665  18.987  0.00  0.00    +0.000 F 
ENDBRANCH  29  30
ENDBRANCH  28  29
ENDBRANCH  26  28
ENDBRANCH  23  24
ENDBRANCH  17  23
TORSDOF 8
ENDMDL
MODEL 7
REMARK VINA RESULT:      -5.9      4.193      6.628
REMARK  Name = 
REMARK  11 active torsions:
REMARK  status: ('A' for Active; 'I' for Inactive)
REMARK    1  A    between atoms: C_1  and  C_2
REMARK    2  A    between atoms: N_4  and  C_5
REMARK    3  A    between atoms: C_5  and  C_6
REMARK    4  A    between atoms: C_5  and  C_7
REMARK    5  A    between atoms: C_7  and  O_8
REMARK    6  A    between atoms: C_21  and  C_22
REMARK    7  A    between atoms: C_22  and  N_23
REMARK    8  A    between atoms: N_23  and  C_24
REMARK    9  A    between atoms: C_25  and  C_27
REMARK   10  A    between atoms: C_27  and  C_28
REMARK   11  A    between atoms: C_28  and  C_29
REMARK                            x       y       z     vdW  Elec       q    Type
REMARK                         _______ _______ _______ _____ _____    ______ ____
ROOT
ATOM      1  C   UNL     1       0.038  10.612  22.087  0.00  0.00    +0.000 C 
ATOM      2  C   UNL     1      -1.139  11.521  21.619  0.00  0.00    +0.000 C 
ATOM      3  C   UNL     1      -2.218  11.642  23.060  0.00  0.00    +0.000 C 
ATOM      4  N   UNL     1      -3.055  12.934  23.492  0.00  0.00    +0.000 N 
ATOM      5  C   UNL     1      -3.597  13.453  24.712  0.00  0.00    +0.000 C 
ATOM      6  O   UNL     1      -4.112  12.705  25.551  0.00  0.00    +0.000 OA
ATOM      7  C   UNL     1      -3.550  15.206  25.029  0.00  0.00    +0.000 C 
ATOM      8  C   UNL     1      -2.852  16.555  24.285  0.00  0.00    +0.000 C 
ATOM      9  C   UNL     1      -1.394  17.098  24.614  0.00  0.00    +0.000 C 
ATOM     10  N   UNL     1      -0.301  16.884  23.638  0.00  0.00    +0.000 N 
ATOM     11  C   UNL     1      -0.356  16.406  22.345  0.00  0.00    +0.000 A 
ATOM     12  C   UNL     1       0.787  15.612  22.255  0.00  0.00    +0.000 A 
ATOM     13  N   UNL     1       1.625  15.955  23.286  0.00  0.00    +0.000 NA
ATOM     14  N   UNL     1       0.969  16.785  24.094  0.00  0.00    +0.000 NA
ATOM     15  C   UNL     1       0.966  14.297  21.522  0.00  0.00    +0.000 C 
ATOM     16  O   UNL     1      -0.233  13.919  20.792  0.00  0.00    +0.000 OA
ATOM     17  C   UNL     1      -0.287  12.520  20.482  0.00  0.00    +0.000 C 
ENDROOT
BRANCH   4  18
ATOM     18  C   UNL     1      -2.584  13.990  22.743  0.00  0.00    +0.000 C 
ATOM     19  C   UNL     1      -1.205  13.862  23.465  0.00  0.00    +0.000 C 
BRANCH  18  20
ATOM     20  C   UNL     1      -3.534  13.736  21.526  0.00  0.00    +0.000 C 
BRANCH  20  21
ATOM     21  O   UNL     1      -3.251  14.503  20.368  0.00  0.00    +0.000 OA
ATOM     22  H   UNL     1      -4.097  14.565  19.876  0.00  0.00    +0.000 HD
ENDBRANCH  20  21
ENDBRANCH  18  20
ENDBRANCH   4  18
BRANCH  17  23
ATOM     23  C   UNL     1      -0.634  12.321  18.905  0.00  0.00    +0.000 C 
BRANCH  23  24
ATOM     24  N   UNL     1      -1.321  10.997  18.512  0.00  0.00    +0.000 N 
ATOM     25  C   UNL     1      -0.531   9.948  17.857  0.00  0.00    +0.000 C 
ATOM     26  C   UNL     1      -2.721  10.986  18.351  0.00  0.00    +0.000 C 
ATOM     27  O   UNL     1      -3.425  11.886  18.834  0.00  0.00    +0.000 OA
BRANCH  26  28
ATOM     28  C   UNL     1      -3.393   9.794  17.632  0.00  0.00    +0.000 C 
BRANCH  28  29
ATOM     29  C   UNL     1      -4.103  10.186  16.318  0.00  0.00    +0.000 C 
BRANCH  29  30
ATOM     30  C   UNL     1      -3.160  10.272  15.140  0.00  0.00    +0.000 C 
ATOM     31  F   UNL     1      -2.330   9.208  15.078  0.00  0.00    +0.000 F 
ATOM     32  F   UNL     1      -3.863  10.290  13.980  0.00  0.00    +0.000 F 
ATOM     33  F   UNL     1      -2.413  11.391  15.168  0.00  0.00    +0.000 F 
ENDBRANCH  29  30
ENDBRANCH  28  29
ENDBRANCH  26  28
ENDBRANCH  23  24
ENDBRANCH  17  23
TORSDOF 8
ENDMDL
MODEL 8
REMARK VINA RESULT:      -5.8      2.746      4.448
REMARK  Name = 
REMARK  11 active torsions:
REMARK  status: ('A' for Active; 'I' for Inactive)
REMARK    1  A    between atoms: C_1  and  C_2
REMARK    2  A    between atoms: N_4  and  C_5
REMARK    3  A    between atoms: C_5  and  C_6
REMARK    4  A    between atoms: C_5  and  C_7
REMARK    5  A    between atoms: C_7  and  O_8
REMARK    6  A    between atoms: C_21  and  C_22
REMARK    7  A    between atoms: C_22  and  N_23
REMARK    8  A    between atoms: N_23  and  C_24
REMARK    9  A    between atoms: C_25  and  C_27
REMARK   10  A    between atoms: C_27  and  C_28
REMARK   11  A    between atoms: C_28  and  C_29
REMARK                            x       y       z     vdW  Elec       q    Type
REMARK                         _______ _______ _______ _____ _____    ______ ____
ROOT
ATOM      1  C   UNL     1       0.258   9.807  23.085  0.00  0.00    +0.000 C 
ATOM      2  C   UNL     1      -0.600  10.471  21.966  0.00  0.00    +0.000 C 
ATOM      3  C   UNL     1      -1.908  11.340  22.854  0.00  0.00    +0.000 C 
ATOM      4  N   UNL     1      -2.551  12.740  22.430  0.00  0.00    +0.000 N 
ATOM      5  C   UNL     1      -3.222  13.815  23.100  0.00  0.00    +0.000 C 
ATOM      6  O   UNL     1      -4.033  13.594  24.006  0.00  0.00    +0.000 OA
ATOM      7  C   UNL     1      -2.904  15.500  22.614  0.00  0.00    +0.000 C 
ATOM      8  C   UNL     1      -1.822  16.279  21.573  0.00  0.00    +0.000 C 
ATOM      9  C   UNL     1      -0.386  16.803  22.012  0.00  0.00    +0.000 C 
ATOM     10  N   UNL     1       0.822  16.070  21.567  0.00  0.00    +0.000 N 
ATOM     11  C   UNL     1       0.943  15.043  20.655  0.00  0.00    +0.000 A 
ATOM     12  C   UNL     1       1.906  14.218  21.236  0.00  0.00    +0.000 A 
ATOM     13  N   UNL     1       2.563  14.945  22.196  0.00  0.00    +0.000 NA
ATOM     14  N   UNL     1       1.928  16.105  22.345  0.00  0.00    +0.000 NA
ATOM     15  C   UNL     1       1.974  12.703  21.235  0.00  0.00    +0.000 C 
ATOM     16  O   UNL     1       0.900  12.116  20.451  0.00  0.00    +0.000 OA
ATOM     17  C   UNL     1       0.643  10.745  20.784  0.00  0.00    +0.000 C 
ENDROOT
BRANCH   4  18
ATOM     18  C   UNL     1      -1.742  13.277  21.452  0.00  0.00    +0.000 C 
ATOM     19  C   UNL     1      -0.571  13.341  22.483  0.00  0.00    +0.000 C 
BRANCH  18  20
ATOM     20  C   UNL     1      -2.496  12.604  20.258  0.00  0.00    +0.000 C 
BRANCH  20  21
ATOM     21  O   UNL     1      -1.818  12.648  19.013  0.00  0.00    +0.000 OA
ATOM     22  H   UNL     1      -2.265  11.987  18.443  0.00  0.00    +0.000 HD
ENDBRANCH  20  21
ENDBRANCH  18  20
ENDBRANCH   4  18
BRANCH  17  23
ATOM     23  C   UNL     1       0.595   9.849  19.427  0.00  0.00    +0.000 C 
BRANCH  23  24
ATOM     24  N   UNL     1       1.349   8.504  19.462  0.00  0.00    +0.000 N 
ATOM     25  C   UNL     1       1.490   7.796  20.739  0.00  0.00    +0.000 C 
ATOM     26  C   UNL     1       2.261   8.215  18.427  0.00  0.00    +0.000 C 
ATOM     27  O   UNL     1       2.220   8.832  17.351  0.00  0.00    +0.000 OA
BRANCH  26  28
ATOM     28  C   UNL     1       3.272   7.060  18.607  0.00  0.00    +0.000 C 
BRANCH  28  29
ATOM     29  C   UNL     1       3.196   5.994  17.493  0.00  0.00    +0.000 C 
BRANCH  29  30
ATOM     30  C   UNL     1       2.376   4.786  17.886  0.00  0.00    +0.000 C 
ATOM     31  F   UNL     1       1.131   4.830  17.364  0.00  0.00    +0.000 F 
ATOM     32  F   UNL     1       2.959   3.654  17.418  0.00  0.00    +0.000 F 
ATOM     33  F   UNL     1       2.273   4.655  19.221  0.00  0.00    +0.000 F 
ENDBRANCH  29  30
ENDBRANCH  28  29
ENDBRANCH  26  28
ENDBRANCH  23  24
ENDBRANCH  17  23
TORSDOF 8
ENDMDL
MODEL 9
REMARK VINA RESULT:      -5.8      2.471      4.119
REMARK  Name = 
REMARK  11 active torsions:
REMARK  status: ('A' for Active; 'I' for Inactive)
REMARK    1  A    between atoms: C_1  and  C_2
REMARK    2  A    between atoms: N_4  and  C_5
REMARK    3  A    between atoms: C_5  and  C_6
REMARK    4  A    between atoms: C_5  and  C_7
REMARK    5  A    between atoms: C_7  and  O_8
REMARK    6  A    between atoms: C_21  and  C_22
REMARK    7  A    between atoms: C_22  and  N_23
REMARK    8  A    between atoms: N_23  and  C_24
REMARK    9  A    between atoms: C_25  and  C_27
REMARK   10  A    between atoms: C_27  and  C_28
REMARK   11  A    between atoms: C_28  and  C_29
REMARK                            x       y       z     vdW  Elec       q    Type
REMARK                         _______ _______ _______ _____ _____    ______ ____
ROOT
ATOM      1  C   UNL     1       0.379  10.026  22.913  0.00  0.00    +0.000 C 
ATOM      2  C   UNL     1      -0.535  10.568  21.772  0.00  0.00    +0.000 C 
ATOM      3  C   UNL     1      -1.781  11.558  22.622  0.00  0.00    +0.000 C 
ATOM      4  N   UNL     1      -2.432  12.910  22.071  0.00  0.00    +0.000 N 
ATOM      5  C   UNL     1      -3.052  14.067  22.644  0.00  0.00    +0.000 C 
ATOM      6  O   UNL     1      -3.813  13.968  23.614  0.00  0.00    +0.000 OA
ATOM      7  C   UNL     1      -2.746  15.677  21.944  0.00  0.00    +0.000 C 
ATOM      8  C   UNL     1      -1.717  16.309  20.760  0.00  0.00    +0.000 C 
ATOM      9  C   UNL     1      -0.252  16.856  21.054  0.00  0.00    +0.000 C 
ATOM     10  N   UNL     1       0.921  16.056  20.633  0.00  0.00    +0.000 N 
ATOM     11  C   UNL     1       0.978  14.927  19.844  0.00  0.00    +0.000 A 
ATOM     12  C   UNL     1       1.964  14.160  20.465  0.00  0.00    +0.000 A 
ATOM     13  N   UNL     1       2.683  14.983  21.293  0.00  0.00    +0.000 NA
ATOM     14  N   UNL     1       2.069  16.163  21.339  0.00  0.00    +0.000 NA
ATOM     15  C   UNL     1       2.017  12.654  20.640  0.00  0.00    +0.000 C 
ATOM     16  O   UNL     1       0.894  11.997  19.992  0.00  0.00    +0.000 OA
ATOM     17  C   UNL     1       0.642  10.680  20.499  0.00  0.00    +0.000 C 
ENDROOT
BRANCH   4  18
ATOM     18  C   UNL     1      -1.675  13.313  20.993  0.00  0.00    +0.000 C 
ATOM     19  C   UNL     1      -0.461  13.529  21.951  0.00  0.00    +0.000 C 
BRANCH  18  20
ATOM     20  C   UNL     1      -2.470  12.475  19.938  0.00  0.00    +0.000 C 
BRANCH  20  21
ATOM     21  O   UNL     1      -3.709  13.032  19.532  0.00  0.00    +0.000 OA
ATOM     22  H   UNL     1      -4.393  12.579  20.066  0.00  0.00    +0.000 HD
ENDBRANCH  20  21
ENDBRANCH  18  20
ENDBRANCH   4  18
BRANCH  17  23
ATOM     23  C   UNL     1       0.508   9.631  19.263  0.00  0.00    +0.000 C 
BRANCH  23  24
ATOM     24  N   UNL     1       1.713   8.701  19.013  0.00  0.00    +0.000 N 
ATOM     25  C   UNL     1       2.348   8.693  17.691  0.00  0.00    +0.000 C 
ATOM     26  C   UNL     1       1.885   7.580  19.850  0.00  0.00    +0.000 C 
ATOM     27  O   UNL     1       1.317   7.514  20.952  0.00  0.00    +0.000 OA
BRANCH  26  28
ATOM     28  C   UNL     1       2.856   6.456  19.424  0.00  0.00    +0.000 C 
BRANCH  28  29
ATOM     29  C   UNL     1       2.144   5.162  18.974  0.00  0.00    +0.000 C 
BRANCH  29  30
ATOM     30  C   UNL     1       1.801   4.246  20.126  0.00  0.00    +0.000 C 
ATOM     31  F   UNL     1       2.493   4.558  21.244  0.00  0.00    +0.000 F 
ATOM     32  F   UNL     1       0.485   4.358  20.436  0.00  0.00    +0.000 F 
ATOM     33  F   UNL     1       2.029   2.953  19.833  0.00  0.00    +0.000 F 
ENDBRANCH  29  30
ENDBRANCH  28  29
ENDBRANCH  26  28
ENDBRANCH  23  24
ENDBRANCH  17  23
TORSDOF 8
ENDMDL
