MODEL 1
REMARK VINA RESULT:      -7.2      0.000      0.000
REMARK  Name = 
REMARK  7 active torsions:
REMARK  status: ('A' for Active; 'I' for Inactive)
REMARK    1  A    between atoms: C_1  and  C_2
REMARK    2  A    between atoms: C_14  and  C_15
REMARK    3  A    between atoms: N_17  and  C_18
REMARK    4  A    between atoms: C_18  and  C_19
REMARK    5  A    between atoms: C_19  and  C_20
REMARK    6  A    between atoms: C_20  and  C_21
REMARK    7  A    between atoms: C_20  and  C_22
REMARK                            x       y       z     vdW  Elec       q    Type
REMARK                         _______ _______ _______ _____ _____    ______ ____
ROOT
ATOM      1  C   UNL     1       2.772   3.330  16.715  0.00  0.00    +0.000 C 
ATOM      2  C   UNL     1       2.444   2.784  18.057  0.00  0.00    +0.000 A 
ATOM      3  N   UNL     1       2.148   1.484  18.149  0.00  0.00    +0.000 NA
ATOM      4  O   UNL     1       1.841   1.264  19.477  0.00  0.00    +0.000 OA
ATOM      5  C   UNL     1       1.953   2.429  20.178  0.00  0.00    +0.000 A 
ATOM      6  N   UNL     1       1.684   2.521  21.486  0.00  0.00    +0.000 NA
ATOM      7  C   UNL     1       1.835   3.773  21.919  0.00  0.00    +0.000 A 
ATOM      8  N   UNL     1       2.208   4.851  21.208  0.00  0.00    +0.000 NA
ATOM      9  C   UNL     1       2.510   4.717  19.888  0.00  0.00    +0.000 A 
ATOM     10  N   UNL     1       2.853   5.837  19.149  0.00  0.00    +0.000 N 
ATOM     11  C   UNL     1       2.526   7.165  19.665  0.00  0.00    +0.000 C 
ATOM     12  C   UNL     1       2.356   8.087  18.445  0.00  0.00    +0.000 C 
ATOM     13  C   UNL     1       3.525   8.009  17.443  0.00  0.00    +0.000 C 
ATOM     14  C   UNL     1       3.966   6.560  17.166  0.00  0.00    +0.000 C 
ATOM     15  C   UNL     1       4.159   5.815  18.487  0.00  0.00    +0.000 C 
ATOM     16  C   UNL     1       2.356   3.438  19.323  0.00  0.00    +0.000 A 
ENDROOT
BRANCH  14  17
ATOM     17  C   UNL     1       5.229   6.468  16.332  0.00  0.00    +0.000 C 
ATOM     18  O   UNL     1       6.196   7.203  16.509  0.00  0.00    +0.000 OA
ATOM     19  N   UNL     1       5.207   5.466  15.388  0.00  0.00    +0.000 N 
ATOM     20  H   UNL     1       4.440   4.806  15.382  0.00  0.00    +0.000 HD
BRANCH  19  21
ATOM     21  C   UNL     1       6.342   5.208  14.527  0.00  0.00    +0.000 C 
BRANCH  21  22
ATOM     22  C   UNL     1       6.429   3.746  14.085  0.00  0.00    +0.000 C 
BRANCH  22  23
ATOM     23  C   UNL     1       6.425   3.525  12.559  0.00  0.00    +0.000 C 
ATOM     24  C   UNL     1       5.011   3.489  11.977  0.00  0.00    +0.000 C 
ATOM     25  C   UNL     1       7.236   4.628  11.873  0.00  0.00    +0.000 C 
ENDBRANCH  22  23
ENDBRANCH  21  22
ENDBRANCH  19  21
ENDBRANCH  14  17
TORSDOF 4
ENDMDL
MODEL 2
REMARK VINA RESULT:      -7.1      2.896      4.224
REMARK  Name = 
REMARK  7 active torsions:
REMARK  status: ('A' for Active; 'I' for Inactive)
REMARK    1  A    between atoms: C_1  and  C_2
REMARK    2  A    between atoms: C_14  and  C_15
REMARK    3  A    between atoms: N_17  and  C_18
REMARK    4  A    between atoms: C_18  and  C_19
REMARK    5  A    between atoms: C_19  and  C_20
REMARK    6  A    between atoms: C_20  and  C_21
REMARK    7  A    between atoms: C_20  and  C_22
REMARK                            x       y       z     vdW  Elec       q    Type
REMARK                         _______ _______ _______ _____ _____    ______ ____
ROOT
ATOM      1  C   UNL     1       4.258   3.501  16.701  0.00  0.00    +0.000 C 
ATOM      2  C   UNL     1       3.599   2.854  17.863  0.00  0.00    +0.000 A 
ATOM      3  N   UNL     1       3.571   1.518  17.904  0.00  0.00    +0.000 NA
ATOM      4  O   UNL     1       2.867   1.195  19.047  0.00  0.00    +0.000 OA
ATOM      5  C   UNL     1       2.474   2.332  19.688  0.00  0.00    +0.000 A 
ATOM      6  N   UNL     1       1.745   2.322  20.811  0.00  0.00    +0.000 NA
ATOM      7  C   UNL     1       1.464   3.562  21.211  0.00  0.00    +0.000 A 
ATOM      8  N   UNL     1       1.829   4.718  20.629  0.00  0.00    +0.000 NA
ATOM      9  C   UNL     1       2.601   4.695  19.509  0.00  0.00    +0.000 A 
ATOM     10  N   UNL     1       2.938   5.886  18.887  0.00  0.00    +0.000 N 
ATOM     11  C   UNL     1       2.177   7.096  19.192  0.00  0.00    +0.000 C 
ATOM     12  C   UNL     1       2.261   8.000  17.950  0.00  0.00    +0.000 C 
ATOM     13  C   UNL     1       3.697   8.205  17.430  0.00  0.00    +0.000 C 
ATOM     14  C   UNL     1       4.503   6.894  17.394  0.00  0.00    +0.000 C 
ATOM     15  C   UNL     1       4.368   6.165  18.732  0.00  0.00    +0.000 C 
ATOM     16  C   UNL     1       2.931   3.432  18.985  0.00  0.00    +0.000 A 
ENDROOT
BRANCH  14  17
ATOM     17  C   UNL     1       5.969   7.102  17.066  0.00  0.00    +0.000 C 
ATOM     18  O   UNL     1       6.535   6.513  16.151  0.00  0.00    +0.000 OA
ATOM     19  N   UNL     1       6.595   8.037  17.862  0.00  0.00    +0.000 N 
ATOM     20  H   UNL     1       6.044   8.588  18.507  0.00  0.00    +0.000 HD
BRANCH  19  21
ATOM     21  C   UNL     1       7.985   8.391  17.667  0.00  0.00    +0.000 C 
BRANCH  21  22
ATOM     22  C   UNL     1       8.246   9.887  17.856  0.00  0.00    +0.000 C 
BRANCH  22  23
ATOM     23  C   UNL     1       9.573  10.233  18.560  0.00  0.00    +0.000 C 
ATOM     24  C   UNL     1      10.341  11.347  17.847  0.00  0.00    +0.000 C 
ATOM     25  C   UNL     1       9.300  10.643  20.010  0.00  0.00    +0.000 C 
ENDBRANCH  22  23
ENDBRANCH  21  22
ENDBRANCH  19  21
ENDBRANCH  14  17
TORSDOF 4
ENDMDL
MODEL 3
REMARK VINA RESULT:      -6.9      8.886     11.683
REMARK  Name = 
REMARK  7 active torsions:
REMARK  status: ('A' for Active; 'I' for Inactive)
REMARK    1  A    between atoms: C_1  and  C_2
REMARK    2  A    between atoms: C_14  and  C_15
REMARK    3  A    between atoms: N_17  and  C_18
REMARK    4  A    between atoms: C_18  and  C_19
REMARK    5  A    between atoms: C_19  and  C_20
REMARK    6  A    between atoms: C_20  and  C_21
REMARK    7  A    between atoms: C_20  and  C_22
REMARK                            x       y       z     vdW  Elec       q    Type
REMARK                         _______ _______ _______ _____ _____    ______ ____
ROOT
ATOM      1  C   UNL     1       7.061  13.961  17.621  0.00  0.00    +0.000 C 
ATOM      2  C   UNL     1       7.182  15.365  18.089  0.00  0.00    +0.000 A 
ATOM      3  N   UNL     1       6.064  16.092  18.184  0.00  0.00    +0.000 NA
ATOM      4  O   UNL     1       6.470  17.349  18.587  0.00  0.00    +0.000 OA
ATOM      5  C   UNL     1       7.826  17.375  18.732  0.00  0.00    +0.000 A 
ATOM      6  N   UNL     1       8.500  18.477  19.083  0.00  0.00    +0.000 NA
ATOM      7  C   UNL     1       9.813  18.245  19.117  0.00  0.00    +0.000 A 
ATOM      8  N   UNL     1      10.452  17.091  18.854  0.00  0.00    +0.000 NA
ATOM      9  C   UNL     1       9.735  15.980  18.534  0.00  0.00    +0.000 A 
ATOM     10  N   UNL     1      10.399  14.805  18.222  0.00  0.00    +0.000 N 
ATOM     11  C   UNL     1      11.816  14.854  17.867  0.00  0.00    +0.000 C 
ATOM     12  C   UNL     1      12.085  13.655  16.941  0.00  0.00    +0.000 C 
ATOM     13  C   UNL     1      11.562  12.316  17.497  0.00  0.00    +0.000 C 
ATOM     14  C   UNL     1      10.146  12.436  18.088  0.00  0.00    +0.000 C 
ATOM     15  C   UNL     1      10.081  13.632  19.039  0.00  0.00    +0.000 C 
ATOM     16  C   UNL     1       8.338  16.124  18.444  0.00  0.00    +0.000 A 
ENDROOT
BRANCH  14  17
ATOM     17  C   UNL     1       9.689  11.181  18.805  0.00  0.00    +0.000 C 
ATOM     18  O   UNL     1       9.820  11.022  20.015  0.00  0.00    +0.000 OA
ATOM     19  N   UNL     1       9.081  10.256  17.985  0.00  0.00    +0.000 N 
ATOM     20  H   UNL     1       8.879  10.501  17.025  0.00  0.00    +0.000 HD
BRANCH  19  21
ATOM     21  C   UNL     1       8.549   9.014  18.505  0.00  0.00    +0.000 C 
BRANCH  21  22
ATOM     22  C   UNL     1       7.542   8.359  17.556  0.00  0.00    +0.000 C 
BRANCH  22  23
ATOM     23  C   UNL     1       7.544   6.818  17.567  0.00  0.00    +0.000 C 
ATOM     24  C   UNL     1       7.891   6.243  18.941  0.00  0.00    +0.000 C 
ATOM     25  C   UNL     1       6.177   6.294  17.119  0.00  0.00    +0.000 C 
ENDBRANCH  22  23
ENDBRANCH  21  22
ENDBRANCH  19  21
ENDBRANCH  14  17
TORSDOF 4
ENDMDL
MODEL 4
REMARK VINA RESULT:      -6.9      1.181      1.571
REMARK  Name = 
REMARK  7 active torsions:
REMARK  status: ('A' for Active; 'I' for Inactive)
REMARK    1  A    between atoms: C_1  and  C_2
REMARK    2  A    between atoms: C_14  and  C_15
REMARK    3  A    between atoms: N_17  and  C_18
REMARK    4  A    between atoms: C_18  and  C_19
REMARK    5  A    between atoms: C_19  and  C_20
REMARK    6  A    between atoms: C_20  and  C_21
REMARK    7  A    between atoms: C_20  and  C_22
REMARK                            x       y       z     vdW  Elec       q    Type
REMARK                         _______ _______ _______ _____ _____    ______ ____
ROOT
ATOM      1  C   UNL     1       2.910   2.593  16.626  0.00  0.00    +0.000 C 
ATOM      2  C   UNL     1       2.427   2.529  18.029  0.00  0.00    +0.000 A 
ATOM      3  N   UNL     1       1.788   1.422  18.421  0.00  0.00    +0.000 NA
ATOM      4  O   UNL     1       1.414   1.652  19.730  0.00  0.00    +0.000 OA
ATOM      5  C   UNL     1       1.827   2.891  20.121  0.00  0.00    +0.000 A 
ATOM      6  N   UNL     1       1.574   3.395  21.335  0.00  0.00    +0.000 NA
ATOM      7  C   UNL     1       2.052   4.635  21.448  0.00  0.00    +0.000 A 
ATOM      8  N   UNL     1       2.714   5.350  20.522  0.00  0.00    +0.000 NA
ATOM      9  C   UNL     1       2.988   4.796  19.310  0.00  0.00    +0.000 A 
ATOM     10  N   UNL     1       3.632   5.551  18.343  0.00  0.00    +0.000 N 
ATOM     11  C   UNL     1       3.670   7.005  18.475  0.00  0.00    +0.000 C 
ATOM     12  C   UNL     1       3.774   7.580  17.052  0.00  0.00    +0.000 C 
ATOM     13  C   UNL     1       4.892   6.938  16.207  0.00  0.00    +0.000 C 
ATOM     14  C   UNL     1       4.928   5.405  16.345  0.00  0.00    +0.000 C 
ATOM     15  C   UNL     1       4.893   5.016  17.823  0.00  0.00    +0.000 C 
ATOM     16  C   UNL     1       2.501   3.496  19.076  0.00  0.00    +0.000 A 
ENDROOT
BRANCH  14  17
ATOM     17  C   UNL     1       6.131   4.772  15.673  0.00  0.00    +0.000 C 
ATOM     18  O   UNL     1       7.062   4.282  16.304  0.00  0.00    +0.000 OA
ATOM     19  N   UNL     1       6.066   4.765  14.297  0.00  0.00    +0.000 N 
ATOM     20  H   UNL     1       5.213   5.059  13.839  0.00  0.00    +0.000 HD
BRANCH  19  21
ATOM     21  C   UNL     1       7.110   4.168  13.491  0.00  0.00    +0.000 C 
BRANCH  21  22
ATOM     22  C   UNL     1       6.635   3.806  12.082  0.00  0.00    +0.000 C 
BRANCH  22  23
ATOM     23  C   UNL     1       5.528   2.734  12.023  0.00  0.00    +0.000 C 
ATOM     24  C   UNL     1       4.242   3.256  11.381  0.00  0.00    +0.000 C 
ATOM     25  C   UNL     1       6.031   1.512  11.250  0.00  0.00    +0.000 C 
ENDBRANCH  22  23
ENDBRANCH  21  22
ENDBRANCH  19  21
ENDBRANCH  14  17
TORSDOF 4
ENDMDL
MODEL 5
REMARK VINA RESULT:      -6.8      2.220      6.243
REMARK  Name = 
REMARK  7 active torsions:
REMARK  status: ('A' for Active; 'I' for Inactive)
REMARK    1  A    between atoms: C_1  and  C_2
REMARK    2  A    between atoms: C_14  and  C_15
REMARK    3  A    between atoms: N_17  and  C_18
REMARK    4  A    between atoms: C_18  and  C_19
REMARK    5  A    between atoms: C_19  and  C_20
REMARK    6  A    between atoms: C_20  and  C_21
REMARK    7  A    between atoms: C_20  and  C_22
REMARK                            x       y       z     vdW  Elec       q    Type
REMARK                         _______ _______ _______ _____ _____    ______ ____
ROOT
ATOM      1  C   UNL     1       6.200   5.398  19.763  0.00  0.00    +0.000 C 
ATOM      2  C   UNL     1       6.739   5.075  18.418  0.00  0.00    +0.000 A 
ATOM      3  N   UNL     1       7.888   4.394  18.350  0.00  0.00    +0.000 NA
ATOM      4  O   UNL     1       8.174   4.279  17.004  0.00  0.00    +0.000 OA
ATOM      5  C   UNL     1       7.201   4.889  16.268  0.00  0.00    +0.000 A 
ATOM      6  N   UNL     1       7.234   4.961  14.932  0.00  0.00    +0.000 NA
ATOM      7  C   UNL     1       6.187   5.641  14.463  0.00  0.00    +0.000 A 
ATOM      8  N   UNL     1       5.188   6.202  15.166  0.00  0.00    +0.000 NA
ATOM      9  C   UNL     1       5.164   6.080  16.520  0.00  0.00    +0.000 A 
ATOM     10  N   UNL     1       4.156   6.697  17.244  0.00  0.00    +0.000 N 
ATOM     11  C   UNL     1       3.372   7.760  16.620  0.00  0.00    +0.000 C 
ATOM     12  C   UNL     1       2.886   8.680  17.754  0.00  0.00    +0.000 C 
ATOM     13  C   UNL     1       2.215   7.925  18.918  0.00  0.00    +0.000 C 
ATOM     14  C   UNL     1       2.996   6.663  19.329  0.00  0.00    +0.000 C 
ATOM     15  C   UNL     1       3.329   5.832  18.089  0.00  0.00    +0.000 C 
ATOM     16  C   UNL     1       6.241   5.403  17.121  0.00  0.00    +0.000 A 
ENDROOT
BRANCH  14  17
ATOM     17  C   UNL     1       2.260   5.807  20.341  0.00  0.00    +0.000 C 
ATOM     18  O   UNL     1       1.159   6.110  20.791  0.00  0.00    +0.000 OA
ATOM     19  N   UNL     1       2.919   4.646  20.679  0.00  0.00    +0.000 N 
ATOM     20  H   UNL     1       3.755   4.384  20.173  0.00  0.00    +0.000 HD
BRANCH  19  21
ATOM     21  C   UNL     1       2.347   3.690  21.603  0.00  0.00    +0.000 C 
BRANCH  21  22
ATOM     22  C   UNL     1       1.809   2.439  20.904  0.00  0.00    +0.000 C 
BRANCH  22  23
ATOM     23  C   UNL     1       1.889   2.469  19.365  0.00  0.00    +0.000 C 
ATOM     24  C   UNL     1       2.960   1.523  18.817  0.00  0.00    +0.000 C 
ATOM     25  C   UNL     1       0.527   2.106  18.767  0.00  0.00    +0.000 C 
ENDBRANCH  22  23
ENDBRANCH  21  22
ENDBRANCH  19  21
ENDBRANCH  14  17
TORSDOF 4
ENDMDL
MODEL 6
REMARK VINA RESULT:      -6.7      2.796      6.680
REMARK  Name = 
REMARK  7 active torsions:
REMARK  status: ('A' for Active; 'I' for Inactive)
REMARK    1  A    between atoms: C_1  and  C_2
REMARK    2  A    between atoms: C_14  and  C_15
REMARK    3  A    between atoms: N_17  and  C_18
REMARK    4  A    between atoms: C_18  and  C_19
REMARK    5  A    between atoms: C_19  and  C_20
REMARK    6  A    between atoms: C_20  and  C_21
REMARK    7  A    between atoms: C_20  and  C_22
REMARK                            x       y       z     vdW  Elec       q    Type
REMARK                         _______ _______ _______ _____ _____    ______ ____
ROOT
ATOM      1  C   UNL     1       2.002   5.799  21.064  0.00  0.00    +0.000 C 
ATOM      2  C   UNL     1       1.969   4.368  20.666  0.00  0.00    +0.000 A 
ATOM      3  N   UNL     1       1.450   3.490  21.531  0.00  0.00    +0.000 NA
ATOM      4  O   UNL     1       1.590   2.253  20.933  0.00  0.00    +0.000 OA
ATOM      5  C   UNL     1       2.190   2.390  19.716  0.00  0.00    +0.000 A 
ATOM      6  N   UNL     1       2.480   1.349  18.926  0.00  0.00    +0.000 NA
ATOM      7  C   UNL     1       3.096   1.750  17.813  0.00  0.00    +0.000 A 
ATOM      8  N   UNL     1       3.413   3.007  17.455  0.00  0.00    +0.000 NA
ATOM      9  C   UNL     1       3.071   4.046  18.263  0.00  0.00    +0.000 A 
ATOM     10  N   UNL     1       3.437   5.334  17.911  0.00  0.00    +0.000 N 
ATOM     11  C   UNL     1       4.486   5.536  16.914  0.00  0.00    +0.000 C 
ATOM     12  C   UNL     1       5.145   6.890  17.227  0.00  0.00    +0.000 C 
ATOM     13  C   UNL     1       4.137   8.042  17.404  0.00  0.00    +0.000 C 
ATOM     14  C   UNL     1       2.928   7.638  18.268  0.00  0.00    +0.000 C 
ATOM     15  C   UNL     1       2.355   6.311  17.771  0.00  0.00    +0.000 C 
ATOM     16  C   UNL     1       2.440   3.729  19.480  0.00  0.00    +0.000 A 
ENDROOT
BRANCH  14  17
ATOM     17  C   UNL     1       1.838   8.692  18.301  0.00  0.00    +0.000 C 
ATOM     18  O   UNL     1       1.368   9.193  17.284  0.00  0.00    +0.000 OA
ATOM     19  N   UNL     1       1.399   9.006  19.568  0.00  0.00    +0.000 N 
ATOM     20  H   UNL     1       1.726   8.462  20.356  0.00  0.00    +0.000 HD
BRANCH  19  21
ATOM     21  C   UNL     1       0.337   9.964  19.788  0.00  0.00    +0.000 C 
BRANCH  21  22
ATOM     22  C   UNL     1       0.488  10.722  21.109  0.00  0.00    +0.000 C 
BRANCH  22  23
ATOM     23  C   UNL     1      -0.563  10.375  22.183  0.00  0.00    +0.000 C 
ATOM     24  C   UNL     1       0.001   9.474  23.283  0.00  0.00    +0.000 C 
ATOM     25  C   UNL     1      -1.115  11.662  22.803  0.00  0.00    +0.000 C 
ENDBRANCH  22  23
ENDBRANCH  21  22
ENDBRANCH  19  21
ENDBRANCH  14  17
TORSDOF 4
ENDMDL
MODEL 7
REMARK VINA RESULT:      -6.7      2.048      2.736
REMARK  Name = 
REMARK  7 active torsions:
REMARK  status: ('A' for Active; 'I' for Inactive)
REMARK    1  A    between atoms: C_1  and  C_2
REMARK    2  A    between atoms: C_14  and  C_15
REMARK    3  A    between atoms: N_17  and  C_18
REMARK    4  A    between atoms: C_18  and  C_19
REMARK    5  A    between atoms: C_19  and  C_20
REMARK    6  A    between atoms: C_20  and  C_21
REMARK    7  A    between atoms: C_20  and  C_22
REMARK                            x       y       z     vdW  Elec       q    Type
REMARK                         _______ _______ _______ _____ _____    ______ ____
ROOT
ATOM      1  C   UNL     1       2.428   5.892  17.936  0.00  0.00    +0.000 C 
ATOM      2  C   UNL     1       2.250   4.754  18.874  0.00  0.00    +0.000 A 
ATOM      3  N   UNL     1       1.009   4.462  19.277  0.00  0.00    +0.000 NA
ATOM      4  O   UNL     1       1.143   3.414  20.165  0.00  0.00    +0.000 OA
ATOM      5  C   UNL     1       2.458   3.079  20.295  0.00  0.00    +0.000 A 
ATOM      6  N   UNL     1       2.887   2.115  21.118  0.00  0.00    +0.000 NA
ATOM      7  C   UNL     1       4.217   2.014  21.086  0.00  0.00    +0.000 A 
ATOM      8  N   UNL     1       5.080   2.738  20.352  0.00  0.00    +0.000 NA
ATOM      9  C   UNL     1       4.609   3.686  19.498  0.00  0.00    +0.000 A 
ATOM     10  N   UNL     1       5.504   4.459  18.776  0.00  0.00    +0.000 N 
ATOM     11  C   UNL     1       6.901   4.526  19.200  0.00  0.00    +0.000 C 
ATOM     12  C   UNL     1       7.444   5.887  18.732  0.00  0.00    +0.000 C 
ATOM     13  C   UNL     1       7.163   6.187  17.246  0.00  0.00    +0.000 C 
ATOM     14  C   UNL     1       5.721   5.833  16.837  0.00  0.00    +0.000 C 
ATOM     15  C   UNL     1       5.377   4.423  17.317  0.00  0.00    +0.000 C 
ATOM     16  C   UNL     1       3.218   3.893  19.476  0.00  0.00    +0.000 A 
ENDROOT
BRANCH  14  17
ATOM     17  C   UNL     1       5.479   5.944  15.344  0.00  0.00    +0.000 C 
ATOM     18  O   UNL     1       5.109   6.983  14.806  0.00  0.00    +0.000 OA
ATOM     19  N   UNL     1       5.748   4.787  14.646  0.00  0.00    +0.000 N 
ATOM     20  H   UNL     1       6.181   4.008  15.124  0.00  0.00    +0.000 HD
BRANCH  19  21
ATOM     21  C   UNL     1       5.609   4.720  13.206  0.00  0.00    +0.000 C 
BRANCH  21  22
ATOM     22  C   UNL     1       6.332   3.517  12.598  0.00  0.00    +0.000 C 
BRANCH  22  23
ATOM     23  C   UNL     1       5.412   2.460  11.957  0.00  0.00    +0.000 C 
ATOM     24  C   UNL     1       4.259   3.086  11.171  0.00  0.00    +0.000 C 
ATOM     25  C   UNL     1       6.229   1.550  11.034  0.00  0.00    +0.000 C 
ENDBRANCH  22  23
ENDBRANCH  21  22
ENDBRANCH  19  21
ENDBRANCH  14  17
TORSDOF 4
ENDMDL
MODEL 8
REMARK VINA RESULT:      -6.6      3.351      5.142
REMARK  Name = 
REMARK  7 active torsions:
REMARK  status: ('A' for Active; 'I' for Inactive)
REMARK    1  A    between atoms: C_1  and  C_2
REMARK    2  A    between atoms: C_14  and  C_15
REMARK    3  A    between atoms: N_17  and  C_18
REMARK    4  A    between atoms: C_18  and  C_19
REMARK    5  A    between atoms: C_19  and  C_20
REMARK    6  A    between atoms: C_20  and  C_21
REMARK    7  A    between atoms: C_20  and  C_22
REMARK                            x       y       z     vdW  Elec       q    Type
REMARK                         _______ _______ _______ _____ _____    ______ ____
ROOT
ATOM      1  C   UNL     1       5.332   2.900  20.554  0.00  0.00    +0.000 C 
ATOM      2  C   UNL     1       3.854   2.864  20.413  0.00  0.00    +0.000 A 
ATOM      3  N   UNL     1       3.138   2.383  21.435  0.00  0.00    +0.000 NA
ATOM      4  O   UNL     1       1.822   2.421  21.018  0.00  0.00    +0.000 OA
ATOM      5  C   UNL     1       1.750   2.922  19.752  0.00  0.00    +0.000 A 
ATOM      6  N   UNL     1       0.598   3.044  19.081  0.00  0.00    +0.000 NA
ATOM      7  C   UNL     1       0.806   3.523  17.854  0.00  0.00    +0.000 A 
ATOM      8  N   UNL     1       1.979   3.868  17.293  0.00  0.00    +0.000 NA
ATOM      9  C   UNL     1       3.128   3.767  18.015  0.00  0.00    +0.000 A 
ATOM     10  N   UNL     1       4.338   4.082  17.419  0.00  0.00    +0.000 N 
ATOM     11  C   UNL     1       4.426   4.145  15.961  0.00  0.00    +0.000 C 
ATOM     12  C   UNL     1       5.881   3.809  15.588  0.00  0.00    +0.000 C 
ATOM     13  C   UNL     1       6.925   4.624  16.375  0.00  0.00    +0.000 C 
ATOM     14  C   UNL     1       6.594   4.713  17.876  0.00  0.00    +0.000 C 
ATOM     15  C   UNL     1       5.134   5.131  18.061  0.00  0.00    +0.000 C 
ATOM     16  C   UNL     1       3.022   3.243  19.316  0.00  0.00    +0.000 A 
ENDROOT
BRANCH  14  17
ATOM     17  C   UNL     1       7.501   5.662  18.634  0.00  0.00    +0.000 C 
ATOM     18  O   UNL     1       8.146   5.320  19.620  0.00  0.00    +0.000 OA
ATOM     19  N   UNL     1       7.565   6.928  18.094  0.00  0.00    +0.000 N 
ATOM     20  H   UNL     1       7.120   7.112  17.204  0.00  0.00    +0.000 HD
BRANCH  19  21
ATOM     21  C   UNL     1       8.411   7.955  18.665  0.00  0.00    +0.000 C 
BRANCH  21  22
ATOM     22  C   UNL     1       8.305   9.289  17.922  0.00  0.00    +0.000 C 
BRANCH  22  23
ATOM     23  C   UNL     1       9.265  10.388  18.417  0.00  0.00    +0.000 C 
ATOM     24  C   UNL     1       8.894  11.773  17.882  0.00  0.00    +0.000 C 
ATOM     25  C   UNL     1       9.280  10.414  19.948  0.00  0.00    +0.000 C 
ENDBRANCH  22  23
ENDBRANCH  21  22
ENDBRANCH  19  21
ENDBRANCH  14  17
TORSDOF 4
ENDMDL
MODEL 9
REMARK VINA RESULT:      -6.3      5.888      8.497
REMARK  Name = 
REMARK  7 active torsions:
REMARK  status: ('A' for Active; 'I' for Inactive)
REMARK    1  A    between atoms: C_1  and  C_2
REMARK    2  A    between atoms: C_14  and  C_15
REMARK    3  A    between atoms: N_17  and  C_18
REMARK    4  A    between atoms: C_18  and  C_19
REMARK    5  A    between atoms: C_19  and  C_20
REMARK    6  A    between atoms: C_20  and  C_21
REMARK    7  A    between atoms: C_20  and  C_22
REMARK                            x       y       z     vdW  Elec       q    Type
REMARK                         _______ _______ _______ _____ _____    ______ ____
ROOT
ATOM      1  C   UNL     1      -1.901  10.037  16.838  0.00  0.00    +0.000 C 
ATOM      2  C   UNL     1      -2.903  10.688  17.719  0.00  0.00    +0.000 A 
ATOM      3  N   UNL     1      -4.194  10.408  17.515  0.00  0.00    +0.000 NA
ATOM      4  O   UNL     1      -4.891  11.176  18.427  0.00  0.00    +0.000 OA
ATOM      5  C   UNL     1      -4.021  11.913  19.175  0.00  0.00    +0.000 A 
ATOM      6  N   UNL     1      -4.419  12.774  20.119  0.00  0.00    +0.000 NA
ATOM      7  C   UNL     1      -3.377  13.393  20.674  0.00  0.00    +0.000 A 
ATOM      8  N   UNL     1      -2.073  13.228  20.388  0.00  0.00    +0.000 NA
ATOM      9  C   UNL     1      -1.699  12.318  19.448  0.00  0.00    +0.000 A 
ATOM     10  N   UNL     1      -0.359  12.182  19.126  0.00  0.00    +0.000 N 
ATOM     11  C   UNL     1       0.579  13.241  19.492  0.00  0.00    +0.000 C 
ATOM     12  C   UNL     1       1.729  13.192  18.470  0.00  0.00    +0.000 C 
ATOM     13  C   UNL     1       2.325  11.784  18.277  0.00  0.00    +0.000 C 
ATOM     14  C   UNL     1       1.241  10.697  18.161  0.00  0.00    +0.000 C 
ATOM     15  C   UNL     1       0.228  10.850  19.296  0.00  0.00    +0.000 C 
ATOM     16  C   UNL     1      -2.727  11.628  18.780  0.00  0.00    +0.000 A 
ENDROOT
BRANCH  14  17
ATOM     17  C   UNL     1       1.804   9.289  18.159  0.00  0.00    +0.000 C 
ATOM     18  O   UNL     1       2.266   8.759  17.153  0.00  0.00    +0.000 OA
ATOM     19  N   UNL     1       1.783   8.675  19.391  0.00  0.00    +0.000 N 
ATOM     20  H   UNL     1       1.517   9.209  20.208  0.00  0.00    +0.000 HD
BRANCH  19  21
ATOM     21  C   UNL     1       2.314   7.342  19.585  0.00  0.00    +0.000 C 
BRANCH  21  22
ATOM     22  C   UNL     1       1.397   6.457  20.431  0.00  0.00    +0.000 C 
BRANCH  22  23
ATOM     23  C   UNL     1       1.959   5.059  20.757  0.00  0.00    +0.000 C 
ATOM     24  C   UNL     1       0.943   3.945  20.497  0.00  0.00    +0.000 C 
ATOM     25  C   UNL     1       3.224   4.804  19.934  0.00  0.00    +0.000 C 
ENDBRANCH  22  23
ENDBRANCH  21  22
ENDBRANCH  19  21
ENDBRANCH  14  17
TORSDOF 4
ENDMDL
