MODEL 1
REMARK VINA RESULT:      -6.8      0.000      0.000
REMARK  Name = 
REMARK  3 active torsions:
REMARK  status: ('A' for Active; 'I' for Inactive)
REMARK    1  A    between atoms: C_1  and  C_2
REMARK    2  A    between atoms: C_5  and  S_7
REMARK    3  A    between atoms: C_9  and  C_10
REMARK                            x       y       z     vdW  Elec       q    Type
REMARK                         _______ _______ _______ _____ _____    ______ ____
ROOT
ATOM      1  C   UNL     1       3.318   6.379  18.198  0.00  0.00    +0.000 C 
ATOM      2  C   UNL     1       3.070   4.980  17.644  0.00  0.00    +0.000 C 
ATOM      3  C   UNL     1       2.417   4.084  18.694  0.00  0.00    +0.000 C 
ATOM      4  N   UNL     1       3.545   3.399  19.300  0.00  0.00    +0.000 N 
ATOM      5  C   UNL     1       3.553   2.714  20.499  0.00  0.00    +0.000 C 
ATOM      6  N   UNL     1       4.607   2.080  20.906  0.00  0.00    +0.000 NA
ATOM      7  N   UNL     1       4.629   3.390  18.436  0.00  0.00    +0.000 NA
ATOM      8  C   UNL     1       4.368   4.225  17.476  0.00  0.00    +0.000 C 
ATOM      9  H   UNL     1       5.285   2.242  20.148  0.00  0.00    +0.000 HD
ENDROOT
BRANCH   8  10
ATOM     10  C   UNL     1       5.281   4.453  16.324  0.00  0.00    +0.000 A 
ATOM     11  C   UNL     1       6.414   5.258  16.498  0.00  0.00    +0.000 A 
ATOM     12  C   UNL     1       7.281   5.499  15.428  0.00  0.00    +0.000 A 
ATOM     13  C   UNL     1       7.025   4.941  14.173  0.00  0.00    +0.000 A 
ATOM     14 CL   UNL     1       8.127   5.285  12.890  0.00  0.00    +0.000 Cl
ATOM     15  C   UNL     1       5.898   4.131  13.997  0.00  0.00    +0.000 A 
ATOM     16 CL   UNL     1       5.505   3.406  12.477  0.00  0.00    +0.000 Cl
ATOM     17  C   UNL     1       5.034   3.883  15.072  0.00  0.00    +0.000 A 
ENDBRANCH   8  10
BRANCH   5  18
ATOM     18  S   UNL     1       2.170   2.660  21.570  0.00  0.00    +0.000 S 
ATOM     19  H   UNL     1       1.199   2.537  20.666  0.00  0.00    +0.000 HD
ENDBRANCH   5  18
TORSDOF 2
ENDMDL
MODEL 2
REMARK VINA RESULT:      -6.5      1.202      1.432
REMARK  Name = 
REMARK  3 active torsions:
REMARK  status: ('A' for Active; 'I' for Inactive)
REMARK    1  A    between atoms: C_1  and  C_2
REMARK    2  A    between atoms: C_5  and  S_7
REMARK    3  A    between atoms: C_9  and  C_10
REMARK                            x       y       z     vdW  Elec       q    Type
REMARK                         _______ _______ _______ _____ _____    ______ ____
ROOT
ATOM      1  C   UNL     1       5.960   5.001  19.341  0.00  0.00    +0.000 C 
ATOM      2  C   UNL     1       4.730   5.322  18.498  0.00  0.00    +0.000 C 
ATOM      3  C   UNL     1       3.448   4.940  19.234  0.00  0.00    +0.000 C 
ATOM      4  N   UNL     1       3.160   3.605  18.737  0.00  0.00    +0.000 N 
ATOM      5  C   UNL     1       2.300   2.681  19.293  0.00  0.00    +0.000 C 
ATOM      6  N   UNL     1       2.071   1.543  18.719  0.00  0.00    +0.000 NA
ATOM      7  N   UNL     1       3.770   3.404  17.509  0.00  0.00    +0.000 NA
ATOM      8  C   UNL     1       4.612   4.376  17.327  0.00  0.00    +0.000 C 
ATOM      9  H   UNL     1       2.647   1.590  17.866  0.00  0.00    +0.000 HD
ENDROOT
BRANCH   8  10
ATOM     10  C   UNL     1       5.424   4.529  16.091  0.00  0.00    +0.000 A 
ATOM     11  C   UNL     1       6.576   5.326  16.123  0.00  0.00    +0.000 A 
ATOM     12  C   UNL     1       7.350   5.497  14.972  0.00  0.00    +0.000 A 
ATOM     13  C   UNL     1       6.980   4.879  13.775  0.00  0.00    +0.000 A 
ATOM     14 CL   UNL     1       7.970   5.139  12.386  0.00  0.00    +0.000 Cl
ATOM     15  C   UNL     1       5.834   4.077  13.740  0.00  0.00    +0.000 A 
ATOM     16 CL   UNL     1       5.304   3.279  12.300  0.00  0.00    +0.000 Cl
ATOM     17  C   UNL     1       5.064   3.898  14.897  0.00  0.00    +0.000 A 
ENDBRANCH   8  10
BRANCH   5  18
ATOM     18  S   UNL     1       1.471   2.948  20.812  0.00  0.00    +0.000 S 
ATOM     19  H   UNL     1       0.605   3.883  20.424  0.00  0.00    +0.000 HD
ENDBRANCH   5  18
TORSDOF 2
ENDMDL
MODEL 3
REMARK VINA RESULT:      -6.4      5.350      7.123
REMARK  Name = 
REMARK  3 active torsions:
REMARK  status: ('A' for Active; 'I' for Inactive)
REMARK    1  A    between atoms: C_1  and  C_2
REMARK    2  A    between atoms: C_5  and  S_7
REMARK    3  A    between atoms: C_9  and  C_10
REMARK                            x       y       z     vdW  Elec       q    Type
REMARK                         _______ _______ _______ _____ _____    ______ ____
ROOT
ATOM      1  C   UNL     1       3.181   4.843  19.588  0.00  0.00    +0.000 C 
ATOM      2  C   UNL     1       2.889   5.392  18.195  0.00  0.00    +0.000 C 
ATOM      3  C   UNL     1       3.929   4.907  17.188  0.00  0.00    +0.000 C 
ATOM      4  N   UNL     1       4.900   5.987  17.163  0.00  0.00    +0.000 N 
ATOM      5  C   UNL     1       6.185   5.935  16.662  0.00  0.00    +0.000 C 
ATOM      6  N   UNL     1       6.940   6.988  16.631  0.00  0.00    +0.000 NA
ATOM      7  N   UNL     1       4.321   7.171  17.592  0.00  0.00    +0.000 NA
ATOM      8  C   UNL     1       3.174   6.873  18.125  0.00  0.00    +0.000 C 
ATOM      9  H   UNL     1       6.336   7.721  17.029  0.00  0.00    +0.000 HD
ENDROOT
BRANCH   8  10
ATOM     10  C   UNL     1       2.234   7.894  18.658  0.00  0.00    +0.000 A 
ATOM     11  C   UNL     1       1.676   8.834  17.782  0.00  0.00    +0.000 A 
ATOM     12  C   UNL     1       0.799   9.813  18.261  0.00  0.00    +0.000 A 
ATOM     13  C   UNL     1       0.474   9.866  19.618  0.00  0.00    +0.000 A 
ATOM     14 CL   UNL     1      -0.604  11.105  20.148  0.00  0.00    +0.000 Cl
ATOM     15  C   UNL     1       1.025   8.925  20.495  0.00  0.00    +0.000 A 
ATOM     16 CL   UNL     1       0.678   8.923  22.190  0.00  0.00    +0.000 Cl
ATOM     17  C   UNL     1       1.895   7.939  20.013  0.00  0.00    +0.000 A 
ENDBRANCH   8  10
BRANCH   5  18
ATOM     18  S   UNL     1       6.909   4.461  16.055  0.00  0.00    +0.000 S 
ATOM     19  H   UNL     1       6.927   3.749  17.181  0.00  0.00    +0.000 HD
ENDBRANCH   5  18
TORSDOF 2
ENDMDL
MODEL 4
REMARK VINA RESULT:      -6.3      4.666      6.428
REMARK  Name = 
REMARK  3 active torsions:
REMARK  status: ('A' for Active; 'I' for Inactive)
REMARK    1  A    between atoms: C_1  and  C_2
REMARK    2  A    between atoms: C_5  and  S_7
REMARK    3  A    between atoms: C_9  and  C_10
REMARK                            x       y       z     vdW  Elec       q    Type
REMARK                         _______ _______ _______ _____ _____    ______ ____
ROOT
ATOM      1  C   UNL     1       4.812   7.071  16.572  0.00  0.00    +0.000 C 
ATOM      2  C   UNL     1       5.738   5.931  16.981  0.00  0.00    +0.000 C 
ATOM      3  C   UNL     1       6.801   5.681  15.914  0.00  0.00    +0.000 C 
ATOM      4  N   UNL     1       6.224   4.620  15.106  0.00  0.00    +0.000 N 
ATOM      5  C   UNL     1       6.619   4.231  13.843  0.00  0.00    +0.000 C 
ATOM      6  N   UNL     1       6.070   3.220  13.246  0.00  0.00    +0.000 NA
ATOM      7  N   UNL     1       5.276   3.917  15.834  0.00  0.00    +0.000 NA
ATOM      8  C   UNL     1       5.026   4.601  16.910  0.00  0.00    +0.000 C 
ATOM      9  H   UNL     1       5.382   2.886  13.936  0.00  0.00    +0.000 HD
ENDROOT
BRANCH   8  10
ATOM     10  C   UNL     1       4.090   4.139  17.969  0.00  0.00    +0.000 A 
ATOM     11  C   UNL     1       3.883   2.765  18.149  0.00  0.00    +0.000 A 
ATOM     12  C   UNL     1       2.998   2.305  19.129  0.00  0.00    +0.000 A 
ATOM     13  C   UNL     1       2.307   3.211  19.936  0.00  0.00    +0.000 A 
ATOM     14 CL   UNL     1       1.220   2.581  21.119  0.00  0.00    +0.000 Cl
ATOM     15  C   UNL     1       2.515   4.584  19.765  0.00  0.00    +0.000 A 
ATOM     16 CL   UNL     1       1.697   5.773  20.719  0.00  0.00    +0.000 Cl
ATOM     17  C   UNL     1       3.410   5.044  18.789  0.00  0.00    +0.000 A 
ENDBRANCH   8  10
BRANCH   5  18
ATOM     18  S   UNL     1       7.861   5.068  12.936  0.00  0.00    +0.000 S 
ATOM     19  H   UNL     1       7.480   6.325  13.157  0.00  0.00    +0.000 HD
ENDBRANCH   5  18
TORSDOF 2
ENDMDL
MODEL 5
REMARK VINA RESULT:      -6.3      4.468      6.237
REMARK  Name = 
REMARK  3 active torsions:
REMARK  status: ('A' for Active; 'I' for Inactive)
REMARK    1  A    between atoms: C_1  and  C_2
REMARK    2  A    between atoms: C_5  and  S_7
REMARK    3  A    between atoms: C_9  and  C_10
REMARK                            x       y       z     vdW  Elec       q    Type
REMARK                         _______ _______ _______ _____ _____    ______ ____
ROOT
ATOM      1  C   UNL     1       4.831   6.850  16.680  0.00  0.00    +0.000 C 
ATOM      2  C   UNL     1       5.815   5.731  17.003  0.00  0.00    +0.000 C 
ATOM      3  C   UNL     1       6.821   5.543  15.870  0.00  0.00    +0.000 C 
ATOM      4  N   UNL     1       6.231   4.484  15.069  0.00  0.00    +0.000 N 
ATOM      5  C   UNL     1       6.563   4.141  13.774  0.00  0.00    +0.000 C 
ATOM      6  N   UNL     1       6.012   3.128  13.184  0.00  0.00    +0.000 NA
ATOM      7  N   UNL     1       5.350   3.733  15.831  0.00  0.00    +0.000 NA
ATOM      8  C   UNL     1       5.142   4.381  16.938  0.00  0.00    +0.000 C 
ATOM      9  H   UNL     1       5.376   2.755  13.902  0.00  0.00    +0.000 HD
ENDROOT
BRANCH   8  10
ATOM     10  C   UNL     1       4.284   3.862  18.036  0.00  0.00    +0.000 A 
ATOM     11  C   UNL     1       4.839   3.675  19.309  0.00  0.00    +0.000 A 
ATOM     12  C   UNL     1       4.058   3.176  20.355  0.00  0.00    +0.000 A 
ATOM     13  C   UNL     1       2.715   2.854  20.141  0.00  0.00    +0.000 A 
ATOM     14 CL   UNL     1       1.807   2.232  21.470  0.00  0.00    +0.000 Cl
ATOM     15  C   UNL     1       2.155   3.046  18.874  0.00  0.00    +0.000 A 
ATOM     16 CL   UNL     1       0.504   2.670  18.523  0.00  0.00    +0.000 Cl
ATOM     17  C   UNL     1       2.936   3.555  17.828  0.00  0.00    +0.000 A 
ENDBRANCH   8  10
BRANCH   5  18
ATOM     18  S   UNL     1       7.723   5.041  12.821  0.00  0.00    +0.000 S 
ATOM     19  H   UNL     1       8.807   4.862  13.574  0.00  0.00    +0.000 HD
ENDBRANCH   5  18
TORSDOF 2
ENDMDL
MODEL 6
REMARK VINA RESULT:      -6.2      4.591      6.400
REMARK  Name = 
REMARK  3 active torsions:
REMARK  status: ('A' for Active; 'I' for Inactive)
REMARK    1  A    between atoms: C_1  and  C_2
REMARK    2  A    between atoms: C_5  and  S_7
REMARK    3  A    between atoms: C_9  and  C_10
REMARK                            x       y       z     vdW  Elec       q    Type
REMARK                         _______ _______ _______ _____ _____    ______ ____
ROOT
ATOM      1  C   UNL     1       4.885   7.049  16.498  0.00  0.00    +0.000 C 
ATOM      2  C   UNL     1       5.759   5.854  16.869  0.00  0.00    +0.000 C 
ATOM      3  C   UNL     1       6.820   5.601  15.801  0.00  0.00    +0.000 C 
ATOM      4  N   UNL     1       6.205   4.598  14.948  0.00  0.00    +0.000 N 
ATOM      5  C   UNL     1       6.594   4.242  13.672  0.00  0.00    +0.000 C 
ATOM      6  N   UNL     1       6.009   3.280  13.033  0.00  0.00    +0.000 NA
ATOM      7  N   UNL     1       5.221   3.909  15.640  0.00  0.00    +0.000 NA
ATOM      8  C   UNL     1       4.991   4.560  16.740  0.00  0.00    +0.000 C 
ATOM      9  H   UNL     1       5.300   2.950  13.703  0.00  0.00    +0.000 HD
ENDROOT
BRANCH   8  10
ATOM     10  C   UNL     1       4.026   4.098  17.773  0.00  0.00    +0.000 A 
ATOM     11  C   UNL     1       2.676   4.452  17.656  0.00  0.00    +0.000 A 
ATOM     12  C   UNL     1       1.751   4.041  18.620  0.00  0.00    +0.000 A 
ATOM     13  C   UNL     1       2.164   3.275  19.714  0.00  0.00    +0.000 A 
ATOM     14 CL   UNL     1       0.976   2.810  20.875  0.00  0.00    +0.000 Cl
ATOM     15  C   UNL     1       3.511   2.914  19.831  0.00  0.00    +0.000 A 
ATOM     16 CL   UNL     1       4.106   1.973  21.154  0.00  0.00    +0.000 Cl
ATOM     17  C   UNL     1       4.436   3.318  18.859  0.00  0.00    +0.000 A 
ENDBRANCH   8  10
BRANCH   5  18
ATOM     18  S   UNL     1       7.879   5.060  12.809  0.00  0.00    +0.000 S 
ATOM     19  H   UNL     1       7.641   4.602  11.581  0.00  0.00    +0.000 HD
ENDBRANCH   5  18
TORSDOF 2
ENDMDL
MODEL 7
REMARK VINA RESULT:      -6.1      4.838      6.409
REMARK  Name = 
REMARK  3 active torsions:
REMARK  status: ('A' for Active; 'I' for Inactive)
REMARK    1  A    between atoms: C_1  and  C_2
REMARK    2  A    between atoms: C_5  and  S_7
REMARK    3  A    between atoms: C_9  and  C_10
REMARK                            x       y       z     vdW  Elec       q    Type
REMARK                         _______ _______ _______ _____ _____    ______ ____
ROOT
ATOM      1  C   UNL     1       4.811   6.291  17.286  0.00  0.00    +0.000 C 
ATOM      2  C   UNL     1       4.298   6.005  18.693  0.00  0.00    +0.000 C 
ATOM      3  C   UNL     1       4.320   4.507  18.989  0.00  0.00    +0.000 C 
ATOM      4  N   UNL     1       2.972   4.079  18.655  0.00  0.00    +0.000 N 
ATOM      5  C   UNL     1       2.541   2.785  18.443  0.00  0.00    +0.000 C 
ATOM      6  N   UNL     1       1.293   2.519  18.219  0.00  0.00    +0.000 NA
ATOM      7  N   UNL     1       2.095   5.151  18.710  0.00  0.00    +0.000 NA
ATOM      8  C   UNL     1       2.808   6.235  18.785  0.00  0.00    +0.000 C 
ATOM      9  H   UNL     1       0.844   3.445  18.261  0.00  0.00    +0.000 HD
ENDROOT
BRANCH   8  10
ATOM     10  C   UNL     1       2.216   7.593  18.910  0.00  0.00    +0.000 A 
ATOM     11  C   UNL     1       2.223   8.448  17.801  0.00  0.00    +0.000 A 
ATOM     12  C   UNL     1       1.684   9.734  17.896  0.00  0.00    +0.000 A 
ATOM     13  C   UNL     1       1.136  10.182  19.101  0.00  0.00    +0.000 A 
ATOM     14 CL   UNL     1       0.497  11.784  19.157  0.00  0.00    +0.000 Cl
ATOM     15  C   UNL     1       1.121   9.329  20.209  0.00  0.00    +0.000 A 
ATOM     16 CL   UNL     1       0.467   9.806  21.738  0.00  0.00    +0.000 Cl
ATOM     17  C   UNL     1       1.653   8.036  20.110  0.00  0.00    +0.000 A 
ENDBRANCH   8  10
BRANCH   5  18
ATOM     18  S   UNL     1       3.627   1.412  18.436  0.00  0.00    +0.000 S 
ATOM     19  H   UNL     1       3.202   0.794  19.537  0.00  0.00    +0.000 HD
ENDBRANCH   5  18
TORSDOF 2
ENDMDL
MODEL 8
REMARK VINA RESULT:      -6.0      4.529      5.636
REMARK  Name = 
REMARK  3 active torsions:
REMARK  status: ('A' for Active; 'I' for Inactive)
REMARK    1  A    between atoms: C_1  and  C_2
REMARK    2  A    between atoms: C_5  and  S_7
REMARK    3  A    between atoms: C_9  and  C_10
REMARK                            x       y       z     vdW  Elec       q    Type
REMARK                         _______ _______ _______ _____ _____    ______ ____
ROOT
ATOM      1  C   UNL     1       2.226  10.313  17.715  0.00  0.00    +0.000 C 
ATOM      2  C   UNL     1       1.232   9.241  18.147  0.00  0.00    +0.000 C 
ATOM      3  C   UNL     1       0.301   9.766  19.238  0.00  0.00    +0.000 C 
ATOM      4  N   UNL     1       0.949   9.339  20.466  0.00  0.00    +0.000 N 
ATOM      5  C   UNL     1       0.702   9.809  21.741  0.00  0.00    +0.000 C 
ATOM      6  N   UNL     1       1.297   9.301  22.773  0.00  0.00    +0.000 NA
ATOM      7  N   UNL     1       1.786   8.261  20.225  0.00  0.00    +0.000 NA
ATOM      8  C   UNL     1       1.918   8.151  18.937  0.00  0.00    +0.000 C 
ATOM      9  H   UNL     1       1.889   8.564  22.364  0.00  0.00    +0.000 HD
ENDROOT
BRANCH   8  10
ATOM     10  C   UNL     1       2.708   7.071  18.289  0.00  0.00    +0.000 A 
ATOM     11  C   UNL     1       3.925   7.389  17.672  0.00  0.00    +0.000 A 
ATOM     12  C   UNL     1       4.681   6.395  17.044  0.00  0.00    +0.000 A 
ATOM     13  C   UNL     1       4.227   5.073  17.021  0.00  0.00    +0.000 A 
ATOM     14 CL   UNL     1       5.200   3.894  16.220  0.00  0.00    +0.000 Cl
ATOM     15  C   UNL     1       3.016   4.750  17.641  0.00  0.00    +0.000 A 
ATOM     16 CL   UNL     1       2.381   3.141  17.655  0.00  0.00    +0.000 Cl
ATOM     17  C   UNL     1       2.264   5.746  18.279  0.00  0.00    +0.000 A 
ENDBRANCH   8  10
BRANCH   5  18
ATOM     18  S   UNL     1      -0.401  11.127  22.069  0.00  0.00    +0.000 S 
ATOM     19  H   UNL     1       0.175  12.080  21.337  0.00  0.00    +0.000 HD
ENDBRANCH   5  18
TORSDOF 2
ENDMDL
MODEL 9
REMARK VINA RESULT:      -6.0      5.240      6.500
REMARK  Name = 
REMARK  3 active torsions:
REMARK  status: ('A' for Active; 'I' for Inactive)
REMARK    1  A    between atoms: C_1  and  C_2
REMARK    2  A    between atoms: C_5  and  S_7
REMARK    3  A    between atoms: C_9  and  C_10
REMARK                            x       y       z     vdW  Elec       q    Type
REMARK                         _______ _______ _______ _____ _____    ______ ____
ROOT
ATOM      1  C   UNL     1       1.792  10.770  18.432  0.00  0.00    +0.000 C 
ATOM      2  C   UNL     1       0.797   9.667  18.777  0.00  0.00    +0.000 C 
ATOM      3  C   UNL     1      -0.246  10.164  19.775  0.00  0.00    +0.000 C 
ATOM      4  N   UNL     1       0.299   9.762  21.060  0.00  0.00    +0.000 N 
ATOM      5  C   UNL     1      -0.078  10.226  22.304  0.00  0.00    +0.000 C 
ATOM      6  N   UNL     1       0.434   9.739  23.389  0.00  0.00    +0.000 NA
ATOM      7  N   UNL     1       1.188   8.710  20.902  0.00  0.00    +0.000 NA
ATOM      8  C   UNL     1       1.442   8.602  19.632  0.00  0.00    +0.000 C 
ATOM      9  H   UNL     1       1.085   9.021  23.040  0.00  0.00    +0.000 HD
ENDROOT
BRANCH   8  10
ATOM     10  C   UNL     1       2.322   7.547  19.065  0.00  0.00    +0.000 A 
ATOM     11  C   UNL     1       3.019   7.803  17.877  0.00  0.00    +0.000 A 
ATOM     12  C   UNL     1       3.843   6.823  17.315  0.00  0.00    +0.000 A 
ATOM     13  C   UNL     1       3.977   5.576  17.931  0.00  0.00    +0.000 A 
ATOM     14 CL   UNL     1       5.000   4.405  17.183  0.00  0.00    +0.000 Cl
ATOM     15  C   UNL     1       3.288   5.319  19.121  0.00  0.00    +0.000 A 
ATOM     16 CL   UNL     1       3.395   3.802  19.946  0.00  0.00    +0.000 Cl
ATOM     17  C   UNL     1       2.470   6.305  19.688  0.00  0.00    +0.000 A 
ENDBRANCH   8  10
BRANCH   5  18
ATOM     18  S   UNL     1      -1.249  11.509  22.523  0.00  0.00    +0.000 S 
ATOM     19  H   UNL     1      -0.534  12.325  23.297  0.00  0.00    +0.000 HD
ENDBRANCH   5  18
TORSDOF 2
ENDMDL
