MODEL 1
REMARK VINA RESULT:      -8.7      0.000      0.000
REMARK  Name = 
REMARK  6 active torsions:
REMARK  status: ('A' for Active; 'I' for Inactive)
REMARK    1  A    between atoms: C_1  and  O_2
REMARK    2  A    between atoms: O_2  and  C_3
REMARK    3  A    between atoms: C_6  and  C_7
REMARK    4  A    between atoms: C_7  and  C_8
REMARK    5  A    between atoms: N_10  and  C_11
REMARK    6  A    between atoms: N_15  and  C_16
REMARK                            x       y       z     vdW  Elec       q    Type
REMARK                         _______ _______ _______ _____ _____    ______ ____
ROOT
ATOM      1  C   UNL     1       5.113   4.227  18.419  0.00  0.00    +0.000 C 
ATOM      2  C   UNL     1       3.816   3.416  18.322  0.00  0.00    +0.000 C 
ATOM      3  C   UNL     1       2.732   4.469  18.358  0.00  0.00    +0.000 C 
ATOM      4  O   UNL     1       1.560   4.251  18.092  0.00  0.00    +0.000 OA
ATOM      5  N   UNL     1       3.322   5.677  18.731  0.00  0.00    +0.000 N 
ATOM      6  C   UNL     1       4.679   5.470  19.177  0.00  0.00    +0.000 C 
ENDROOT
BRANCH   5   7
ATOM      7  C   UNL     1       2.642   6.883  18.988  0.00  0.00    +0.000 A 
ATOM      8  C   UNL     1       2.493   7.869  18.009  0.00  0.00    +0.000 A 
ATOM      9  C   UNL     1       1.720   9.007  18.270  0.00  0.00    +0.000 A 
ATOM     10  C   UNL     1       1.147   9.189  19.527  0.00  0.00    +0.000 A 
ATOM     11  C   UNL     1       1.403   8.267  20.534  0.00  0.00    +0.000 A 
ATOM     12  C   UNL     1       2.107   7.099  20.261  0.00  0.00    +0.000 A 
ATOM     13  O   UNL     1       1.013   8.463  21.828  0.00  0.00    +0.000 OA
ATOM     14  C   UNL     1      -0.245   9.124  21.845  0.00  0.00    +0.000 C 
ATOM     15  C   UNL     1      -0.285  10.374  20.972  0.00  0.00    +0.000 C 
ATOM     16  O   UNL     1       0.339  10.275  19.689  0.00  0.00    +0.000 OA
ENDBRANCH   5   7
BRANCH   1  19
ATOM     17  C   UNL     1       7.032   4.687  16.932  0.00  0.00    +0.000 C 
ATOM     18  O   UNL     1       7.843   4.424  17.809  0.00  0.00    +0.000 OA
ATOM     19  N   UNL     1       5.674   4.577  17.116  0.00  0.00    +0.000 N 
ATOM     20  H   UNL     1       5.072   4.558  16.300  0.00  0.00    +0.000 HD
BRANCH  17  21
ATOM     21  C   UNL     1       7.452   5.218  15.568  0.00  0.00    +0.000 C 
BRANCH  21  25
ATOM     22  C   UNL     1       5.554   3.342  12.158  0.00  0.00    +0.000 A 
ATOM     23  C   UNL     1       4.884   3.473  13.374  0.00  0.00    +0.000 A 
ATOM     24  C   UNL     1       5.508   4.077  14.466  0.00  0.00    +0.000 A 
ATOM     25  C   UNL     1       6.830   4.540  14.371  0.00  0.00    +0.000 A 
ATOM     26  C   UNL     1       7.486   4.426  13.139  0.00  0.00    +0.000 A 
ATOM     27  C   UNL     1       6.856   3.822  12.043  0.00  0.00    +0.000 A 
BRANCH  22  29
ATOM     28  C   UNL     1       3.607   3.307  10.810  0.00  0.00    +0.000 C 
ATOM     29  O   UNL     1       4.843   2.708  11.176  0.00  0.00    +0.000 OA
ENDBRANCH  22  29
ENDBRANCH  21  25
ENDBRANCH  17  21
ENDBRANCH   1  19
TORSDOF 5
ENDMDL
MODEL 2
REMARK VINA RESULT:      -8.6      0.790      1.595
REMARK  Name = 
REMARK  6 active torsions:
REMARK  status: ('A' for Active; 'I' for Inactive)
REMARK    1  A    between atoms: C_1  and  O_2
REMARK    2  A    between atoms: O_2  and  C_3
REMARK    3  A    between atoms: C_6  and  C_7
REMARK    4  A    between atoms: C_7  and  C_8
REMARK    5  A    between atoms: N_10  and  C_11
REMARK    6  A    between atoms: N_15  and  C_16
REMARK                            x       y       z     vdW  Elec       q    Type
REMARK                         _______ _______ _______ _____ _____    ______ ____
ROOT
ATOM      1  C   UNL     1       5.172   4.142  18.567  0.00  0.00    +0.000 C 
ATOM      2  C   UNL     1       3.915   3.269  18.470  0.00  0.00    +0.000 C 
ATOM      3  C   UNL     1       2.781   4.265  18.562  0.00  0.00    +0.000 C 
ATOM      4  O   UNL     1       1.615   3.997  18.315  0.00  0.00    +0.000 OA
ATOM      5  N   UNL     1       3.319   5.488  18.963  0.00  0.00    +0.000 N 
ATOM      6  C   UNL     1       4.694   5.336  19.374  0.00  0.00    +0.000 C 
ENDROOT
BRANCH   5   7
ATOM      7  C   UNL     1       2.586   6.650  19.273  0.00  0.00    +0.000 A 
ATOM      8  C   UNL     1       1.910   6.795  20.488  0.00  0.00    +0.000 A 
ATOM      9  C   UNL     1       1.283   8.005  20.804  0.00  0.00    +0.000 A 
ATOM     10  C   UNL     1       1.278   9.051  19.883  0.00  0.00    +0.000 A 
ATOM     11  C   UNL     1       1.844   8.858  18.628  0.00  0.00    +0.000 A 
ATOM     12  C   UNL     1       2.532   7.686  18.336  0.00  0.00    +0.000 A 
ATOM     13  O   UNL     1       1.732   9.775  17.622  0.00  0.00    +0.000 OA
ATOM     14  C   UNL     1       1.781  11.084  18.173  0.00  0.00    +0.000 C 
ATOM     15  C   UNL     1       0.814  11.292  19.332  0.00  0.00    +0.000 C 
ATOM     16  O   UNL     1       0.723  10.229  20.285  0.00  0.00    +0.000 OA
ENDBRANCH   5   7
BRANCH   1  19
ATOM     17  C   UNL     1       7.036   4.687  17.040  0.00  0.00    +0.000 C 
ATOM     18  O   UNL     1       7.879   4.384  17.874  0.00  0.00    +0.000 OA
ATOM     19  N   UNL     1       5.686   4.559  17.264  0.00  0.00    +0.000 N 
ATOM     20  H   UNL     1       5.056   4.578  16.470  0.00  0.00    +0.000 HD
BRANCH  17  21
ATOM     21  C   UNL     1       7.406   5.288  15.690  0.00  0.00    +0.000 C 
BRANCH  21  25
ATOM     22  C   UNL     1       5.610   3.394  12.235  0.00  0.00    +0.000 A 
ATOM     23  C   UNL     1       4.945   3.438  13.460  0.00  0.00    +0.000 A 
ATOM     24  C   UNL     1       5.536   4.049  14.567  0.00  0.00    +0.000 A 
ATOM     25  C   UNL     1       6.821   4.607  14.477  0.00  0.00    +0.000 A 
ATOM     26  C   UNL     1       7.471   4.579  13.237  0.00  0.00    +0.000 A 
ATOM     27  C   UNL     1       6.875   3.968  12.126  0.00  0.00    +0.000 A 
BRANCH  22  29
ATOM     28  C   UNL     1       3.722   3.344  10.807  0.00  0.00    +0.000 C 
ATOM     29  O   UNL     1       4.936   2.743  11.239  0.00  0.00    +0.000 OA
ENDBRANCH  22  29
ENDBRANCH  21  25
ENDBRANCH  17  21
ENDBRANCH   1  19
TORSDOF 5
ENDMDL
MODEL 3
REMARK VINA RESULT:      -8.4      4.853      7.405
REMARK  Name = 
REMARK  6 active torsions:
REMARK  status: ('A' for Active; 'I' for Inactive)
REMARK    1  A    between atoms: C_1  and  O_2
REMARK    2  A    between atoms: O_2  and  C_3
REMARK    3  A    between atoms: C_6  and  C_7
REMARK    4  A    between atoms: C_7  and  C_8
REMARK    5  A    between atoms: N_10  and  C_11
REMARK    6  A    between atoms: N_15  and  C_16
REMARK                            x       y       z     vdW  Elec       q    Type
REMARK                         _______ _______ _______ _____ _____    ______ ____
ROOT
ATOM      1  C   UNL     1       7.670   5.687  16.863  0.00  0.00    +0.000 C 
ATOM      2  C   UNL     1       7.047   5.088  15.596  0.00  0.00    +0.000 C 
ATOM      3  C   UNL     1       5.593   4.898  15.968  0.00  0.00    +0.000 C 
ATOM      4  O   UNL     1       4.711   4.639  15.164  0.00  0.00    +0.000 OA
ATOM      5  N   UNL     1       5.479   5.077  17.347  0.00  0.00    +0.000 N 
ATOM      6  C   UNL     1       6.781   5.143  17.968  0.00  0.00    +0.000 C 
ENDROOT
BRANCH   5   7
ATOM      7  C   UNL     1       4.313   4.879  18.111  0.00  0.00    +0.000 A 
ATOM      8  C   UNL     1       3.129   5.574  17.846  0.00  0.00    +0.000 A 
ATOM      9  C   UNL     1       1.963   5.272  18.558  0.00  0.00    +0.000 A 
ATOM     10  C   UNL     1       1.991   4.320  19.575  0.00  0.00    +0.000 A 
ATOM     11  C   UNL     1       3.199   3.724  19.918  0.00  0.00    +0.000 A 
ATOM     12  C   UNL     1       4.343   3.964  19.166  0.00  0.00    +0.000 A 
ATOM     13  O   UNL     1       3.334   2.909  21.005  0.00  0.00    +0.000 OA
ATOM     14  C   UNL     1       2.150   2.140  21.166  0.00  0.00    +0.000 C 
ATOM     15  C   UNL     1       0.876   2.977  21.154  0.00  0.00    +0.000 C 
ATOM     16  O   UNL     1       0.805   4.014  20.172  0.00  0.00    +0.000 OA
ENDBRANCH   5   7
BRANCH   1  19
ATOM     17  C   UNL     1       8.114   7.854  17.962  0.00  0.00    +0.000 C 
ATOM     18  O   UNL     1       8.593   7.315  18.951  0.00  0.00    +0.000 OA
ATOM     19  N   UNL     1       7.677   7.148  16.867  0.00  0.00    +0.000 N 
ATOM     20  H   UNL     1       7.533   7.644  15.994  0.00  0.00    +0.000 HD
BRANCH  17  21
ATOM     21  C   UNL     1       7.905   9.361  17.877  0.00  0.00    +0.000 C 
BRANCH  21  25
ATOM     22  C   UNL     1      10.971  11.912  19.563  0.00  0.00    +0.000 A 
ATOM     23  C   UNL     1      10.840  11.757  18.183  0.00  0.00    +0.000 A 
ATOM     24  C   UNL     1       9.850  10.930  17.653  0.00  0.00    +0.000 A 
ATOM     25  C   UNL     1       8.984  10.217  18.496  0.00  0.00    +0.000 A 
ATOM     26  C   UNL     1       9.107  10.397  19.880  0.00  0.00    +0.000 A 
ATOM     27  C   UNL     1      10.099  11.231  20.410  0.00  0.00    +0.000 A 
BRANCH  22  29
ATOM     28  C   UNL     1      11.974  14.054  19.445  0.00  0.00    +0.000 C 
ATOM     29  O   UNL     1      11.997  12.727  19.956  0.00  0.00    +0.000 OA
ENDBRANCH  22  29
ENDBRANCH  21  25
ENDBRANCH  17  21
ENDBRANCH   1  19
TORSDOF 5
ENDMDL
MODEL 4
REMARK VINA RESULT:      -8.2      2.160      9.585
REMARK  Name = 
REMARK  6 active torsions:
REMARK  status: ('A' for Active; 'I' for Inactive)
REMARK    1  A    between atoms: C_1  and  O_2
REMARK    2  A    between atoms: O_2  and  C_3
REMARK    3  A    between atoms: C_6  and  C_7
REMARK    4  A    between atoms: C_7  and  C_8
REMARK    5  A    between atoms: N_10  and  C_11
REMARK    6  A    between atoms: N_15  and  C_16
REMARK                            x       y       z     vdW  Elec       q    Type
REMARK                         _______ _______ _______ _____ _____    ______ ____
ROOT
ATOM      1  C   UNL     1       1.971   5.353  19.851  0.00  0.00    +0.000 C 
ATOM      2  C   UNL     1       2.712   4.127  20.397  0.00  0.00    +0.000 C 
ATOM      3  C   UNL     1       4.011   4.120  19.624  0.00  0.00    +0.000 C 
ATOM      4  O   UNL     1       4.972   3.424  19.910  0.00  0.00    +0.000 OA
ATOM      5  N   UNL     1       3.888   5.032  18.575  0.00  0.00    +0.000 N 
ATOM      6  C   UNL     1       2.522   5.482  18.442  0.00  0.00    +0.000 C 
ENDROOT
BRANCH   5   7
ATOM      7  C   UNL     1       4.832   5.248  17.554  0.00  0.00    +0.000 A 
ATOM      8  C   UNL     1       5.965   6.043  17.751  0.00  0.00    +0.000 A 
ATOM      9  C   UNL     1       6.934   6.147  16.747  0.00  0.00    +0.000 A 
ATOM     10  C   UNL     1       6.746   5.508  15.524  0.00  0.00    +0.000 A 
ATOM     11  C   UNL     1       5.560   4.822  15.289  0.00  0.00    +0.000 A 
ATOM     12  C   UNL     1       4.628   4.652  16.306  0.00  0.00    +0.000 A 
ATOM     13  O   UNL     1       5.236   4.311  14.064  0.00  0.00    +0.000 OA
ATOM     14  C   UNL     1       6.413   3.830  13.429  0.00  0.00    +0.000 C 
ATOM     15  C   UNL     1       7.553   4.843  13.415  0.00  0.00    +0.000 C 
ATOM     16  O   UNL     1       7.764   5.580  14.622  0.00  0.00    +0.000 OA
ENDBRANCH   5   7
BRANCH   1  19
ATOM     17  C   UNL     1       1.178   7.346  21.076  0.00  0.00    +0.000 C 
ATOM     18  O   UNL     1       0.004   7.033  20.935  0.00  0.00    +0.000 OA
ATOM     19  N   UNL     1       2.217   6.568  20.624  0.00  0.00    +0.000 N 
ATOM     20  H   UNL     1       3.148   6.741  20.987  0.00  0.00    +0.000 HD
BRANCH  17  21
ATOM     21  C   UNL     1       1.597   8.661  21.721  0.00  0.00    +0.000 C 
BRANCH  21  25
ATOM     22  C   UNL     1      -1.426  11.734  22.131  0.00  0.00    +0.000 A 
ATOM     23  C   UNL     1      -1.172  10.831  23.163  0.00  0.00    +0.000 A 
ATOM     24  C   UNL     1      -0.196   9.844  23.017  0.00  0.00    +0.000 A 
ATOM     25  C   UNL     1       0.528   9.722  21.821  0.00  0.00    +0.000 A 
ATOM     26  C   UNL     1       0.282  10.648  20.799  0.00  0.00    +0.000 A 
ATOM     27  C   UNL     1      -0.695  11.641  20.948  0.00  0.00    +0.000 A 
BRANCH  22  29
ATOM     28  C   UNL     1      -3.219  12.377  23.538  0.00  0.00    +0.000 C 
ATOM     29  O   UNL     1      -2.424  12.634  22.387  0.00  0.00    +0.000 OA
ENDBRANCH  22  29
ENDBRANCH  21  25
ENDBRANCH  17  21
ENDBRANCH   1  19
TORSDOF 5
ENDMDL
MODEL 5
REMARK VINA RESULT:      -8.1      2.088      9.507
REMARK  Name = 
REMARK  6 active torsions:
REMARK  status: ('A' for Active; 'I' for Inactive)
REMARK    1  A    between atoms: C_1  and  O_2
REMARK    2  A    between atoms: O_2  and  C_3
REMARK    3  A    between atoms: C_6  and  C_7
REMARK    4  A    between atoms: C_7  and  C_8
REMARK    5  A    between atoms: N_10  and  C_11
REMARK    6  A    between atoms: N_15  and  C_16
REMARK                            x       y       z     vdW  Elec       q    Type
REMARK                         _______ _______ _______ _____ _____    ______ ____
ROOT
ATOM      1  C   UNL     1       2.019   5.221  19.905  0.00  0.00    +0.000 C 
ATOM      2  C   UNL     1       2.729   3.961  20.413  0.00  0.00    +0.000 C 
ATOM      3  C   UNL     1       4.029   3.947  19.641  0.00  0.00    +0.000 C 
ATOM      4  O   UNL     1       4.973   3.219  19.906  0.00  0.00    +0.000 OA
ATOM      5  N   UNL     1       3.929   4.894  18.622  0.00  0.00    +0.000 N 
ATOM      6  C   UNL     1       2.575   5.381  18.501  0.00  0.00    +0.000 C 
ENDROOT
BRANCH   5   7
ATOM      7  C   UNL     1       4.881   5.120  17.608  0.00  0.00    +0.000 A 
ATOM      8  C   UNL     1       6.049   5.851  17.842  0.00  0.00    +0.000 A 
ATOM      9  C   UNL     1       7.020   5.963  16.841  0.00  0.00    +0.000 A 
ATOM     10  C   UNL     1       6.800   5.398  15.586  0.00  0.00    +0.000 A 
ATOM     11  C   UNL     1       5.583   4.781  15.321  0.00  0.00    +0.000 A 
ATOM     12  C   UNL     1       4.646   4.601  16.332  0.00  0.00    +0.000 A 
ATOM     13  O   UNL     1       5.232   4.351  14.073  0.00  0.00    +0.000 OA
ATOM     14  C   UNL     1       6.384   3.850  13.408  0.00  0.00    +0.000 C 
ATOM     15  C   UNL     1       7.570   4.808  13.441  0.00  0.00    +0.000 C 
ATOM     16  O   UNL     1       7.818   5.471  14.684  0.00  0.00    +0.000 OA
ENDBRANCH   5   7
BRANCH   1  19
ATOM     17  C   UNL     1       1.287   7.273  21.071  0.00  0.00    +0.000 C 
ATOM     18  O   UNL     1       0.111   7.069  20.805  0.00  0.00    +0.000 OA
ATOM     19  N   UNL     1       2.293   6.404  20.717  0.00  0.00    +0.000 N 
ATOM     20  H   UNL     1       3.193   6.489  21.176  0.00  0.00    +0.000 HD
BRANCH  17  21
ATOM     21  C   UNL     1       1.755   8.540  21.774  0.00  0.00    +0.000 C 
BRANCH  21  25
ATOM     22  C   UNL     1      -1.267  11.617  22.169  0.00  0.00    +0.000 A 
ATOM     23  C   UNL     1      -0.479  11.523  21.022  0.00  0.00    +0.000 A 
ATOM     24  C   UNL     1       0.493  10.528  20.908  0.00  0.00    +0.000 A 
ATOM     25  C   UNL     1       0.717   9.621  21.955  0.00  0.00    +0.000 A 
ATOM     26  C   UNL     1      -0.095   9.708  23.094  0.00  0.00    +0.000 A 
ATOM     27  C   UNL     1      -1.073  10.705  23.204  0.00  0.00    +0.000 A 
BRANCH  22  29
ATOM     28  C   UNL     1      -1.718  13.864  21.574  0.00  0.00    +0.000 C 
ATOM     29  O   UNL     1      -2.162  12.651  22.168  0.00  0.00    +0.000 OA
ENDBRANCH  22  29
ENDBRANCH  21  25
ENDBRANCH  17  21
ENDBRANCH   1  19
TORSDOF 5
ENDMDL
MODEL 6
REMARK VINA RESULT:      -8.0      4.472      7.213
REMARK  Name = 
REMARK  6 active torsions:
REMARK  status: ('A' for Active; 'I' for Inactive)
REMARK    1  A    between atoms: C_1  and  O_2
REMARK    2  A    between atoms: O_2  and  C_3
REMARK    3  A    between atoms: C_6  and  C_7
REMARK    4  A    between atoms: C_7  and  C_8
REMARK    5  A    between atoms: N_10  and  C_11
REMARK    6  A    between atoms: N_15  and  C_16
REMARK                            x       y       z     vdW  Elec       q    Type
REMARK                         _______ _______ _______ _____ _____    ______ ____
ROOT
ATOM      1  C   UNL     1       7.708   5.476  16.364  0.00  0.00    +0.000 C 
ATOM      2  C   UNL     1       7.271   4.934  14.998  0.00  0.00    +0.000 C 
ATOM      3  C   UNL     1       5.842   4.497  15.228  0.00  0.00    +0.000 C 
ATOM      4  O   UNL     1       5.066   4.202  14.332  0.00  0.00    +0.000 OA
ATOM      5  N   UNL     1       5.608   4.506  16.603  0.00  0.00    +0.000 N 
ATOM      6  C   UNL     1       6.840   4.691  17.333  0.00  0.00    +0.000 C 
ENDROOT
BRANCH   5   7
ATOM      7  C   UNL     1       4.437   4.059  17.245  0.00  0.00    +0.000 A 
ATOM      8  C   UNL     1       3.892   2.797  16.990  0.00  0.00    +0.000 A 
ATOM      9  C   UNL     1       2.789   2.348  17.726  0.00  0.00    +0.000 A 
ATOM     10  C   UNL     1       2.193   3.179  18.672  0.00  0.00    +0.000 A 
ATOM     11  C   UNL     1       2.663   4.477  18.831  0.00  0.00    +0.000 A 
ATOM     12  C   UNL     1       3.802   4.904  18.158  0.00  0.00    +0.000 A 
ATOM     13  O   UNL     1       2.029   5.398  19.616  0.00  0.00    +0.000 OA
ATOM     14  C   UNL     1       1.489   4.748  20.759  0.00  0.00    +0.000 C 
ATOM     15  C   UNL     1       0.653   3.518  20.420  0.00  0.00    +0.000 C 
ATOM     16  O   UNL     1       1.178   2.651  19.411  0.00  0.00    +0.000 OA
ENDBRANCH   5   7
BRANCH   1  19
ATOM     17  C   UNL     1       7.790   7.561  17.687  0.00  0.00    +0.000 C 
ATOM     18  O   UNL     1       8.322   7.001  18.636  0.00  0.00    +0.000 OA
ATOM     19  N   UNL     1       7.492   6.913  16.511  0.00  0.00    +0.000 N 
ATOM     20  H   UNL     1       7.295   7.468  15.686  0.00  0.00    +0.000 HD
BRANCH  17  21
ATOM     21  C   UNL     1       7.356   9.020  17.741  0.00  0.00    +0.000 C 
BRANCH  21  25
ATOM     22  C   UNL     1      10.264  11.950  19.046  0.00  0.00    +0.000 A 
ATOM     23  C   UNL     1       9.495  12.158  17.902  0.00  0.00    +0.000 A 
ATOM     24  C   UNL     1       8.563  11.205  17.490  0.00  0.00    +0.000 A 
ATOM     25  C   UNL     1       8.400  10.007  18.203  0.00  0.00    +0.000 A 
ATOM     26  C   UNL     1       9.160   9.817  19.365  0.00  0.00    +0.000 A 
ATOM     27  C   UNL     1      10.093  10.777  19.778  0.00  0.00    +0.000 A 
BRANCH  22  29
ATOM     28  C   UNL     1      12.019  13.333  18.261  0.00  0.00    +0.000 C 
ATOM     29  O   UNL     1      11.160  12.946  19.326  0.00  0.00    +0.000 OA
ENDBRANCH  22  29
ENDBRANCH  21  25
ENDBRANCH  17  21
ENDBRANCH   1  19
TORSDOF 5
ENDMDL
MODEL 7
REMARK VINA RESULT:      -7.9      1.114      1.629
REMARK  Name = 
REMARK  6 active torsions:
REMARK  status: ('A' for Active; 'I' for Inactive)
REMARK    1  A    between atoms: C_1  and  O_2
REMARK    2  A    between atoms: O_2  and  C_3
REMARK    3  A    between atoms: C_6  and  C_7
REMARK    4  A    between atoms: C_7  and  C_8
REMARK    5  A    between atoms: N_10  and  C_11
REMARK    6  A    between atoms: N_15  and  C_16
REMARK                            x       y       z     vdW  Elec       q    Type
REMARK                         _______ _______ _______ _____ _____    ______ ____
ROOT
ATOM      1  C   UNL     1       4.316   3.508  19.374  0.00  0.00    +0.000 C 
ATOM      2  C   UNL     1       3.051   2.987  18.681  0.00  0.00    +0.000 C 
ATOM      3  C   UNL     1       2.298   4.246  18.317  0.00  0.00    +0.000 C 
ATOM      4  O   UNL     1       1.337   4.273  17.564  0.00  0.00    +0.000 OA
ATOM      5  N   UNL     1       2.902   5.313  18.983  0.00  0.00    +0.000 N 
ATOM      6  C   UNL     1       3.861   4.837  19.952  0.00  0.00    +0.000 C 
ENDROOT
BRANCH   5   7
ATOM      7  C   UNL     1       2.441   6.643  19.002  0.00  0.00    +0.000 A 
ATOM      8  C   UNL     1       2.466   7.449  17.861  0.00  0.00    +0.000 A 
ATOM      9  C   UNL     1       1.900   8.729  17.892  0.00  0.00    +0.000 A 
ATOM     10  C   UNL     1       1.364   9.228  19.078  0.00  0.00    +0.000 A 
ATOM     11  C   UNL     1       1.455   8.470  20.239  0.00  0.00    +0.000 A 
ATOM     12  C   UNL     1       1.948   7.171  20.198  0.00  0.00    +0.000 A 
ATOM     13  O   UNL     1       1.103   8.957  21.465  0.00  0.00    +0.000 OA
ATOM     14  C   UNL     1      -0.022   9.814  21.324  0.00  0.00    +0.000 C 
ATOM     15  C   UNL     1       0.155  10.876  20.244  0.00  0.00    +0.000 C 
ATOM     16  O   UNL     1       0.756  10.446  19.020  0.00  0.00    +0.000 OA
ENDBRANCH   5   7
BRANCH   1  19
ATOM     17  C   UNL     1       6.412   4.632  18.707  0.00  0.00    +0.000 C 
ATOM     18  O   UNL     1       6.439   5.305  19.728  0.00  0.00    +0.000 OA
ATOM     19  N   UNL     1       5.441   3.690  18.460  0.00  0.00    +0.000 N 
ATOM     20  H   UNL     1       5.607   2.997  17.739  0.00  0.00    +0.000 HD
BRANCH  17  21
ATOM     21  C   UNL     1       7.425   4.815  17.584  0.00  0.00    +0.000 C 
BRANCH  21  25
ATOM     22  C   UNL     1       6.112   4.011  13.536  0.00  0.00    +0.000 A 
ATOM     23  C   UNL     1       7.227   4.811  13.787  0.00  0.00    +0.000 A 
ATOM     24  C   UNL     1       7.638   5.064  15.096  0.00  0.00    +0.000 A 
ATOM     25  C   UNL     1       6.923   4.543  16.186  0.00  0.00    +0.000 A 
ATOM     26  C   UNL     1       5.819   3.722  15.924  0.00  0.00    +0.000 A 
ATOM     27  C   UNL     1       5.410   3.466  14.609  0.00  0.00    +0.000 A 
BRANCH  22  29
ATOM     28  C   UNL     1       5.642   2.527  11.752  0.00  0.00    +0.000 C 
ATOM     29  O   UNL     1       5.797   3.863  12.214  0.00  0.00    +0.000 OA
ENDBRANCH  22  29
ENDBRANCH  21  25
ENDBRANCH  17  21
ENDBRANCH   1  19
TORSDOF 5
ENDMDL
MODEL 8
REMARK VINA RESULT:      -7.9      3.545      6.608
REMARK  Name = 
REMARK  6 active torsions:
REMARK  status: ('A' for Active; 'I' for Inactive)
REMARK    1  A    between atoms: C_1  and  O_2
REMARK    2  A    between atoms: O_2  and  C_3
REMARK    3  A    between atoms: C_6  and  C_7
REMARK    4  A    between atoms: C_7  and  C_8
REMARK    5  A    between atoms: N_10  and  C_11
REMARK    6  A    between atoms: N_15  and  C_16
REMARK                            x       y       z     vdW  Elec       q    Type
REMARK                         _______ _______ _______ _____ _____    ______ ____
ROOT
ATOM      1  C   UNL     1       0.951  10.514  18.520  0.00  0.00    +0.000 C 
ATOM      2  C   UNL     1       1.769  11.724  18.984  0.00  0.00    +0.000 C 
ATOM      3  C   UNL     1       1.048  12.186  20.231  0.00  0.00    +0.000 C 
ATOM      4  O   UNL     1       1.503  12.999  21.021  0.00  0.00    +0.000 OA
ATOM      5  N   UNL     1      -0.176  11.521  20.287  0.00  0.00    +0.000 N 
ATOM      6  C   UNL     1      -0.439  10.820  19.052  0.00  0.00    +0.000 C 
ENDROOT
BRANCH   5   7
ATOM      7  C   UNL     1      -1.196  11.747  21.231  0.00  0.00    +0.000 A 
ATOM      8  C   UNL     1      -1.119  11.249  22.535  0.00  0.00    +0.000 A 
ATOM      9  C   UNL     1      -2.101  11.585  23.474  0.00  0.00    +0.000 A 
ATOM     10  C   UNL     1      -3.191  12.366  23.097  0.00  0.00    +0.000 A 
ATOM     11  C   UNL     1      -3.326  12.754  21.769  0.00  0.00    +0.000 A 
ATOM     12  C   UNL     1      -2.319  12.487  20.849  0.00  0.00    +0.000 A 
ATOM     13  O   UNL     1      -4.445  13.377  21.295  0.00  0.00    +0.000 OA
ATOM     14  C   UNL     1      -4.952  14.254  22.292  0.00  0.00    +0.000 C 
ATOM     15  C   UNL     1      -5.123  13.591  23.654  0.00  0.00    +0.000 C 
ATOM     16  O   UNL     1      -4.066  12.726  24.078  0.00  0.00    +0.000 OA
ENDBRANCH   5   7
BRANCH   1  19
ATOM     17  C   UNL     1       2.168   8.380  18.260  0.00  0.00    +0.000 C 
ATOM     18  O   UNL     1       2.504   8.649  17.115  0.00  0.00    +0.000 OA
ATOM     19  N   UNL     1       1.447   9.245  19.048  0.00  0.00    +0.000 N 
ATOM     20  H   UNL     1       1.420   9.084  20.049  0.00  0.00    +0.000 HD
BRANCH  17  21
ATOM     21  C   UNL     1       2.471   7.032  18.901  0.00  0.00    +0.000 C 
BRANCH  21  25
ATOM     22  C   UNL     1       4.897   4.295  16.582  0.00  0.00    +0.000 A 
ATOM     23  C   UNL     1       5.344   5.583  16.876  0.00  0.00    +0.000 A 
ATOM     24  C   UNL     1       4.551   6.456  17.623  0.00  0.00    +0.000 A 
ATOM     25  C   UNL     1       3.279   6.066  18.068  0.00  0.00    +0.000 A 
ATOM     26  C   UNL     1       2.847   4.763  17.788  0.00  0.00    +0.000 A 
ATOM     27  C   UNL     1       3.646   3.887  17.042  0.00  0.00    +0.000 A 
BRANCH  22  29
ATOM     28  C   UNL     1       6.409   4.234  14.762  0.00  0.00    +0.000 C 
ATOM     29  O   UNL     1       5.754   3.549  15.821  0.00  0.00    +0.000 OA
ENDBRANCH  22  29
ENDBRANCH  21  25
ENDBRANCH  17  21
ENDBRANCH   1  19
TORSDOF 5
ENDMDL
MODEL 9
REMARK VINA RESULT:      -7.7      1.945      8.873
REMARK  Name = 
REMARK  6 active torsions:
REMARK  status: ('A' for Active; 'I' for Inactive)
REMARK    1  A    between atoms: C_1  and  O_2
REMARK    2  A    between atoms: O_2  and  C_3
REMARK    3  A    between atoms: C_6  and  C_7
REMARK    4  A    between atoms: C_7  and  C_8
REMARK    5  A    between atoms: N_10  and  C_11
REMARK    6  A    between atoms: N_15  and  C_16
REMARK                            x       y       z     vdW  Elec       q    Type
REMARK                         _______ _______ _______ _____ _____    ______ ____
ROOT
ATOM      1  C   UNL     1       2.145   5.095  19.579  0.00  0.00    +0.000 C 
ATOM      2  C   UNL     1       2.970   3.948  20.174  0.00  0.00    +0.000 C 
ATOM      3  C   UNL     1       4.253   3.978  19.373  0.00  0.00    +0.000 C 
ATOM      4  O   UNL     1       5.261   3.358  19.675  0.00  0.00    +0.000 OA
ATOM      5  N   UNL     1       4.054   4.821  18.280  0.00  0.00    +0.000 N 
ATOM      6  C   UNL     1       2.661   5.179  18.152  0.00  0.00    +0.000 C 
ENDROOT
BRANCH   5   7
ATOM      7  C   UNL     1       4.964   5.037  17.227  0.00  0.00    +0.000 A 
ATOM      8  C   UNL     1       6.122   5.802  17.398  0.00  0.00    +0.000 A 
ATOM      9  C   UNL     1       7.055   5.905  16.360  0.00  0.00    +0.000 A 
ATOM     10  C   UNL     1       6.805   5.297  15.132  0.00  0.00    +0.000 A 
ATOM     11  C   UNL     1       5.595   4.643  14.928  0.00  0.00    +0.000 A 
ATOM     12  C   UNL     1       4.698   4.474  15.976  0.00  0.00    +0.000 A 
ATOM     13  O   UNL     1       5.212   4.168  13.706  0.00  0.00    +0.000 OA
ATOM     14  C   UNL     1       6.352   3.673  13.017  0.00  0.00    +0.000 C 
ATOM     15  C   UNL     1       7.515   4.659  12.980  0.00  0.00    +0.000 C 
ATOM     16  O   UNL     1       7.790   5.365  14.193  0.00  0.00    +0.000 OA
ENDBRANCH   5   7
BRANCH   1  19
ATOM     17  C   UNL     1       1.266   7.024  20.848  0.00  0.00    +0.000 C 
ATOM     18  O   UNL     1       0.135   6.559  20.875  0.00  0.00    +0.000 OA
ATOM     19  N   UNL     1       2.330   6.364  20.279  0.00  0.00    +0.000 N 
ATOM     20  H   UNL     1       3.270   6.667  20.508  0.00  0.00    +0.000 HD
BRANCH  17  21
ATOM     21  C   UNL     1       1.592   8.408  21.395  0.00  0.00    +0.000 C 
BRANCH  21  25
ATOM     22  C   UNL     1      -0.390  11.812  19.597  0.00  0.00    +0.000 A 
ATOM     23  C   UNL     1      -0.324  11.665  20.982  0.00  0.00    +0.000 A 
ATOM     24  C   UNL     1       0.315  10.562  21.549  0.00  0.00    +0.000 A 
ATOM     25  C   UNL     1       0.880   9.566  20.738  0.00  0.00    +0.000 A 
ATOM     26  C   UNL     1       0.830   9.733  19.348  0.00  0.00    +0.000 A 
ATOM     27  C   UNL     1       0.191  10.844  18.781  0.00  0.00    +0.000 A 
BRANCH  22  29
ATOM     28  C   UNL     1      -0.270  13.988  18.671  0.00  0.00    +0.000 C 
ATOM     29  O   UNL     1      -1.067  12.921  19.168  0.00  0.00    +0.000 OA
ENDBRANCH  22  29
ENDBRANCH  21  25
ENDBRANCH  17  21
ENDBRANCH   1  19
TORSDOF 5
ENDMDL
