MODEL 1
REMARK VINA RESULT:      -7.3      0.000      0.000
REMARK  Name = 
REMARK  7 active torsions:
REMARK  status: ('A' for Active; 'I' for Inactive)
REMARK    1  A    between atoms: C_1  and  O_2
REMARK    2  A    between atoms: O_2  and  C_3
REMARK    3  A    between atoms: C_6  and  N_7
REMARK    4  A    between atoms: N_7  and  C_8
REMARK    5  A    between atoms: C_12  and  C_13
REMARK    6  A    between atoms: C_14  and  C_15
REMARK    7  A    between atoms: C_18  and  C_19
REMARK                            x       y       z     vdW  Elec       q    Type
REMARK                         _______ _______ _______ _____ _____    ______ ____
ROOT
ATOM      1  C   UNL     1       3.009   5.467  19.157  0.00  0.00    +0.000 A 
ATOM      2  C   UNL     1       2.917   6.690  18.472  0.00  0.00    +0.000 A 
ATOM      3  C   UNL     1       2.162   7.746  19.016  0.00  0.00    +0.000 A 
ATOM      4  S   UNL     1       1.977   9.319  18.359  0.00  0.00    +0.000 S 
ATOM      5  C   UNL     1       1.036   9.850  19.680  0.00  0.00    +0.000 A 
ATOM      6  C   UNL     1       0.629  11.286  19.745  0.00  0.00    +0.000 C 
ATOM      7  C   UNL     1       0.743   8.819  20.557  0.00  0.00    +0.000 A 
ATOM      8  C   UNL     1      -0.151   8.927  21.753  0.00  0.00    +0.000 C 
ATOM      9  C   UNL     1       1.465   7.608  20.214  0.00  0.00    +0.000 A 
ATOM     10  C   UNL     1       1.570   6.369  20.896  0.00  0.00    +0.000 A 
ATOM     11  C   UNL     1       2.373   5.324  20.398  0.00  0.00    +0.000 A 
ATOM     12  C   UNL     1       2.498   4.056  21.198  0.00  0.00    +0.000 C 
ENDROOT
BRANCH   1  13
ATOM     13  N   UNL     1       3.837   4.424  18.666  0.00  0.00    +0.000 N 
ATOM     14  H   UNL     1       4.085   3.803  19.433  0.00  0.00    +0.000 HD
BRANCH  13  18
ATOM     15  C   UNL     1       6.909   4.955  15.806  0.00  0.00    +0.000 A 
ATOM     16  C   UNL     1       5.617   4.621  15.405  0.00  0.00    +0.000 A 
ATOM     17  C   UNL     1       4.606   4.434  16.354  0.00  0.00    +0.000 A 
ATOM     18  C   UNL     1       4.885   4.539  17.722  0.00  0.00    +0.000 A 
ATOM     19  C   UNL     1       6.192   4.852  18.112  0.00  0.00    +0.000 A 
ATOM     20  C   UNL     1       7.202   5.049  17.164  0.00  0.00    +0.000 A 
BRANCH  15  22
ATOM     21  C   UNL     1       7.309   4.896  13.487  0.00  0.00    +0.000 C 
ATOM     22  O   UNL     1       7.814   5.142  14.796  0.00  0.00    +0.000 OA
ENDBRANCH  15  22
ENDBRANCH  13  18
ENDBRANCH   1  13
TORSDOF 3
ENDMDL
MODEL 2
REMARK VINA RESULT:      -7.2      3.638      5.096
REMARK  Name = 
REMARK  7 active torsions:
REMARK  status: ('A' for Active; 'I' for Inactive)
REMARK    1  A    between atoms: C_1  and  O_2
REMARK    2  A    between atoms: O_2  and  C_3
REMARK    3  A    between atoms: C_6  and  N_7
REMARK    4  A    between atoms: N_7  and  C_8
REMARK    5  A    between atoms: C_12  and  C_13
REMARK    6  A    between atoms: C_14  and  C_15
REMARK    7  A    between atoms: C_18  and  C_19
REMARK                            x       y       z     vdW  Elec       q    Type
REMARK                         _______ _______ _______ _____ _____    ______ ____
ROOT
ATOM      1  C   UNL     1       1.529   8.689  20.254  0.00  0.00    +0.000 A 
ATOM      2  C   UNL     1       0.972   8.900  21.526  0.00  0.00    +0.000 A 
ATOM      3  C   UNL     1       0.022   9.922  21.717  0.00  0.00    +0.000 A 
ATOM      4  S   UNL     1      -0.804  10.295  23.172  0.00  0.00    +0.000 S 
ATOM      5  C   UNL     1      -1.729  11.522  22.430  0.00  0.00    +0.000 A 
ATOM      6  C   UNL     1      -2.796  12.201  23.224  0.00  0.00    +0.000 C 
ATOM      7  C   UNL     1      -1.335  11.750  21.122  0.00  0.00    +0.000 A 
ATOM      8  C   UNL     1      -1.868  12.830  20.233  0.00  0.00    +0.000 C 
ATOM      9  C   UNL     1      -0.367  10.764  20.678  0.00  0.00    +0.000 A 
ATOM     10  C   UNL     1       0.201  10.536  19.400  0.00  0.00    +0.000 A 
ATOM     11  C   UNL     1       1.104   9.478  19.177  0.00  0.00    +0.000 A 
ATOM     12  C   UNL     1       1.625   9.244  17.785  0.00  0.00    +0.000 C 
ENDROOT
BRANCH   1  13
ATOM     13  N   UNL     1       2.421   7.608  20.026  0.00  0.00    +0.000 N 
ATOM     14  H   UNL     1       3.226   7.942  19.502  0.00  0.00    +0.000 HD
BRANCH  13  18
ATOM     15  C   UNL     1       1.596   3.586  19.005  0.00  0.00    +0.000 A 
ATOM     16  C   UNL     1       2.064   4.479  18.044  0.00  0.00    +0.000 A 
ATOM     17  C   UNL     1       2.324   5.812  18.382  0.00  0.00    +0.000 A 
ATOM     18  C   UNL     1       2.080   6.279  19.679  0.00  0.00    +0.000 A 
ATOM     19  C   UNL     1       1.589   5.376  20.629  0.00  0.00    +0.000 A 
ATOM     20  C   UNL     1       1.337   4.042  20.296  0.00  0.00    +0.000 A 
BRANCH  15  22
ATOM     21  C   UNL     1       2.593   1.542  18.398  0.00  0.00    +0.000 C 
ATOM     22  O   UNL     1       1.400   2.301  18.577  0.00  0.00    +0.000 OA
ENDBRANCH  15  22
ENDBRANCH  13  18
ENDBRANCH   1  13
TORSDOF 3
ENDMDL
MODEL 3
REMARK VINA RESULT:      -7.1      0.595      1.159
REMARK  Name = 
REMARK  7 active torsions:
REMARK  status: ('A' for Active; 'I' for Inactive)
REMARK    1  A    between atoms: C_1  and  O_2
REMARK    2  A    between atoms: O_2  and  C_3
REMARK    3  A    between atoms: C_6  and  N_7
REMARK    4  A    between atoms: N_7  and  C_8
REMARK    5  A    between atoms: C_12  and  C_13
REMARK    6  A    between atoms: C_14  and  C_15
REMARK    7  A    between atoms: C_18  and  C_19
REMARK                            x       y       z     vdW  Elec       q    Type
REMARK                         _______ _______ _______ _____ _____    ______ ____
ROOT
ATOM      1  C   UNL     1       2.874   5.985  18.888  0.00  0.00    +0.000 A 
ATOM      2  C   UNL     1       2.740   7.211  18.216  0.00  0.00    +0.000 A 
ATOM      3  C   UNL     1       2.012   8.262  18.807  0.00  0.00    +0.000 A 
ATOM      4  S   UNL     1       1.786   9.838  18.169  0.00  0.00    +0.000 S 
ATOM      5  C   UNL     1       0.918  10.359  19.543  0.00  0.00    +0.000 A 
ATOM      6  C   UNL     1       0.511  11.793  19.638  0.00  0.00    +0.000 C 
ATOM      7  C   UNL     1       0.678   9.322  20.430  0.00  0.00    +0.000 A 
ATOM      8  C   UNL     1      -0.147   9.421  21.674  0.00  0.00    +0.000 C 
ATOM      9  C   UNL     1       1.384   8.116  20.041  0.00  0.00    +0.000 A 
ATOM     10  C   UNL     1       1.531   6.874  20.709  0.00  0.00    +0.000 A 
ATOM     11  C   UNL     1       2.309   5.835  20.162  0.00  0.00    +0.000 A 
ATOM     12  C   UNL     1       2.482   4.563  20.947  0.00  0.00    +0.000 C 
ENDROOT
BRANCH   1  13
ATOM     13  N   UNL     1       3.676   4.948  18.346  0.00  0.00    +0.000 N 
ATOM     14  H   UNL     1       3.964   4.321  19.094  0.00  0.00    +0.000 HD
BRANCH  13  18
ATOM     15  C   UNL     1       6.765   5.180  15.465  0.00  0.00    +0.000 A 
ATOM     16  C   UNL     1       6.863   5.877  16.667  0.00  0.00    +0.000 A 
ATOM     17  C   UNL     1       5.835   5.808  17.613  0.00  0.00    +0.000 A 
ATOM     18  C   UNL     1       4.673   5.072  17.350  0.00  0.00    +0.000 A 
ATOM     19  C   UNL     1       4.578   4.394  16.129  0.00  0.00    +0.000 A 
ATOM     20  C   UNL     1       5.609   4.454  15.186  0.00  0.00    +0.000 A 
BRANCH  15  22
ATOM     21  C   UNL     1       7.571   4.949  13.265  0.00  0.00    +0.000 C 
ATOM     22  O   UNL     1       7.838   5.293  14.622  0.00  0.00    +0.000 OA
ENDBRANCH  15  22
ENDBRANCH  13  18
ENDBRANCH   1  13
TORSDOF 3
ENDMDL
MODEL 4
REMARK VINA RESULT:      -7.0      3.684      5.203
REMARK  Name = 
REMARK  7 active torsions:
REMARK  status: ('A' for Active; 'I' for Inactive)
REMARK    1  A    between atoms: C_1  and  O_2
REMARK    2  A    between atoms: O_2  and  C_3
REMARK    3  A    between atoms: C_6  and  N_7
REMARK    4  A    between atoms: N_7  and  C_8
REMARK    5  A    between atoms: C_12  and  C_13
REMARK    6  A    between atoms: C_14  and  C_15
REMARK    7  A    between atoms: C_18  and  C_19
REMARK                            x       y       z     vdW  Elec       q    Type
REMARK                         _______ _______ _______ _____ _____    ______ ____
ROOT
ATOM      1  C   UNL     1       1.604   8.648  20.299  0.00  0.00    +0.000 A 
ATOM      2  C   UNL     1       1.018   8.859  21.558  0.00  0.00    +0.000 A 
ATOM      3  C   UNL     1       0.071   9.886  21.730  0.00  0.00    +0.000 A 
ATOM      4  S   UNL     1      -0.788  10.259  23.167  0.00  0.00    +0.000 S 
ATOM      5  C   UNL     1      -1.686  11.495  22.407  0.00  0.00    +0.000 A 
ATOM      6  C   UNL     1      -2.768  12.179  23.178  0.00  0.00    +0.000 C 
ATOM      7  C   UNL     1      -1.259  11.726  21.110  0.00  0.00    +0.000 A 
ATOM      8  C   UNL     1      -1.763  12.813  20.213  0.00  0.00    +0.000 C 
ATOM      9  C   UNL     1      -0.288  10.735  20.686  0.00  0.00    +0.000 A 
ATOM     10  C   UNL     1       0.310  10.508  19.421  0.00  0.00    +0.000 A 
ATOM     11  C   UNL     1       1.211   9.445  19.215  0.00  0.00    +0.000 A 
ATOM     12  C   UNL     1       1.764   9.213  17.835  0.00  0.00    +0.000 C 
ENDROOT
BRANCH   1  13
ATOM     13  N   UNL     1       2.494   7.562  20.089  0.00  0.00    +0.000 N 
ATOM     14  H   UNL     1       3.346   7.906  19.653  0.00  0.00    +0.000 HD
BRANCH  13  18
ATOM     15  C   UNL     1       1.308   3.730  18.742  0.00  0.00    +0.000 A 
ATOM     16  C   UNL     1       1.177   4.082  20.084  0.00  0.00    +0.000 A 
ATOM     17  C   UNL     1       1.582   5.345  20.529  0.00  0.00    +0.000 A 
ATOM     18  C   UNL     1       2.161   6.261  19.643  0.00  0.00    +0.000 A 
ATOM     19  C   UNL     1       2.307   5.887  18.301  0.00  0.00    +0.000 A 
ATOM     20  C   UNL     1       1.895   4.628  17.853  0.00  0.00    +0.000 A 
BRANCH  15  22
ATOM     21  C   UNL     1       1.744   1.418  18.739  0.00  0.00    +0.000 C 
ATOM     22  O   UNL     1       0.857   2.482  18.408  0.00  0.00    +0.000 OA
ENDBRANCH  15  22
ENDBRANCH  13  18
ENDBRANCH   1  13
TORSDOF 3
ENDMDL
MODEL 5
REMARK VINA RESULT:      -7.0      4.322      7.514
REMARK  Name = 
REMARK  7 active torsions:
REMARK  status: ('A' for Active; 'I' for Inactive)
REMARK    1  A    between atoms: C_1  and  O_2
REMARK    2  A    between atoms: O_2  and  C_3
REMARK    3  A    between atoms: C_6  and  N_7
REMARK    4  A    between atoms: N_7  and  C_8
REMARK    5  A    between atoms: C_12  and  C_13
REMARK    6  A    between atoms: C_14  and  C_15
REMARK    7  A    between atoms: C_18  and  C_19
REMARK                            x       y       z     vdW  Elec       q    Type
REMARK                         _______ _______ _______ _____ _____    ______ ____
ROOT
ATOM      1  C   UNL     1       1.793   8.483  19.279  0.00  0.00    +0.000 A 
ATOM      2  C   UNL     1       2.385   7.573  18.387  0.00  0.00    +0.000 A 
ATOM      3  C   UNL     1       2.554   6.227  18.764  0.00  0.00    +0.000 A 
ATOM      4  S   UNL     1       3.202   4.966  17.800  0.00  0.00    +0.000 S 
ATOM      5  C   UNL     1       2.928   3.791  19.006  0.00  0.00    +0.000 A 
ATOM      6  C   UNL     1       3.208   2.357  18.694  0.00  0.00    +0.000 C 
ATOM      7  C   UNL     1       2.471   4.354  20.187  0.00  0.00    +0.000 A 
ATOM      8  C   UNL     1       2.240   3.614  21.467  0.00  0.00    +0.000 C 
ATOM      9  C   UNL     1       2.177   5.766  20.023  0.00  0.00    +0.000 A 
ATOM     10  C   UNL     1       1.577   6.695  20.910  0.00  0.00    +0.000 A 
ATOM     11  C   UNL     1       1.342   8.029  20.526  0.00  0.00    +0.000 A 
ATOM     12  C   UNL     1       0.644   8.953  21.486  0.00  0.00    +0.000 C 
ENDROOT
BRANCH   1  13
ATOM     13  N   UNL     1       1.536   9.821  18.881  0.00  0.00    +0.000 N 
ATOM     14  H   UNL     1       2.035  10.456  19.500  0.00  0.00    +0.000 HD
BRANCH  13  18
ATOM     15  C   UNL     1      -2.250  11.336  17.753  0.00  0.00    +0.000 A 
ATOM     16  C   UNL     1      -1.832  10.078  17.321  0.00  0.00    +0.000 A 
ATOM     17  C   UNL     1      -0.574   9.585  17.686  0.00  0.00    +0.000 A 
ATOM     18  C   UNL     1       0.300  10.362  18.455  0.00  0.00    +0.000 A 
ATOM     19  C   UNL     1      -0.124  11.633  18.863  0.00  0.00    +0.000 A 
ATOM     20  C   UNL     1      -1.384  12.123  18.507  0.00  0.00    +0.000 A 
BRANCH  15  22
ATOM     21  C   UNL     1      -4.022  10.997  16.241  0.00  0.00    +0.000 C 
ATOM     22  O   UNL     1      -3.507  11.710  17.363  0.00  0.00    +0.000 OA
ENDBRANCH  15  22
ENDBRANCH  13  18
ENDBRANCH   1  13
TORSDOF 3
ENDMDL
MODEL 6
REMARK VINA RESULT:      -6.8      4.264      7.581
REMARK  Name = 
REMARK  7 active torsions:
REMARK  status: ('A' for Active; 'I' for Inactive)
REMARK    1  A    between atoms: C_1  and  O_2
REMARK    2  A    between atoms: O_2  and  C_3
REMARK    3  A    between atoms: C_6  and  N_7
REMARK    4  A    between atoms: N_7  and  C_8
REMARK    5  A    between atoms: C_12  and  C_13
REMARK    6  A    between atoms: C_14  and  C_15
REMARK    7  A    between atoms: C_18  and  C_19
REMARK                            x       y       z     vdW  Elec       q    Type
REMARK                         _______ _______ _______ _____ _____    ______ ____
ROOT
ATOM      1  C   UNL     1       1.864   8.097  19.227  0.00  0.00    +0.000 A 
ATOM      2  C   UNL     1       2.457   7.222  18.302  0.00  0.00    +0.000 A 
ATOM      3  C   UNL     1       2.666   5.872  18.643  0.00  0.00    +0.000 A 
ATOM      4  S   UNL     1       3.321   4.648  17.636  0.00  0.00    +0.000 S 
ATOM      5  C   UNL     1       3.102   3.440  18.821  0.00  0.00    +0.000 A 
ATOM      6  C   UNL     1       3.408   2.021  18.470  0.00  0.00    +0.000 C 
ATOM      7  C   UNL     1       2.660   3.966  20.024  0.00  0.00    +0.000 A 
ATOM      8  C   UNL     1       2.475   3.192  21.292  0.00  0.00    +0.000 C 
ATOM      9  C   UNL     1       2.328   5.373  19.900  0.00  0.00    +0.000 A 
ATOM     10  C   UNL     1       1.728   6.268  20.821  0.00  0.00    +0.000 A 
ATOM     11  C   UNL     1       1.453   7.604  20.473  0.00  0.00    +0.000 A 
ATOM     12  C   UNL     1       0.756   8.489  21.470  0.00  0.00    +0.000 C 
ENDROOT
BRANCH   1  13
ATOM     13  N   UNL     1       1.567   9.437  18.866  0.00  0.00    +0.000 N 
ATOM     14  H   UNL     1       2.133  10.069  19.428  0.00  0.00    +0.000 HD
BRANCH  13  18
ATOM     15  C   UNL     1      -2.155  11.205  17.907  0.00  0.00    +0.000 A 
ATOM     16  C   UNL     1      -1.363  11.729  18.927  0.00  0.00    +0.000 A 
ATOM     17  C   UNL     1      -0.138  11.134  19.250  0.00  0.00    +0.000 A 
ATOM     18  C   UNL     1       0.292   9.982  18.583  0.00  0.00    +0.000 A 
ATOM     19  C   UNL     1      -0.523   9.453  17.575  0.00  0.00    +0.000 A 
ATOM     20  C   UNL     1      -1.743  10.051  17.244  0.00  0.00    +0.000 A 
BRANCH  15  22
ATOM     21  C   UNL     1      -4.177  11.252  16.703  0.00  0.00    +0.000 C 
ATOM     22  O   UNL     1      -3.319  11.878  17.653  0.00  0.00    +0.000 OA
ENDBRANCH  15  22
ENDBRANCH  13  18
ENDBRANCH   1  13
TORSDOF 3
ENDMDL
MODEL 7
REMARK VINA RESULT:      -6.7      4.144      7.907
REMARK  Name = 
REMARK  7 active torsions:
REMARK  status: ('A' for Active; 'I' for Inactive)
REMARK    1  A    between atoms: C_1  and  O_2
REMARK    2  A    between atoms: O_2  and  C_3
REMARK    3  A    between atoms: C_6  and  N_7
REMARK    4  A    between atoms: N_7  and  C_8
REMARK    5  A    between atoms: C_12  and  C_13
REMARK    6  A    between atoms: C_14  and  C_15
REMARK    7  A    between atoms: C_18  and  C_19
REMARK                            x       y       z     vdW  Elec       q    Type
REMARK                         _______ _______ _______ _____ _____    ______ ____
ROOT
ATOM      1  C   UNL     1       1.331   8.949  19.456  0.00  0.00    +0.000 A 
ATOM      2  C   UNL     1       2.137   8.256  18.538  0.00  0.00    +0.000 A 
ATOM      3  C   UNL     1       2.555   6.942  18.821  0.00  0.00    +0.000 A 
ATOM      4  S   UNL     1       3.490   5.923  17.808  0.00  0.00    +0.000 S 
ATOM      5  C   UNL     1       3.400   4.614  18.900  0.00  0.00    +0.000 A 
ATOM      6  C   UNL     1       3.978   3.298  18.498  0.00  0.00    +0.000 C 
ATOM      7  C   UNL     1       2.782   4.971  20.087  0.00  0.00    +0.000 A 
ATOM      8  C   UNL     1       2.643   4.090  21.289  0.00  0.00    +0.000 C 
ATOM      9  C   UNL     1       2.217   6.306  20.013  0.00  0.00    +0.000 A 
ATOM     10  C   UNL     1       1.400   7.017  20.928  0.00  0.00    +0.000 A 
ATOM     11  C   UNL     1       0.920   8.307  20.632  0.00  0.00    +0.000 A 
ATOM     12  C   UNL     1       0.004   8.987  21.613  0.00  0.00    +0.000 C 
ENDROOT
BRANCH   1  13
ATOM     13  N   UNL     1       0.829  10.240  19.146  0.00  0.00    +0.000 N 
ATOM     14  H   UNL     1       1.137  10.899  19.857  0.00  0.00    +0.000 HD
BRANCH  13  18
ATOM     15  C   UNL     1      -2.936  11.336  17.558  0.00  0.00    +0.000 A 
ATOM     16  C   UNL     1      -2.366  12.066  18.599  0.00  0.00    +0.000 A 
ATOM     17  C   UNL     1      -1.126  11.694  19.130  0.00  0.00    +0.000 A 
ATOM     18  C   UNL     1      -0.458  10.560  18.654  0.00  0.00    +0.000 A 
ATOM     19  C   UNL     1      -1.053   9.822  17.623  0.00  0.00    +0.000 A 
ATOM     20  C   UNL     1      -2.288  10.198  17.085  0.00  0.00    +0.000 A 
BRANCH  15  22
ATOM     21  C   UNL     1      -5.282  11.203  17.695  0.00  0.00    +0.000 C 
ATOM     22  O   UNL     1      -4.137  11.801  17.094  0.00  0.00    +0.000 OA
ENDBRANCH  15  22
ENDBRANCH  13  18
ENDBRANCH   1  13
TORSDOF 3
ENDMDL
MODEL 8
REMARK VINA RESULT:      -6.5      2.946      4.526
REMARK  Name = 
REMARK  7 active torsions:
REMARK  status: ('A' for Active; 'I' for Inactive)
REMARK    1  A    between atoms: C_1  and  O_2
REMARK    2  A    between atoms: O_2  and  C_3
REMARK    3  A    between atoms: C_6  and  N_7
REMARK    4  A    between atoms: N_7  and  C_8
REMARK    5  A    between atoms: C_12  and  C_13
REMARK    6  A    between atoms: C_14  and  C_15
REMARK    7  A    between atoms: C_18  and  C_19
REMARK                            x       y       z     vdW  Elec       q    Type
REMARK                         _______ _______ _______ _____ _____    ______ ____
ROOT
ATOM      1  C   UNL     1       5.561   5.245  17.599  0.00  0.00    +0.000 A 
ATOM      2  C   UNL     1       5.425   4.091  18.388  0.00  0.00    +0.000 A 
ATOM      3  C   UNL     1       4.339   3.968  19.276  0.00  0.00    +0.000 A 
ATOM      4  S   UNL     1       3.976   2.622  20.274  0.00  0.00    +0.000 S 
ATOM      5  C   UNL     1       2.540   3.336  20.856  0.00  0.00    +0.000 A 
ATOM      6  C   UNL     1       1.650   2.539  21.753  0.00  0.00    +0.000 C 
ATOM      7  C   UNL     1       2.388   4.638  20.410  0.00  0.00    +0.000 A 
ATOM      8  C   UNL     1       1.297   5.575  20.824  0.00  0.00    +0.000 C 
ATOM      9  C   UNL     1       3.395   4.983  19.423  0.00  0.00    +0.000 A 
ATOM     10  C   UNL     1       3.544   6.140  18.618  0.00  0.00    +0.000 A 
ATOM     11  C   UNL     1       4.588   6.251  17.679  0.00  0.00    +0.000 A 
ATOM     12  C   UNL     1       4.658   7.474  16.806  0.00  0.00    +0.000 C 
ENDROOT
BRANCH   1  13
ATOM     13  N   UNL     1       6.600   5.344  16.638  0.00  0.00    +0.000 N 
ATOM     14  H   UNL     1       6.986   6.285  16.658  0.00  0.00    +0.000 HD
BRANCH  13  18
ATOM     15  C   UNL     1       6.487   3.840  12.685  0.00  0.00    +0.000 A 
ATOM     16  C   UNL     1       5.563   3.408  13.634  0.00  0.00    +0.000 A 
ATOM     17  C   UNL     1       5.611   3.899  14.944  0.00  0.00    +0.000 A 
ATOM     18  C   UNL     1       6.611   4.798  15.333  0.00  0.00    +0.000 A 
ATOM     19  C   UNL     1       7.547   5.206  14.374  0.00  0.00    +0.000 A 
ATOM     20  C   UNL     1       7.495   4.725  13.063  0.00  0.00    +0.000 A 
BRANCH  15  22
ATOM     21  C   UNL     1       5.768   2.013  11.387  0.00  0.00    +0.000 C 
ATOM     22  O   UNL     1       6.335   3.320  11.428  0.00  0.00    +0.000 OA
ENDBRANCH  15  22
ENDBRANCH  13  18
ENDBRANCH   1  13
TORSDOF 3
ENDMDL
MODEL 9
REMARK VINA RESULT:      -6.5      4.322      6.944
REMARK  Name = 
REMARK  7 active torsions:
REMARK  status: ('A' for Active; 'I' for Inactive)
REMARK    1  A    between atoms: C_1  and  O_2
REMARK    2  A    between atoms: O_2  and  C_3
REMARK    3  A    between atoms: C_6  and  N_7
REMARK    4  A    between atoms: N_7  and  C_8
REMARK    5  A    between atoms: C_12  and  C_13
REMARK    6  A    between atoms: C_14  and  C_15
REMARK    7  A    between atoms: C_18  and  C_19
REMARK                            x       y       z     vdW  Elec       q    Type
REMARK                         _______ _______ _______ _____ _____    ______ ____
ROOT
ATOM      1  C   UNL     1      -0.804  11.223  18.763  0.00  0.00    +0.000 A 
ATOM      2  C   UNL     1      -1.810  10.928  17.828  0.00  0.00    +0.000 A 
ATOM      3  C   UNL     1      -3.124  11.389  18.038  0.00  0.00    +0.000 A 
ATOM      4  S   UNL     1      -4.464  11.179  16.991  0.00  0.00    +0.000 S 
ATOM      5  C   UNL     1      -5.498  12.095  17.994  0.00  0.00    +0.000 A 
ATOM      6  C   UNL     1      -6.886  12.385  17.526  0.00  0.00    +0.000 C 
ATOM      7  C   UNL     1      -4.883  12.454  19.183  0.00  0.00    +0.000 A 
ATOM      8  C   UNL     1      -5.548  13.163  20.321  0.00  0.00    +0.000 C 
ATOM      9  C   UNL     1      -3.473  12.112  19.177  0.00  0.00    +0.000 A 
ATOM     10  C   UNL     1      -2.446  12.404  20.110  0.00  0.00    +0.000 A 
ATOM     11  C   UNL     1      -1.115  12.006  19.883  0.00  0.00    +0.000 A 
ATOM     12  C   UNL     1      -0.056  12.401  20.877  0.00  0.00    +0.000 C 
ENDROOT
BRANCH   1  13
ATOM     13  N   UNL     1       0.542  10.841  18.522  0.00  0.00    +0.000 N 
ATOM     14  H   UNL     1       0.843  11.222  17.628  0.00  0.00    +0.000 HD
BRANCH  13  18
ATOM     15  C   UNL     1       2.484   7.170  19.328  0.00  0.00    +0.000 A 
ATOM     16  C   UNL     1       2.516   7.723  18.049  0.00  0.00    +0.000 A 
ATOM     17  C   UNL     1       1.863   8.932  17.783  0.00  0.00    +0.000 A 
ATOM     18  C   UNL     1       1.132   9.583  18.784  0.00  0.00    +0.000 A 
ATOM     19  C   UNL     1       1.089   9.004  20.058  0.00  0.00    +0.000 A 
ATOM     20  C   UNL     1       1.749   7.801  20.329  0.00  0.00    +0.000 A 
BRANCH  15  22
ATOM     21  C   UNL     1       2.539   5.035  20.318  0.00  0.00    +0.000 C 
ATOM     22  O   UNL     1       3.178   6.001  19.487  0.00  0.00    +0.000 OA
ENDBRANCH  15  22
ENDBRANCH  13  18
ENDBRANCH   1  13
TORSDOF 3
ENDMDL
