MODEL 1
REMARK VINA RESULT:      -7.0      0.000      0.000
REMARK  Name = 
REMARK  10 active torsions:
REMARK  status: ('A' for Active; 'I' for Inactive)
REMARK    1  A    between atoms: C_1  and  O_2
REMARK    2  A    between atoms: O_2  and  C_3
REMARK    3  A    between atoms: C_3  and  C_4
REMARK    4  A    between atoms: C_4  and  N_5
REMARK    5  A    between atoms: C_6  and  C_8
REMARK    6  A    between atoms: C_8  and  C_9
REMARK    7  A    between atoms: C_9  and  C_10
REMARK    8  A    between atoms: C_10  and  C_11
REMARK    9  A    between atoms: C_11  and  C_12
REMARK   10  A    between atoms: C_12  and  N_13
REMARK                            x       y       z     vdW  Elec       q    Type
REMARK                         _______ _______ _______ _____ _____    ______ ____
ROOT
ATOM      1  C   UNL     1       5.680   6.938  16.968  0.00  0.00    +0.000 C 
ENDROOT
BRANCH   1   2
ATOM      2  N   UNL     1       4.934   5.683  17.129  0.00  0.00    +0.000 N 
ATOM      3  C   UNL     1       5.393   4.477  16.599  0.00  0.00    +0.000 A 
ATOM      4  S   UNL     1       6.750   4.231  15.641  0.00  0.00    +0.000 S 
ATOM      5  N   UNL     1       4.668   3.357  16.896  0.00  0.00    +0.000 N 
ATOM      6  C   UNL     1       3.524   3.353  17.686  0.00  0.00    +0.000 A 
ATOM      7  C   UNL     1       2.890   2.151  17.994  0.00  0.00    +0.000 A 
ATOM      8  C   UNL     1       1.749   2.157  18.796  0.00  0.00    +0.000 A 
ATOM      9  C   UNL     1       1.234   3.363  19.275  0.00  0.00    +0.000 A 
ATOM     10  C   UNL     1       1.867   4.564  18.960  0.00  0.00    +0.000 A 
ATOM     11  C   UNL     1       3.020   4.552  18.169  0.00  0.00    +0.000 A 
ATOM     12  C   UNL     1       3.737   5.799  17.853  0.00  0.00    +0.000 A 
ATOM     13  O   UNL     1       3.268   6.866  18.241  0.00  0.00    +0.000 OA
ATOM     14  H   UNL     1       5.026   2.480  16.529  0.00  0.00    +0.000 HD
ENDBRANCH   1   2
BRANCH   1  15
ATOM     15  C   UNL     1       6.936   6.994  17.846  0.00  0.00    +0.000 C 
BRANCH  15  16
ATOM     16  C   UNL     1       7.929   8.072  17.396  0.00  0.00    +0.000 C 
BRANCH  16  17
ATOM     17  C   UNL     1       8.485   8.954  18.519  0.00  0.00    +0.000 C 
BRANCH  17  18
ATOM     18  C   UNL     1       8.721  10.397  18.080  0.00  0.00    +0.000 C 
BRANCH  18  20
ATOM     19  N   UNL     1      10.792  11.612  17.962  0.00  0.00    +0.000 N 
ATOM     20  C   UNL     1       9.879  11.037  18.816  0.00  0.00    +0.000 C 
ATOM     21  O   UNL     1       9.997  11.039  20.034  0.00  0.00    +0.000 OA
ATOM     22  H   UNL     1      10.532  11.767  16.996  0.00  0.00    +0.000 HD
BRANCH  19  23
ATOM     23  C   UNL     1      11.909  12.374  18.485  0.00  0.00    +0.000 C 
BRANCH  23  24
ATOM     24  C   UNL     1      11.608  13.869  18.529  0.00  0.00    +0.000 C 
BRANCH  24  26
ATOM     25  C   UNL     1      11.186  15.542  16.917  0.00  0.00    +0.000 C 
ATOM     26  O   UNL     1      10.871  14.227  17.354  0.00  0.00    +0.000 OA
ENDBRANCH  24  26
ENDBRANCH  23  24
ENDBRANCH  19  23
ENDBRANCH  18  20
ENDBRANCH  17  18
ENDBRANCH  16  17
ENDBRANCH  15  16
ENDBRANCH   1  15
TORSDOF 9
ENDMDL
MODEL 2
REMARK VINA RESULT:      -7.0      5.306      7.771
REMARK  Name = 
REMARK  10 active torsions:
REMARK  status: ('A' for Active; 'I' for Inactive)
REMARK    1  A    between atoms: C_1  and  O_2
REMARK    2  A    between atoms: O_2  and  C_3
REMARK    3  A    between atoms: C_3  and  C_4
REMARK    4  A    between atoms: C_4  and  N_5
REMARK    5  A    between atoms: C_6  and  C_8
REMARK    6  A    between atoms: C_8  and  C_9
REMARK    7  A    between atoms: C_9  and  C_10
REMARK    8  A    between atoms: C_10  and  C_11
REMARK    9  A    between atoms: C_11  and  C_12
REMARK   10  A    between atoms: C_12  and  N_13
REMARK                            x       y       z     vdW  Elec       q    Type
REMARK                         _______ _______ _______ _____ _____    ______ ____
ROOT
ATOM      1  C   UNL     1       2.501   1.850  18.313  0.00  0.00    +0.000 C 
ENDROOT
BRANCH   1   2
ATOM      2  N   UNL     1       3.622   2.798  18.360  0.00  0.00    +0.000 N 
ATOM      3  C   UNL     1       4.564   2.778  19.390  0.00  0.00    +0.000 A 
ATOM      4  S   UNL     1       4.564   1.804  20.757  0.00  0.00    +0.000 S 
ATOM      5  N   UNL     1       5.619   3.640  19.278  0.00  0.00    +0.000 N 
ATOM      6  C   UNL     1       5.803   4.514  18.212  0.00  0.00    +0.000 A 
ATOM      7  C   UNL     1       6.948   5.307  18.148  0.00  0.00    +0.000 A 
ATOM      8  C   UNL     1       7.129   6.173  17.070  0.00  0.00    +0.000 A 
ATOM      9  C   UNL     1       6.161   6.258  16.068  0.00  0.00    +0.000 A 
ATOM     10  C   UNL     1       5.014   5.469  16.138  0.00  0.00    +0.000 A 
ATOM     11  C   UNL     1       4.844   4.590  17.212  0.00  0.00    +0.000 A 
ATOM     12  C   UNL     1       3.666   3.711  17.296  0.00  0.00    +0.000 A 
ATOM     13  O   UNL     1       2.793   3.809  16.436  0.00  0.00    +0.000 OA
ATOM     14  H   UNL     1       6.313   3.598  20.017  0.00  0.00    +0.000 HD
ENDBRANCH   1   2
BRANCH   1  15
ATOM     15  C   UNL     1       1.169   2.492  18.718  0.00  0.00    +0.000 C 
BRANCH  15  16
ATOM     16  C   UNL     1       1.100   2.829  20.213  0.00  0.00    +0.000 C 
BRANCH  16  17
ATOM     17  C   UNL     1       0.851   4.305  20.536  0.00  0.00    +0.000 C 
BRANCH  17  18
ATOM     18  C   UNL     1       2.133   5.066  20.866  0.00  0.00    +0.000 C 
BRANCH  18  20
ATOM     19  N   UNL     1       1.486   7.379  20.766  0.00  0.00    +0.000 N 
ATOM     20  C   UNL     1       2.215   6.393  20.142  0.00  0.00    +0.000 C 
ATOM     21  O   UNL     1       2.851   6.571  19.111  0.00  0.00    +0.000 OA
ATOM     22  H   UNL     1       1.168   7.228  21.716  0.00  0.00    +0.000 HD
BRANCH  19  23
ATOM     23  C   UNL     1       1.536   8.745  20.285  0.00  0.00    +0.000 C 
BRANCH  23  24
ATOM     24  C   UNL     1       0.731   9.691  21.171  0.00  0.00    +0.000 C 
BRANCH  24  26
ATOM     25  C   UNL     1       0.004   9.578  23.415  0.00  0.00    +0.000 C 
ATOM     26  O   UNL     1       1.117   9.487  22.536  0.00  0.00    +0.000 OA
ENDBRANCH  24  26
ENDBRANCH  23  24
ENDBRANCH  19  23
ENDBRANCH  18  20
ENDBRANCH  17  18
ENDBRANCH  16  17
ENDBRANCH  15  16
ENDBRANCH   1  15
TORSDOF 9
ENDMDL
MODEL 3
REMARK VINA RESULT:      -6.8      1.252      1.290
REMARK  Name = 
REMARK  10 active torsions:
REMARK  status: ('A' for Active; 'I' for Inactive)
REMARK    1  A    between atoms: C_1  and  O_2
REMARK    2  A    between atoms: O_2  and  C_3
REMARK    3  A    between atoms: C_3  and  C_4
REMARK    4  A    between atoms: C_4  and  N_5
REMARK    5  A    between atoms: C_6  and  C_8
REMARK    6  A    between atoms: C_8  and  C_9
REMARK    7  A    between atoms: C_9  and  C_10
REMARK    8  A    between atoms: C_10  and  C_11
REMARK    9  A    between atoms: C_11  and  C_12
REMARK   10  A    between atoms: C_12  and  N_13
REMARK                            x       y       z     vdW  Elec       q    Type
REMARK                         _______ _______ _______ _____ _____    ______ ____
ROOT
ATOM      1  C   UNL     1       5.537   6.824  17.077  0.00  0.00    +0.000 C 
ENDROOT
BRANCH   1   2
ATOM      2  N   UNL     1       4.753   5.592  17.232  0.00  0.00    +0.000 N 
ATOM      3  C   UNL     1       5.147   4.388  16.647  0.00  0.00    +0.000 A 
ATOM      4  S   UNL     1       6.454   4.125  15.627  0.00  0.00    +0.000 S 
ATOM      5  N   UNL     1       4.395   3.284  16.941  0.00  0.00    +0.000 N 
ATOM      6  C   UNL     1       3.285   3.296  17.777  0.00  0.00    +0.000 A 
ATOM      7  C   UNL     1       2.621   2.107  18.076  0.00  0.00    +0.000 A 
ATOM      8  C   UNL     1       1.515   2.128  18.925  0.00  0.00    +0.000 A 
ATOM      9  C   UNL     1       1.063   3.335  19.461  0.00  0.00    +0.000 A 
ATOM     10  C   UNL     1       1.725   4.523  19.155  0.00  0.00    +0.000 A 
ATOM     11  C   UNL     1       2.844   4.496  18.317  0.00  0.00    +0.000 A 
ATOM     12  C   UNL     1       3.592   5.726  18.008  0.00  0.00    +0.000 A 
ATOM     13  O   UNL     1       3.177   6.797  18.446  0.00  0.00    +0.000 OA
ATOM     14  H   UNL     1       4.706   2.408  16.534  0.00  0.00    +0.000 HD
ENDBRANCH   1   2
BRANCH   1  15
ATOM     15  C   UNL     1       6.775   6.854  17.980  0.00  0.00    +0.000 C 
BRANCH  15  16
ATOM     16  C   UNL     1       7.913   7.706  17.404  0.00  0.00    +0.000 C 
BRANCH  16  17
ATOM     17  C   UNL     1       7.901   9.178  17.825  0.00  0.00    +0.000 C 
BRANCH  17  18
ATOM     18  C   UNL     1       8.947   9.501  18.889  0.00  0.00    +0.000 C 
BRANCH  18  20
ATOM     19  N   UNL     1       9.283  11.700  19.801  0.00  0.00    +0.000 N 
ATOM     20  C   UNL     1       9.529  10.888  18.717  0.00  0.00    +0.000 C 
ATOM     21  O   UNL     1      10.143  11.254  17.724  0.00  0.00    +0.000 OA
ATOM     22  H   UNL     1       8.968  11.280  20.668  0.00  0.00    +0.000 HD
BRANCH  19  23
ATOM     23  C   UNL     1       9.861  13.027  19.871  0.00  0.00    +0.000 C 
BRANCH  23  24
ATOM     24  C   UNL     1       8.875  14.102  19.424  0.00  0.00    +0.000 C 
BRANCH  24  26
ATOM     25  C   UNL     1       8.728  15.911  17.914  0.00  0.00    +0.000 C 
ATOM     26  O   UNL     1       9.317  14.644  18.174  0.00  0.00    +0.000 OA
ENDBRANCH  24  26
ENDBRANCH  23  24
ENDBRANCH  19  23
ENDBRANCH  18  20
ENDBRANCH  17  18
ENDBRANCH  16  17
ENDBRANCH  15  16
ENDBRANCH   1  15
TORSDOF 9
ENDMDL
MODEL 4
REMARK VINA RESULT:      -6.8      5.562      7.893
REMARK  Name = 
REMARK  10 active torsions:
REMARK  status: ('A' for Active; 'I' for Inactive)
REMARK    1  A    between atoms: C_1  and  O_2
REMARK    2  A    between atoms: O_2  and  C_3
REMARK    3  A    between atoms: C_3  and  C_4
REMARK    4  A    between atoms: C_4  and  N_5
REMARK    5  A    between atoms: C_6  and  C_8
REMARK    6  A    between atoms: C_8  and  C_9
REMARK    7  A    between atoms: C_9  and  C_10
REMARK    8  A    between atoms: C_10  and  C_11
REMARK    9  A    between atoms: C_11  and  C_12
REMARK   10  A    between atoms: C_12  and  N_13
REMARK                            x       y       z     vdW  Elec       q    Type
REMARK                         _______ _______ _______ _____ _____    ______ ____
ROOT
ATOM      1  C   UNL     1       3.245   4.860  20.271  0.00  0.00    +0.000 C 
ENDROOT
BRANCH   1   2
ATOM      2  N   UNL     1       3.806   4.487  18.966  0.00  0.00    +0.000 N 
ATOM      3  C   UNL     1       3.082   3.738  18.037  0.00  0.00    +0.000 A 
ATOM      4  S   UNL     1       1.560   3.060  18.234  0.00  0.00    +0.000 S 
ATOM      5  N   UNL     1       3.667   3.536  16.818  0.00  0.00    +0.000 N 
ATOM      6  C   UNL     1       4.916   4.029  16.459  0.00  0.00    +0.000 A 
ATOM      7  C   UNL     1       5.402   3.832  15.167  0.00  0.00    +0.000 A 
ATOM      8  C   UNL     1       6.650   4.341  14.814  0.00  0.00    +0.000 A 
ATOM      9  C   UNL     1       7.420   5.030  15.753  0.00  0.00    +0.000 A 
ATOM     10  C   UNL     1       6.934   5.220  17.046  0.00  0.00    +0.000 A 
ATOM     11  C   UNL     1       5.674   4.723  17.392  0.00  0.00    +0.000 A 
ATOM     12  C   UNL     1       5.113   4.943  18.735  0.00  0.00    +0.000 A 
ATOM     13  O   UNL     1       5.801   5.516  19.577  0.00  0.00    +0.000 OA
ATOM     14  H   UNL     1       3.121   3.014  16.140  0.00  0.00    +0.000 HD
ENDBRANCH   1   2
BRANCH   1  15
ATOM     15  C   UNL     1       2.046   5.806  20.149  0.00  0.00    +0.000 C 
BRANCH  15  16
ATOM     16  C   UNL     1       2.440   7.210  19.673  0.00  0.00    +0.000 C 
BRANCH  16  17
ATOM     17  C   UNL     1       2.091   7.525  18.216  0.00  0.00    +0.000 C 
BRANCH  17  18
ATOM     18  C   UNL     1       2.150   9.018  17.899  0.00  0.00    +0.000 C 
BRANCH  18  20
ATOM     19  N   UNL     1      -0.070   9.924  17.733  0.00  0.00    +0.000 N 
ATOM     20  C   UNL     1       1.024   9.788  18.556  0.00  0.00    +0.000 C 
ATOM     21  O   UNL     1       1.079  10.246  19.690  0.00  0.00    +0.000 OA
ATOM     22  H   UNL     1      -0.138   9.344  16.905  0.00  0.00    +0.000 HD
BRANCH  19  23
ATOM     23  C   UNL     1      -1.290  10.530  18.227  0.00  0.00    +0.000 C 
BRANCH  23  24
ATOM     24  C   UNL     1      -2.523  10.011  17.493  0.00  0.00    +0.000 C 
BRANCH  24  26
ATOM     25  C   UNL     1      -3.247  10.830  15.400  0.00  0.00    +0.000 C 
ATOM     26  O   UNL     1      -2.273  10.053  16.083  0.00  0.00    +0.000 OA
ENDBRANCH  24  26
ENDBRANCH  23  24
ENDBRANCH  19  23
ENDBRANCH  18  20
ENDBRANCH  17  18
ENDBRANCH  16  17
ENDBRANCH  15  16
ENDBRANCH   1  15
TORSDOF 9
ENDMDL
MODEL 5
REMARK VINA RESULT:      -6.8      5.436      7.874
REMARK  Name = 
REMARK  10 active torsions:
REMARK  status: ('A' for Active; 'I' for Inactive)
REMARK    1  A    between atoms: C_1  and  O_2
REMARK    2  A    between atoms: O_2  and  C_3
REMARK    3  A    between atoms: C_3  and  C_4
REMARK    4  A    between atoms: C_4  and  N_5
REMARK    5  A    between atoms: C_6  and  C_8
REMARK    6  A    between atoms: C_8  and  C_9
REMARK    7  A    between atoms: C_9  and  C_10
REMARK    8  A    between atoms: C_10  and  C_11
REMARK    9  A    between atoms: C_11  and  C_12
REMARK   10  A    between atoms: C_12  and  N_13
REMARK                            x       y       z     vdW  Elec       q    Type
REMARK                         _______ _______ _______ _____ _____    ______ ____
ROOT
ATOM      1  C   UNL     1       3.829   5.517  18.004  0.00  0.00    +0.000 C 
ENDROOT
BRANCH   1   2
ATOM      2  N   UNL     1       2.916   6.249  18.891  0.00  0.00    +0.000 N 
ATOM      3  C   UNL     1       2.431   5.693  20.075  0.00  0.00    +0.000 A 
ATOM      4  S   UNL     1       2.687   4.139  20.655  0.00  0.00    +0.000 S 
ATOM      5  N   UNL     1       1.668   6.503  20.870  0.00  0.00    +0.000 N 
ATOM      6  C   UNL     1       1.358   7.824  20.569  0.00  0.00    +0.000 A 
ATOM      7  C   UNL     1       0.631   8.596  21.475  0.00  0.00    +0.000 A 
ATOM      8  C   UNL     1       0.335   9.923  21.169  0.00  0.00    +0.000 A 
ATOM      9  C   UNL     1       0.749  10.474  19.956  0.00  0.00    +0.000 A 
ATOM     10  C   UNL     1       1.470   9.698  19.049  0.00  0.00    +0.000 A 
ATOM     11  C   UNL     1       1.780   8.372  19.366  0.00  0.00    +0.000 A 
ATOM     12  C   UNL     1       2.576   7.538  18.451  0.00  0.00    +0.000 A 
ATOM     13  O   UNL     1       2.912   8.005  17.365  0.00  0.00    +0.000 OA
ATOM     14  H   UNL     1       1.344   6.098  21.743  0.00  0.00    +0.000 HD
ENDBRANCH   1   2
BRANCH   1  15
ATOM     15  C   UNL     1       5.255   5.436  18.563  0.00  0.00    +0.000 C 
BRANCH  15  16
ATOM     16  C   UNL     1       6.236   6.356  17.827  0.00  0.00    +0.000 C 
BRANCH  16  17
ATOM     17  C   UNL     1       7.158   5.654  16.825  0.00  0.00    +0.000 C 
BRANCH  17  18
ATOM     18  C   UNL     1       6.439   4.591  15.998  0.00  0.00    +0.000 C 
BRANCH  18  20
ATOM     19  N   UNL     1       6.299   3.590  13.817  0.00  0.00    +0.000 N 
ATOM     20  C   UNL     1       6.860   4.615  14.544  0.00  0.00    +0.000 C 
ATOM     21  O   UNL     1       7.620   5.447  14.066  0.00  0.00    +0.000 OA
ATOM     22  H   UNL     1       5.521   3.076  14.212  0.00  0.00    +0.000 HD
BRANCH  19  23
ATOM     23  C   UNL     1       6.492   3.516  12.383  0.00  0.00    +0.000 C 
BRANCH  23  24
ATOM     24  C   UNL     1       5.395   2.702  11.701  0.00  0.00    +0.000 C 
BRANCH  24  26
ATOM     25  C   UNL     1       3.393   3.232  10.568  0.00  0.00    +0.000 C 
ATOM     26  O   UNL     1       4.175   3.451  11.734  0.00  0.00    +0.000 OA
ENDBRANCH  24  26
ENDBRANCH  23  24
ENDBRANCH  19  23
ENDBRANCH  18  20
ENDBRANCH  17  18
ENDBRANCH  16  17
ENDBRANCH  15  16
ENDBRANCH   1  15
TORSDOF 9
ENDMDL
MODEL 6
REMARK VINA RESULT:      -6.7      1.490      1.593
REMARK  Name = 
REMARK  10 active torsions:
REMARK  status: ('A' for Active; 'I' for Inactive)
REMARK    1  A    between atoms: C_1  and  O_2
REMARK    2  A    between atoms: O_2  and  C_3
REMARK    3  A    between atoms: C_3  and  C_4
REMARK    4  A    between atoms: C_4  and  N_5
REMARK    5  A    between atoms: C_6  and  C_8
REMARK    6  A    between atoms: C_8  and  C_9
REMARK    7  A    between atoms: C_9  and  C_10
REMARK    8  A    between atoms: C_10  and  C_11
REMARK    9  A    between atoms: C_11  and  C_12
REMARK   10  A    between atoms: C_12  and  N_13
REMARK                            x       y       z     vdW  Elec       q    Type
REMARK                         _______ _______ _______ _____ _____    ______ ____
ROOT
ATOM      1  C   UNL     1       7.400   5.669  17.564  0.00  0.00    +0.000 C 
ENDROOT
BRANCH   1   2
ATOM      2  N   UNL     1       6.098   4.996  17.471  0.00  0.00    +0.000 N 
ATOM      3  C   UNL     1       5.583   4.548  16.253  0.00  0.00    +0.000 A 
ATOM      4  S   UNL     1       6.244   4.757  14.725  0.00  0.00    +0.000 S 
ATOM      5  N   UNL     1       4.411   3.847  16.300  0.00  0.00    +0.000 N 
ATOM      6  C   UNL     1       3.719   3.558  17.471  0.00  0.00    +0.000 A 
ATOM      7  C   UNL     1       2.567   2.775  17.429  0.00  0.00    +0.000 A 
ATOM      8  C   UNL     1       1.887   2.482  18.610  0.00  0.00    +0.000 A 
ATOM      9  C   UNL     1       2.348   2.982  19.829  0.00  0.00    +0.000 A 
ATOM     10  C   UNL     1       3.497   3.771  19.868  0.00  0.00    +0.000 A 
ATOM     11  C   UNL     1       4.185   4.049  18.683  0.00  0.00    +0.000 A 
ATOM     12  C   UNL     1       5.426   4.842  18.693  0.00  0.00    +0.000 A 
ATOM     13  O   UNL     1       5.816   5.317  19.757  0.00  0.00    +0.000 OA
ATOM     14  H   UNL     1       4.058   3.501  15.413  0.00  0.00    +0.000 HD
ENDBRANCH   1   2
BRANCH   1  15
ATOM     15  C   UNL     1       7.290   7.190  17.410  0.00  0.00    +0.000 C 
BRANCH  15  16
ATOM     16  C   UNL     1       8.275   7.953  18.304  0.00  0.00    +0.000 C 
BRANCH  16  17
ATOM     17  C   UNL     1       8.266   9.475  18.133  0.00  0.00    +0.000 C 
BRANCH  17  18
ATOM     18  C   UNL     1       9.555  10.136  18.615  0.00  0.00    +0.000 C 
BRANCH  18  20
ATOM     19  N   UNL     1       9.278  12.523  18.657  0.00  0.00    +0.000 N 
ATOM     20  C   UNL     1       9.288  11.384  19.429  0.00  0.00    +0.000 C 
ATOM     21  O   UNL     1       9.109  11.386  20.640  0.00  0.00    +0.000 OA
ATOM     22  H   UNL     1       9.214  12.434  17.650  0.00  0.00    +0.000 HD
BRANCH  19  23
ATOM     23  C   UNL     1       8.924  13.802  19.239  0.00  0.00    +0.000 C 
BRANCH  23  24
ATOM     24  C   UNL     1       9.396  14.971  18.379  0.00  0.00    +0.000 C 
BRANCH  24  26
ATOM     25  C   UNL     1      11.635  15.186  17.659  0.00  0.00    +0.000 C 
ATOM     26  O   UNL     1      10.403  14.501  17.474  0.00  0.00    +0.000 OA
ENDBRANCH  24  26
ENDBRANCH  23  24
ENDBRANCH  19  23
ENDBRANCH  18  20
ENDBRANCH  17  18
ENDBRANCH  16  17
ENDBRANCH  15  16
ENDBRANCH   1  15
TORSDOF 9
ENDMDL
MODEL 7
REMARK VINA RESULT:      -6.7      1.662      1.891
REMARK  Name = 
REMARK  10 active torsions:
REMARK  status: ('A' for Active; 'I' for Inactive)
REMARK    1  A    between atoms: C_1  and  O_2
REMARK    2  A    between atoms: O_2  and  C_3
REMARK    3  A    between atoms: C_3  and  C_4
REMARK    4  A    between atoms: C_4  and  N_5
REMARK    5  A    between atoms: C_6  and  C_8
REMARK    6  A    between atoms: C_8  and  C_9
REMARK    7  A    between atoms: C_9  and  C_10
REMARK    8  A    between atoms: C_10  and  C_11
REMARK    9  A    between atoms: C_11  and  C_12
REMARK   10  A    between atoms: C_12  and  N_13
REMARK                            x       y       z     vdW  Elec       q    Type
REMARK                         _______ _______ _______ _____ _____    ______ ____
ROOT
ATOM      1  C   UNL     1       5.714   7.001  17.020  0.00  0.00    +0.000 C 
ENDROOT
BRANCH   1   2
ATOM      2  N   UNL     1       4.982   5.737  17.166  0.00  0.00    +0.000 N 
ATOM      3  C   UNL     1       5.477   4.534  16.662  0.00  0.00    +0.000 A 
ATOM      4  S   UNL     1       6.869   4.301  15.752  0.00  0.00    +0.000 S 
ATOM      5  N   UNL     1       4.760   3.405  16.945  0.00  0.00    +0.000 N 
ATOM      6  C   UNL     1       3.591   3.390  17.696  0.00  0.00    +0.000 A 
ATOM      7  C   UNL     1       2.965   2.180  17.993  0.00  0.00    +0.000 A 
ATOM      8  C   UNL     1       1.798   2.175  18.756  0.00  0.00    +0.000 A 
ATOM      9  C   UNL     1       1.249   3.376  19.208  0.00  0.00    +0.000 A 
ATOM     10  C   UNL     1       1.873   4.585  18.903  0.00  0.00    +0.000 A 
ATOM     11  C   UNL     1       3.052   4.585  18.152  0.00  0.00    +0.000 A 
ATOM     12  C   UNL     1       3.760   5.839  17.849  0.00  0.00    +0.000 A 
ATOM     13  O   UNL     1       3.262   6.903  18.211  0.00  0.00    +0.000 OA
ATOM     14  H   UNL     1       5.143   2.531  16.597  0.00  0.00    +0.000 HD
ENDBRANCH   1   2
BRANCH   1  15
ATOM     15  C   UNL     1       6.986   7.050  17.874  0.00  0.00    +0.000 C 
BRANCH  15  16
ATOM     16  C   UNL     1       7.946   8.169  17.451  0.00  0.00    +0.000 C 
BRANCH  16  17
ATOM     17  C   UNL     1       8.539   8.987  18.602  0.00  0.00    +0.000 C 
BRANCH  17  18
ATOM     18  C   UNL     1       8.891  10.416  18.196  0.00  0.00    +0.000 C 
BRANCH  18  20
ATOM     19  N   UNL     1       9.168  11.569  20.287  0.00  0.00    +0.000 N 
ATOM     20  C   UNL     1       9.828  11.077  19.184  0.00  0.00    +0.000 C 
ATOM     21  O   UNL     1      11.038  11.173  19.021  0.00  0.00    +0.000 OA
ATOM     22  H   UNL     1       8.217  11.270  20.465  0.00  0.00    +0.000 HD
BRANCH  19  23
ATOM     23  C   UNL     1       9.911  12.133  21.396  0.00  0.00    +0.000 C 
BRANCH  23  24
ATOM     24  C   UNL     1       9.915  13.659  21.362  0.00  0.00    +0.000 C 
BRANCH  24  26
ATOM     25  C   UNL     1       7.822  14.680  21.746  0.00  0.00    +0.000 C 
ATOM     26  O   UNL     1       8.690  14.112  20.775  0.00  0.00    +0.000 OA
ENDBRANCH  24  26
ENDBRANCH  23  24
ENDBRANCH  19  23
ENDBRANCH  18  20
ENDBRANCH  17  18
ENDBRANCH  16  17
ENDBRANCH  15  16
ENDBRANCH   1  15
TORSDOF 9
ENDMDL
MODEL 8
REMARK VINA RESULT:      -6.6      1.118      1.282
REMARK  Name = 
REMARK  10 active torsions:
REMARK  status: ('A' for Active; 'I' for Inactive)
REMARK    1  A    between atoms: C_1  and  O_2
REMARK    2  A    between atoms: O_2  and  C_3
REMARK    3  A    between atoms: C_3  and  C_4
REMARK    4  A    between atoms: C_4  and  N_5
REMARK    5  A    between atoms: C_6  and  C_8
REMARK    6  A    between atoms: C_8  and  C_9
REMARK    7  A    between atoms: C_9  and  C_10
REMARK    8  A    between atoms: C_10  and  C_11
REMARK    9  A    between atoms: C_11  and  C_12
REMARK   10  A    between atoms: C_12  and  N_13
REMARK                            x       y       z     vdW  Elec       q    Type
REMARK                         _______ _______ _______ _____ _____    ______ ____
ROOT
ATOM      1  C   UNL     1       5.317   6.750  17.206  0.00  0.00    +0.000 C 
ENDROOT
BRANCH   1   2
ATOM      2  N   UNL     1       4.412   5.604  17.361  0.00  0.00    +0.000 N 
ATOM      3  C   UNL     1       4.533   4.455  16.578  0.00  0.00    +0.000 A 
ATOM      4  S   UNL     1       5.598   4.191  15.308  0.00  0.00    +0.000 S 
ATOM      5  N   UNL     1       3.701   3.413  16.878  0.00  0.00    +0.000 N 
ATOM      6  C   UNL     1       2.762   3.434  17.903  0.00  0.00    +0.000 A 
ATOM      7  C   UNL     1       2.004   2.297  18.181  0.00  0.00    +0.000 A 
ATOM      8  C   UNL     1       1.073   2.324  19.218  0.00  0.00    +0.000 A 
ATOM      9  C   UNL     1       0.887   3.489  19.965  0.00  0.00    +0.000 A 
ATOM     10  C   UNL     1       1.641   4.626  19.680  0.00  0.00    +0.000 A 
ATOM     11  C   UNL     1       2.586   4.590  18.650  0.00  0.00    +0.000 A 
ATOM     12  C   UNL     1       3.429   5.759  18.352  0.00  0.00    +0.000 A 
ATOM     13  O   UNL     1       3.245   6.799  18.980  0.00  0.00    +0.000 OA
ATOM     14  H   UNL     1       3.816   2.572  16.321  0.00  0.00    +0.000 HD
ENDBRANCH   1   2
BRANCH   1  15
ATOM     15  C   UNL     1       6.719   6.474  17.761  0.00  0.00    +0.000 C 
BRANCH  15  16
ATOM     16  C   UNL     1       7.760   7.495  17.285  0.00  0.00    +0.000 C 
BRANCH  16  17
ATOM     17  C   UNL     1       8.259   8.465  18.359  0.00  0.00    +0.000 C 
BRANCH  17  18
ATOM     18  C   UNL     1       8.461   9.884  17.832  0.00  0.00    +0.000 C 
BRANCH  18  20
ATOM     19  N   UNL     1       9.611  11.954  18.247  0.00  0.00    +0.000 N 
ATOM     20  C   UNL     1       9.240  10.749  18.799  0.00  0.00    +0.000 C 
ATOM     21  O   UNL     1       9.518  10.415  19.944  0.00  0.00    +0.000 OA
ATOM     22  H   UNL     1       9.170  12.257  17.387  0.00  0.00    +0.000 HD
BRANCH  19  23
ATOM     23  C   UNL     1      10.263  12.963  19.057  0.00  0.00    +0.000 C 
BRANCH  23  24
ATOM     24  C   UNL     1      10.126  14.357  18.450  0.00  0.00    +0.000 C 
BRANCH  24  26
ATOM     25  C   UNL     1      10.767  14.820  20.674  0.00  0.00    +0.000 C 
ATOM     26  O   UNL     1      10.133  15.324  19.507  0.00  0.00    +0.000 OA
ENDBRANCH  24  26
ENDBRANCH  23  24
ENDBRANCH  19  23
ENDBRANCH  18  20
ENDBRANCH  17  18
ENDBRANCH  16  17
ENDBRANCH  15  16
ENDBRANCH   1  15
TORSDOF 9
ENDMDL
MODEL 9
REMARK VINA RESULT:      -6.6      2.263      2.756
REMARK  Name = 
REMARK  10 active torsions:
REMARK  status: ('A' for Active; 'I' for Inactive)
REMARK    1  A    between atoms: C_1  and  O_2
REMARK    2  A    between atoms: O_2  and  C_3
REMARK    3  A    between atoms: C_3  and  C_4
REMARK    4  A    between atoms: C_4  and  N_5
REMARK    5  A    between atoms: C_6  and  C_8
REMARK    6  A    between atoms: C_8  and  C_9
REMARK    7  A    between atoms: C_9  and  C_10
REMARK    8  A    between atoms: C_10  and  C_11
REMARK    9  A    between atoms: C_11  and  C_12
REMARK   10  A    between atoms: C_12  and  N_13
REMARK                            x       y       z     vdW  Elec       q    Type
REMARK                         _______ _______ _______ _____ _____    ______ ____
ROOT
ATOM      1  C   UNL     1       7.391   4.912  17.811  0.00  0.00    +0.000 C 
ENDROOT
BRANCH   1   2
ATOM      2  N   UNL     1       5.997   4.456  17.739  0.00  0.00    +0.000 N 
ATOM      3  C   UNL     1       5.320   4.338  16.524  0.00  0.00    +0.000 A 
ATOM      4  S   UNL     1       5.877   4.758  14.997  0.00  0.00    +0.000 S 
ATOM      5  N   UNL     1       4.060   3.809  16.569  0.00  0.00    +0.000 N 
ATOM      6  C   UNL     1       3.431   3.387  17.735  0.00  0.00    +0.000 A 
ATOM      7  C   UNL     1       2.171   2.794  17.675  0.00  0.00    +0.000 A 
ATOM      8  C   UNL     1       1.554   2.364  18.848  0.00  0.00    +0.000 A 
ATOM      9  C   UNL     1       2.185   2.541  20.080  0.00  0.00    +0.000 A 
ATOM     10  C   UNL     1       3.443   3.140  20.138  0.00  0.00    +0.000 A 
ATOM     11  C   UNL     1       4.066   3.555  18.957  0.00  0.00    +0.000 A 
ATOM     12  C   UNL     1       5.412   4.152  18.978  0.00  0.00    +0.000 A 
ATOM     13  O   UNL     1       5.957   4.345  20.062  0.00  0.00    +0.000 OA
ATOM     14  H   UNL     1       3.587   3.700  15.677  0.00  0.00    +0.000 HD
ENDBRANCH   1   2
BRANCH   1  15
ATOM     15  C   UNL     1       7.518   6.336  18.363  0.00  0.00    +0.000 C 
BRANCH  15  16
ATOM     16  C   UNL     1       7.699   7.389  17.263  0.00  0.00    +0.000 C 
BRANCH  16  17
ATOM     17  C   UNL     1       7.761   8.838  17.753  0.00  0.00    +0.000 C 
BRANCH  17  18
ATOM     18  C   UNL     1       8.879   9.077  18.765  0.00  0.00    +0.000 C 
BRANCH  18  20
ATOM     19  N   UNL     1       9.287  10.915  20.259  0.00  0.00    +0.000 N 
ATOM     20  C   UNL     1       9.192  10.548  18.937  0.00  0.00    +0.000 C 
ATOM     21  O   UNL     1       9.336  11.330  18.006  0.00  0.00    +0.000 OA
ATOM     22  H   UNL     1       9.374  10.193  20.965  0.00  0.00    +0.000 HD
BRANCH  19  23
ATOM     23  C   UNL     1       9.694  12.257  20.622  0.00  0.00    +0.000 C 
BRANCH  23  24
ATOM     24  C   UNL     1       9.346  12.587  22.071  0.00  0.00    +0.000 C 
BRANCH  24  26
ATOM     25  C   UNL     1       7.848  13.877  23.362  0.00  0.00    +0.000 C 
ATOM     26  O   UNL     1       8.088  13.272  22.099  0.00  0.00    +0.000 OA
ENDBRANCH  24  26
ENDBRANCH  23  24
ENDBRANCH  19  23
ENDBRANCH  18  20
ENDBRANCH  17  18
ENDBRANCH  16  17
ENDBRANCH  15  16
ENDBRANCH   1  15
TORSDOF 9
ENDMDL
