MODEL 1
REMARK VINA RESULT:      -8.4      0.000      0.000
REMARK  Name = 
REMARK  8 active torsions:
REMARK  status: ('A' for Active; 'I' for Inactive)
REMARK    1  A    between atoms: C_1  and  C_2
REMARK    2  A    between atoms: C_2  and  C_3
REMARK    3  A    between atoms: C_2  and  C_4
REMARK    4  A    between atoms: N_6  and  C_7
REMARK    5  A    between atoms: N_6  and  C_14
REMARK    6  A    between atoms: C_7  and  C_8
REMARK    7  A    between atoms: C_14  and  C_15
REMARK    8  A    between atoms: C_17  and  C_18
REMARK                            x       y       z     vdW  Elec       q    Type
REMARK                         _______ _______ _______ _____ _____    ______ ____
ROOT
ATOM      1  C   UNL     1       2.817   4.216  18.306  0.00  0.00    +0.000 C 
ATOM      2  O   UNL     1       1.861   4.313  17.537  0.00  0.00    +0.000 OA
ATOM      3  N   UNL     1       3.702   5.281  18.528  0.00  0.00    +0.000 N 
ENDROOT
BRANCH   1   5
ATOM      4  C   UNL     1       1.811   2.437  19.816  0.00  0.00    +0.000 C 
ATOM      5  C   UNL     1       3.063   2.896  19.061  0.00  0.00    +0.000 C 
ATOM      6  C   UNL     1       3.521   1.780  18.127  0.00  0.00    +0.000 C 
ENDBRANCH   1   5
BRANCH   3   7
ATOM      7  C   UNL     1       3.440   6.538  17.808  0.00  0.00    +0.000 C 
BRANCH   7   8
ATOM      8  C   UNL     1       2.484   7.507  18.479  0.00  0.00    +0.000 A 
ATOM      9  C   UNL     1       2.169   7.416  19.841  0.00  0.00    +0.000 A 
ATOM     10  C   UNL     1       1.400   8.408  20.460  0.00  0.00    +0.000 A 
ATOM     11  C   UNL     1       0.951   9.508  19.733  0.00  0.00    +0.000 A 
ATOM     12  C   UNL     1       1.240   9.603  18.375  0.00  0.00    +0.000 A 
ATOM     13  C   UNL     1       1.999   8.610  17.752  0.00  0.00    +0.000 A 
ENDBRANCH   7   8
ENDBRANCH   3   7
BRANCH   3  14
ATOM     14  C   UNL     1       4.990   5.145  19.230  0.00  0.00    +0.000 C 
BRANCH  14  15
ATOM     15  C   UNL     1       6.276   5.198  18.395  0.00  0.00    +0.000 C 
ATOM     16  C   UNL     1       6.113   4.316  17.173  0.00  0.00    +0.000 C 
ATOM     17  C   UNL     1       6.561   5.254  16.116  0.00  0.00    +0.000 C 
ATOM     18  N   UNL     1       6.803   6.458  16.518  0.00  0.00    +0.000 NA
ATOM     19  O   UNL     1       6.515   6.518  17.895  0.00  0.00    +0.000 OA
BRANCH  17  20
ATOM     20  C   UNL     1       6.676   4.828  14.705  0.00  0.00    +0.000 A 
ATOM     21  C   UNL     1       5.840   3.836  14.179  0.00  0.00    +0.000 A 
ATOM     22  C   UNL     1       5.960   3.459  12.841  0.00  0.00    +0.000 A 
ATOM     23  C   UNL     1       6.912   4.070  12.028  0.00  0.00    +0.000 A 
ATOM     24  C   UNL     1       7.742   5.064  12.546  0.00  0.00    +0.000 A 
ATOM     25  C   UNL     1       7.623   5.445  13.882  0.00  0.00    +0.000 A 
ENDBRANCH  17  20
ENDBRANCH  14  15
ENDBRANCH   3  14
TORSDOF 6
ENDMDL
MODEL 2
REMARK VINA RESULT:      -8.4      0.908      1.329
REMARK  Name = 
REMARK  8 active torsions:
REMARK  status: ('A' for Active; 'I' for Inactive)
REMARK    1  A    between atoms: C_1  and  C_2
REMARK    2  A    between atoms: C_2  and  C_3
REMARK    3  A    between atoms: C_2  and  C_4
REMARK    4  A    between atoms: N_6  and  C_7
REMARK    5  A    between atoms: N_6  and  C_14
REMARK    6  A    between atoms: C_7  and  C_8
REMARK    7  A    between atoms: C_14  and  C_15
REMARK    8  A    between atoms: C_17  and  C_18
REMARK                            x       y       z     vdW  Elec       q    Type
REMARK                         _______ _______ _______ _____ _____    ______ ____
ROOT
ATOM      1  C   UNL     1       2.542   4.308  19.115  0.00  0.00    +0.000 C 
ATOM      2  O   UNL     1       1.379   4.272  18.716  0.00  0.00    +0.000 OA
ATOM      3  N   UNL     1       3.409   5.360  18.783  0.00  0.00    +0.000 N 
ENDROOT
BRANCH   1   5
ATOM      4  C   UNL     1       2.288   3.063  21.315  0.00  0.00    +0.000 C 
ATOM      5  C   UNL     1       3.082   3.176  20.010  0.00  0.00    +0.000 C 
ATOM      6  C   UNL     1       3.067   1.827  19.297  0.00  0.00    +0.000 C 
ENDBRANCH   1   5
BRANCH   3   7
ATOM      7  C   UNL     1       2.869   6.438  17.939  0.00  0.00    +0.000 C 
BRANCH   7   8
ATOM      8  C   UNL     1       2.284   7.632  18.672  0.00  0.00    +0.000 A 
ATOM      9  C   UNL     1       1.939   8.816  18.007  0.00  0.00    +0.000 A 
ATOM     10  C   UNL     1       1.271   9.842  18.683  0.00  0.00    +0.000 A 
ATOM     11  C   UNL     1       0.925   9.694  20.025  0.00  0.00    +0.000 A 
ATOM     12  C   UNL     1       1.277   8.532  20.704  0.00  0.00    +0.000 A 
ATOM     13  C   UNL     1       1.953   7.510  20.034  0.00  0.00    +0.000 A 
ENDBRANCH   7   8
ENDBRANCH   3   7
BRANCH   3  14
ATOM     14  C   UNL     1       4.863   5.330  19.015  0.00  0.00    +0.000 C 
BRANCH  14  15
ATOM     15  C   UNL     1       5.697   4.303  18.238  0.00  0.00    +0.000 C 
ATOM     16  C   UNL     1       5.291   4.334  16.777  0.00  0.00    +0.000 C 
ATOM     17  C   UNL     1       6.627   4.432  16.141  0.00  0.00    +0.000 C 
ATOM     18  N   UNL     1       7.616   4.576  16.961  0.00  0.00    +0.000 NA
ATOM     19  O   UNL     1       7.088   4.638  18.265  0.00  0.00    +0.000 OA
BRANCH  17  20
ATOM     20  C   UNL     1       6.785   4.402  14.672  0.00  0.00    +0.000 A 
ATOM     21  C   UNL     1       6.030   3.527  13.881  0.00  0.00    +0.000 A 
ATOM     22  C   UNL     1       6.188   3.526  12.495  0.00  0.00    +0.000 A 
ATOM     23  C   UNL     1       7.095   4.397  11.897  0.00  0.00    +0.000 A 
ATOM     24  C   UNL     1       7.844   5.276  12.680  0.00  0.00    +0.000 A 
ATOM     25  C   UNL     1       7.687   5.282  14.065  0.00  0.00    +0.000 A 
ENDBRANCH  17  20
ENDBRANCH  14  15
ENDBRANCH   3  14
TORSDOF 6
ENDMDL
MODEL 3
REMARK VINA RESULT:      -8.3      2.631      7.604
REMARK  Name = 
REMARK  8 active torsions:
REMARK  status: ('A' for Active; 'I' for Inactive)
REMARK    1  A    between atoms: C_1  and  C_2
REMARK    2  A    between atoms: C_2  and  C_3
REMARK    3  A    between atoms: C_2  and  C_4
REMARK    4  A    between atoms: N_6  and  C_7
REMARK    5  A    between atoms: N_6  and  C_14
REMARK    6  A    between atoms: C_7  and  C_8
REMARK    7  A    between atoms: C_14  and  C_15
REMARK    8  A    between atoms: C_17  and  C_18
REMARK                            x       y       z     vdW  Elec       q    Type
REMARK                         _______ _______ _______ _____ _____    ______ ____
ROOT
ATOM      1  C   UNL     1       5.436   5.439  17.810  0.00  0.00    +0.000 C 
ATOM      2  O   UNL     1       5.660   4.264  17.521  0.00  0.00    +0.000 OA
ATOM      3  N   UNL     1       4.132   5.952  17.879  0.00  0.00    +0.000 N 
ENDROOT
BRANCH   1   5
ATOM      4  C   UNL     1       7.571   5.790  19.143  0.00  0.00    +0.000 C 
ATOM      5  C   UNL     1       6.609   6.391  18.113  0.00  0.00    +0.000 C 
ATOM      6  C   UNL     1       7.389   6.756  16.854  0.00  0.00    +0.000 C 
ENDBRANCH   1   5
BRANCH   3   7
ATOM      7  C   UNL     1       3.026   5.021  17.600  0.00  0.00    +0.000 C 
BRANCH   7   8
ATOM      8  C   UNL     1       2.474   4.261  18.792  0.00  0.00    +0.000 A 
ATOM      9  C   UNL     1       2.924   4.498  20.098  0.00  0.00    +0.000 A 
ATOM     10  C   UNL     1       2.296   3.886  21.188  0.00  0.00    +0.000 A 
ATOM     11  C   UNL     1       1.202   3.046  20.991  0.00  0.00    +0.000 A 
ATOM     12  C   UNL     1       0.754   2.787  19.699  0.00  0.00    +0.000 A 
ATOM     13  C   UNL     1       1.386   3.388  18.608  0.00  0.00    +0.000 A 
ENDBRANCH   7   8
ENDBRANCH   3   7
BRANCH   3  14
ATOM     14  C   UNL     1       3.818   7.388  17.968  0.00  0.00    +0.000 C 
BRANCH  14  15
ATOM     15  C   UNL     1       2.342   7.802  18.018  0.00  0.00    +0.000 C 
ATOM     16  C   UNL     1       1.899   7.898  19.465  0.00  0.00    +0.000 C 
ATOM     17  C   UNL     1       1.252   9.232  19.449  0.00  0.00    +0.000 C 
ATOM     18  N   UNL     1       1.371   9.886  18.341  0.00  0.00    +0.000 NA
ATOM     19  O   UNL     1       2.151   9.107  17.463  0.00  0.00    +0.000 OA
BRANCH  17  20
ATOM     20  C   UNL     1       0.559   9.766  20.640  0.00  0.00    +0.000 A 
ATOM     21  C   UNL     1       0.210  11.119  20.728  0.00  0.00    +0.000 A 
ATOM     22  C   UNL     1      -0.455  11.596  21.857  0.00  0.00    +0.000 A 
ATOM     23  C   UNL     1      -0.774  10.727  22.898  0.00  0.00    +0.000 A 
ATOM     24  C   UNL     1      -0.436   9.377  22.811  0.00  0.00    +0.000 A 
ATOM     25  C   UNL     1       0.227   8.895  21.683  0.00  0.00    +0.000 A 
ENDBRANCH  17  20
ENDBRANCH  14  15
ENDBRANCH   3  14
TORSDOF 6
ENDMDL
MODEL 4
REMARK VINA RESULT:      -8.3      2.735      7.556
REMARK  Name = 
REMARK  8 active torsions:
REMARK  status: ('A' for Active; 'I' for Inactive)
REMARK    1  A    between atoms: C_1  and  C_2
REMARK    2  A    between atoms: C_2  and  C_3
REMARK    3  A    between atoms: C_2  and  C_4
REMARK    4  A    between atoms: N_6  and  C_7
REMARK    5  A    between atoms: N_6  and  C_14
REMARK    6  A    between atoms: C_7  and  C_8
REMARK    7  A    between atoms: C_14  and  C_15
REMARK    8  A    between atoms: C_17  and  C_18
REMARK                            x       y       z     vdW  Elec       q    Type
REMARK                         _______ _______ _______ _____ _____    ______ ____
ROOT
ATOM      1  C   UNL     1       5.652   5.405  17.921  0.00  0.00    +0.000 C 
ATOM      2  O   UNL     1       5.951   4.248  17.632  0.00  0.00    +0.000 OA
ATOM      3  N   UNL     1       4.324   5.858  17.900  0.00  0.00    +0.000 N 
ENDROOT
BRANCH   1   5
ATOM      4  C   UNL     1       7.757   5.770  19.297  0.00  0.00    +0.000 C 
ATOM      5  C   UNL     1       6.753   6.404  18.328  0.00  0.00    +0.000 C 
ATOM      6  C   UNL     1       7.503   6.951  17.117  0.00  0.00    +0.000 C 
ENDBRANCH   1   5
BRANCH   3   7
ATOM      7  C   UNL     1       3.286   4.884  17.522  0.00  0.00    +0.000 C 
BRANCH   7   8
ATOM      8  C   UNL     1       2.509   4.257  18.666  0.00  0.00    +0.000 A 
ATOM      9  C   UNL     1       1.351   3.500  18.451  0.00  0.00    +0.000 A 
ATOM     10  C   UNL     1       0.741   2.817  19.509  0.00  0.00    +0.000 A 
ATOM     11  C   UNL     1       1.288   2.869  20.790  0.00  0.00    +0.000 A 
ATOM     12  C   UNL     1       2.428   3.632  21.023  0.00  0.00    +0.000 A 
ATOM     13  C   UNL     1       3.033   4.323  19.971  0.00  0.00    +0.000 A 
ENDBRANCH   7   8
ENDBRANCH   3   7
BRANCH   3  14
ATOM     14  C   UNL     1       3.938   7.276  17.987  0.00  0.00    +0.000 C 
BRANCH  14  15
ATOM     15  C   UNL     1       2.443   7.615  18.045  0.00  0.00    +0.000 C 
ATOM     16  C   UNL     1       2.021   7.762  19.494  0.00  0.00    +0.000 C 
ATOM     17  C   UNL     1       1.303   9.057  19.423  0.00  0.00    +0.000 C 
ATOM     18  N   UNL     1       1.369   9.659  18.282  0.00  0.00    +0.000 NA
ATOM     19  O   UNL     1       2.174   8.878  17.429  0.00  0.00    +0.000 OA
BRANCH  17  20
ATOM     20  C   UNL     1       0.604   9.615  20.599  0.00  0.00    +0.000 A 
ATOM     21  C   UNL     1       0.479   8.879  21.784  0.00  0.00    +0.000 A 
ATOM     22  C   UNL     1      -0.175   9.432  22.884  0.00  0.00    +0.000 A 
ATOM     23  C   UNL     1      -0.705  10.718  22.807  0.00  0.00    +0.000 A 
ATOM     24  C   UNL     1      -0.577  11.458  21.631  0.00  0.00    +0.000 A 
ATOM     25  C   UNL     1       0.079  10.910  20.530  0.00  0.00    +0.000 A 
ENDBRANCH  17  20
ENDBRANCH  14  15
ENDBRANCH   3  14
TORSDOF 6
ENDMDL
MODEL 5
REMARK VINA RESULT:      -8.3      0.324      1.019
REMARK  Name = 
REMARK  8 active torsions:
REMARK  status: ('A' for Active; 'I' for Inactive)
REMARK    1  A    between atoms: C_1  and  C_2
REMARK    2  A    between atoms: C_2  and  C_3
REMARK    3  A    between atoms: C_2  and  C_4
REMARK    4  A    between atoms: N_6  and  C_7
REMARK    5  A    between atoms: N_6  and  C_14
REMARK    6  A    between atoms: C_7  and  C_8
REMARK    7  A    between atoms: C_14  and  C_15
REMARK    8  A    between atoms: C_17  and  C_18
REMARK                            x       y       z     vdW  Elec       q    Type
REMARK                         _______ _______ _______ _____ _____    ______ ____
ROOT
ATOM      1  C   UNL     1       2.528   4.535  18.202  0.00  0.00    +0.000 C 
ATOM      2  O   UNL     1       1.592   4.792  17.446  0.00  0.00    +0.000 OA
ATOM      3  N   UNL     1       3.523   5.478  18.500  0.00  0.00    +0.000 N 
ENDROOT
BRANCH   1   5
ATOM      4  C   UNL     1       1.339   2.782  19.607  0.00  0.00    +0.000 C 
ATOM      5  C   UNL     1       2.626   3.143  18.856  0.00  0.00    +0.000 C 
ATOM      6  C   UNL     1       2.932   2.052  17.835  0.00  0.00    +0.000 C 
ENDBRANCH   1   5
BRANCH   3   7
ATOM      7  C   UNL     1       3.403   6.806  17.876  0.00  0.00    +0.000 C 
BRANCH   7   8
ATOM      8  C   UNL     1       2.412   7.760  18.519  0.00  0.00    +0.000 A 
ATOM      9  C   UNL     1       2.053   7.659  19.869  0.00  0.00    +0.000 A 
ATOM     10  C   UNL     1       1.251   8.638  20.466  0.00  0.00    +0.000 A 
ATOM     11  C   UNL     1       0.813   9.736  19.728  0.00  0.00    +0.000 A 
ATOM     12  C   UNL     1       1.146   9.841  18.382  0.00  0.00    +0.000 A 
ATOM     13  C   UNL     1       1.938   8.860  17.780  0.00  0.00    +0.000 A 
ENDBRANCH   7   8
ENDBRANCH   3   7
BRANCH   3  14
ATOM     14  C   UNL     1       4.785   5.151  19.185  0.00  0.00    +0.000 C 
BRANCH  14  15
ATOM     15  C   UNL     1       6.083   5.199  18.368  0.00  0.00    +0.000 C 
ATOM     16  C   UNL     1       5.934   4.318  17.143  0.00  0.00    +0.000 C 
ATOM     17  C   UNL     1       6.400   5.256  16.094  0.00  0.00    +0.000 C 
ATOM     18  N   UNL     1       6.642   6.458  16.500  0.00  0.00    +0.000 NA
ATOM     19  O   UNL     1       6.335   6.518  17.874  0.00  0.00    +0.000 OA
BRANCH  17  20
ATOM     20  C   UNL     1       6.534   4.830  14.685  0.00  0.00    +0.000 A 
ATOM     21  C   UNL     1       7.539   5.353  13.863  0.00  0.00    +0.000 A 
ATOM     22  C   UNL     1       7.653   4.926  12.540  0.00  0.00    +0.000 A 
ATOM     23  C   UNL     1       6.767   3.977  12.036  0.00  0.00    +0.000 A 
ATOM     24  C   UNL     1       5.768   3.447  12.853  0.00  0.00    +0.000 A 
ATOM     25  C   UNL     1       5.653   3.869  14.176  0.00  0.00    +0.000 A 
ENDBRANCH  17  20
ENDBRANCH  14  15
ENDBRANCH   3  14
TORSDOF 6
ENDMDL
MODEL 6
REMARK VINA RESULT:      -8.1      0.960      1.372
REMARK  Name = 
REMARK  8 active torsions:
REMARK  status: ('A' for Active; 'I' for Inactive)
REMARK    1  A    between atoms: C_1  and  C_2
REMARK    2  A    between atoms: C_2  and  C_3
REMARK    3  A    between atoms: C_2  and  C_4
REMARK    4  A    between atoms: N_6  and  C_7
REMARK    5  A    between atoms: N_6  and  C_14
REMARK    6  A    between atoms: C_7  and  C_8
REMARK    7  A    between atoms: C_14  and  C_15
REMARK    8  A    between atoms: C_17  and  C_18
REMARK                            x       y       z     vdW  Elec       q    Type
REMARK                         _______ _______ _______ _____ _____    ______ ____
ROOT
ATOM      1  C   UNL     1       2.551   4.378  19.341  0.00  0.00    +0.000 C 
ATOM      2  O   UNL     1       1.376   4.331  18.982  0.00  0.00    +0.000 OA
ATOM      3  N   UNL     1       3.418   5.395  18.915  0.00  0.00    +0.000 N 
ENDROOT
BRANCH   1   5
ATOM      4  C   UNL     1       2.201   3.103  21.511  0.00  0.00    +0.000 C 
ATOM      5  C   UNL     1       3.108   3.300  20.292  0.00  0.00    +0.000 C 
ATOM      6  C   UNL     1       3.298   1.960  19.587  0.00  0.00    +0.000 C 
ENDBRANCH   1   5
BRANCH   3   7
ATOM      7  C   UNL     1       2.863   6.423  18.018  0.00  0.00    +0.000 C 
BRANCH   7   8
ATOM      8  C   UNL     1       2.136   7.574  18.690  0.00  0.00    +0.000 A 
ATOM      9  C   UNL     1       1.915   7.607  20.073  0.00  0.00    +0.000 A 
ATOM     10  C   UNL     1       1.371   8.746  20.679  0.00  0.00    +0.000 A 
ATOM     11  C   UNL     1       1.059   9.869  19.915  0.00  0.00    +0.000 A 
ATOM     12  C   UNL     1       1.256   9.844  18.539  0.00  0.00    +0.000 A 
ATOM     13  C   UNL     1       1.788   8.706  17.930  0.00  0.00    +0.000 A 
ENDBRANCH   7   8
ENDBRANCH   3   7
BRANCH   3  14
ATOM     14  C   UNL     1       4.878   5.363  19.103  0.00  0.00    +0.000 C 
BRANCH  14  15
ATOM     15  C   UNL     1       5.685   4.327  18.308  0.00  0.00    +0.000 C 
ATOM     16  C   UNL     1       5.267   4.380  16.852  0.00  0.00    +0.000 C 
ATOM     17  C   UNL     1       6.599   4.459  16.205  0.00  0.00    +0.000 C 
ATOM     18  N   UNL     1       7.597   4.576  17.016  0.00  0.00    +0.000 NA
ATOM     19  O   UNL     1       7.083   4.636  18.326  0.00  0.00    +0.000 OA
BRANCH  17  20
ATOM     20  C   UNL     1       6.742   4.439  14.734  0.00  0.00    +0.000 A 
ATOM     21  C   UNL     1       7.677   5.257  14.087  0.00  0.00    +0.000 A 
ATOM     22  C   UNL     1       7.801   5.212  12.698  0.00  0.00    +0.000 A 
ATOM     23  C   UNL     1       6.997   4.352  11.954  0.00  0.00    +0.000 A 
ATOM     24  C   UNL     1       6.070   3.530  12.594  0.00  0.00    +0.000 A 
ATOM     25  C   UNL     1       5.944   3.570  13.982  0.00  0.00    +0.000 A 
ENDBRANCH  17  20
ENDBRANCH  14  15
ENDBRANCH   3  14
TORSDOF 6
ENDMDL
MODEL 7
REMARK VINA RESULT:      -8.0      2.908      7.352
REMARK  Name = 
REMARK  8 active torsions:
REMARK  status: ('A' for Active; 'I' for Inactive)
REMARK    1  A    between atoms: C_1  and  C_2
REMARK    2  A    between atoms: C_2  and  C_3
REMARK    3  A    between atoms: C_2  and  C_4
REMARK    4  A    between atoms: N_6  and  C_7
REMARK    5  A    between atoms: N_6  and  C_14
REMARK    6  A    between atoms: C_7  and  C_8
REMARK    7  A    between atoms: C_14  and  C_15
REMARK    8  A    between atoms: C_17  and  C_18
REMARK                            x       y       z     vdW  Elec       q    Type
REMARK                         _______ _______ _______ _____ _____    ______ ____
ROOT
ATOM      1  C   UNL     1       3.191   3.152  19.404  0.00  0.00    +0.000 C 
ATOM      2  O   UNL     1       3.576   2.048  19.020  0.00  0.00    +0.000 OA
ATOM      3  N   UNL     1       3.867   4.334  19.064  0.00  0.00    +0.000 N 
ENDROOT
BRANCH   1   5
ATOM      4  C   UNL     1       0.694   2.709  19.561  0.00  0.00    +0.000 C 
ATOM      5  C   UNL     1       1.929   3.263  20.280  0.00  0.00    +0.000 C 
ATOM      6  C   UNL     1       2.095   2.545  21.615  0.00  0.00    +0.000 C 
ENDBRANCH   1   5
BRANCH   3   7
ATOM      7  C   UNL     1       5.063   4.206  18.215  0.00  0.00    +0.000 C 
BRANCH   7   8
ATOM      8  C   UNL     1       6.018   5.386  18.223  0.00  0.00    +0.000 A 
ATOM      9  C   UNL     1       7.132   5.435  19.072  0.00  0.00    +0.000 A 
ATOM     10  C   UNL     1       8.070   6.466  18.954  0.00  0.00    +0.000 A 
ATOM     11  C   UNL     1       7.918   7.450  17.979  0.00  0.00    +0.000 A 
ATOM     12  C   UNL     1       6.808   7.425  17.141  0.00  0.00    +0.000 A 
ATOM     13  C   UNL     1       5.864   6.403  17.263  0.00  0.00    +0.000 A 
ENDBRANCH   7   8
ENDBRANCH   3   7
BRANCH   3  14
ATOM     14  C   UNL     1       3.606   5.639  19.694  0.00  0.00    +0.000 C 
BRANCH  14  15
ATOM     15  C   UNL     1       2.334   6.394  19.288  0.00  0.00    +0.000 C 
ATOM     16  C   UNL     1       1.657   6.937  20.531  0.00  0.00    +0.000 C 
ATOM     17  C   UNL     1       1.440   8.343  20.114  0.00  0.00    +0.000 C 
ATOM     18  N   UNL     1       1.963   8.665  18.977  0.00  0.00    +0.000 NA
ATOM     19  O   UNL     1       2.644   7.535  18.481  0.00  0.00    +0.000 OA
BRANCH  17  20
ATOM     20  C   UNL     1       0.708   9.297  20.973  0.00  0.00    +0.000 A 
ATOM     21  C   UNL     1       0.394  10.584  20.520  0.00  0.00    +0.000 A 
ATOM     22  C   UNL     1      -0.309  11.462  21.345  0.00  0.00    +0.000 A 
ATOM     23  C   UNL     1      -0.701  11.059  22.619  0.00  0.00    +0.000 A 
ATOM     24  C   UNL     1      -0.398   9.774  23.072  0.00  0.00    +0.000 A 
ATOM     25  C   UNL     1       0.303   8.893  22.250  0.00  0.00    +0.000 A 
ENDBRANCH  17  20
ENDBRANCH  14  15
ENDBRANCH   3  14
TORSDOF 6
ENDMDL
MODEL 8
REMARK VINA RESULT:      -7.9      2.112      7.188
REMARK  Name = 
REMARK  8 active torsions:
REMARK  status: ('A' for Active; 'I' for Inactive)
REMARK    1  A    between atoms: C_1  and  C_2
REMARK    2  A    between atoms: C_2  and  C_3
REMARK    3  A    between atoms: C_2  and  C_4
REMARK    4  A    between atoms: N_6  and  C_7
REMARK    5  A    between atoms: N_6  and  C_14
REMARK    6  A    between atoms: C_7  and  C_8
REMARK    7  A    between atoms: C_14  and  C_15
REMARK    8  A    between atoms: C_17  and  C_18
REMARK                            x       y       z     vdW  Elec       q    Type
REMARK                         _______ _______ _______ _____ _____    ______ ____
ROOT
ATOM      1  C   UNL     1       3.053   3.791  19.476  0.00  0.00    +0.000 C 
ATOM      2  O   UNL     1       3.869   3.040  20.010  0.00  0.00    +0.000 OA
ATOM      3  N   UNL     1       3.451   4.908  18.726  0.00  0.00    +0.000 N 
ENDROOT
BRANCH   1   5
ATOM      4  C   UNL     1       1.076   2.437  18.632  0.00  0.00    +0.000 C 
ATOM      5  C   UNL     1       1.545   3.511  19.619  0.00  0.00    +0.000 C 
ATOM      6  C   UNL     1       1.174   3.085  21.036  0.00  0.00    +0.000 C 
ENDBRANCH   1   5
BRANCH   3   7
ATOM      7  C   UNL     1       4.897   5.149  18.591  0.00  0.00    +0.000 C 
BRANCH   7   8
ATOM      8  C   UNL     1       5.515   4.779  17.254  0.00  0.00    +0.000 A 
ATOM      9  C   UNL     1       4.765   4.191  16.227  0.00  0.00    +0.000 A 
ATOM     10  C   UNL     1       5.326   3.995  14.960  0.00  0.00    +0.000 A 
ATOM     11  C   UNL     1       6.634   4.398  14.699  0.00  0.00    +0.000 A 
ATOM     12  C   UNL     1       7.397   4.967  15.714  0.00  0.00    +0.000 A 
ATOM     13  C   UNL     1       6.843   5.155  16.982  0.00  0.00    +0.000 A 
ENDBRANCH   7   8
ENDBRANCH   3   7
BRANCH   3  14
ATOM     14  C   UNL     1       2.532   5.970  18.285  0.00  0.00    +0.000 C 
BRANCH  14  15
ATOM     15  C   UNL     1       2.727   7.379  18.862  0.00  0.00    +0.000 C 
ATOM     16  C   UNL     1       1.975   8.377  18.004  0.00  0.00    +0.000 C 
ATOM     17  C   UNL     1       1.239   9.119  19.057  0.00  0.00    +0.000 C 
ATOM     18  N   UNL     1       1.362   8.641  20.251  0.00  0.00    +0.000 NA
ATOM     19  O   UNL     1       2.163   7.485  20.173  0.00  0.00    +0.000 OA
BRANCH  17  20
ATOM     20  C   UNL     1       0.404  10.294  18.731  0.00  0.00    +0.000 A 
ATOM     21  C   UNL     1      -0.864  10.143  18.158  0.00  0.00    +0.000 A 
ATOM     22  C   UNL     1      -1.639  11.267  17.871  0.00  0.00    +0.000 A 
ATOM     23  C   UNL     1      -1.151  12.541  18.155  0.00  0.00    +0.000 A 
ATOM     24  C   UNL     1       0.109  12.695  18.733  0.00  0.00    +0.000 A 
ATOM     25  C   UNL     1       0.885  11.574  19.024  0.00  0.00    +0.000 A 
ENDBRANCH  17  20
ENDBRANCH  14  15
ENDBRANCH   3  14
TORSDOF 6
ENDMDL
MODEL 9
REMARK VINA RESULT:      -7.9      2.118      7.474
REMARK  Name = 
REMARK  8 active torsions:
REMARK  status: ('A' for Active; 'I' for Inactive)
REMARK    1  A    between atoms: C_1  and  C_2
REMARK    2  A    between atoms: C_2  and  C_3
REMARK    3  A    between atoms: C_2  and  C_4
REMARK    4  A    between atoms: N_6  and  C_7
REMARK    5  A    between atoms: N_6  and  C_14
REMARK    6  A    between atoms: C_7  and  C_8
REMARK    7  A    between atoms: C_14  and  C_15
REMARK    8  A    between atoms: C_17  and  C_18
REMARK                            x       y       z     vdW  Elec       q    Type
REMARK                         _______ _______ _______ _____ _____    ______ ____
ROOT
ATOM      1  C   UNL     1       4.903   4.890  16.751  0.00  0.00    +0.000 C 
ATOM      2  O   UNL     1       4.862   3.765  16.255  0.00  0.00    +0.000 OA
ATOM      3  N   UNL     1       3.835   5.413  17.495  0.00  0.00    +0.000 N 
ENDROOT
BRANCH   1   5
ATOM      4  C   UNL     1       7.046   5.746  17.814  0.00  0.00    +0.000 C 
ATOM      5  C   UNL     1       6.158   5.765  16.566  0.00  0.00    +0.000 C 
ATOM      6  C   UNL     1       6.983   5.333  15.358  0.00  0.00    +0.000 C 
ENDBRANCH   1   5
BRANCH   3   7
ATOM      7  C   UNL     1       2.652   4.555  17.671  0.00  0.00    +0.000 C 
BRANCH   7   8
ATOM      8  C   UNL     1       2.445   3.978  19.060  0.00  0.00    +0.000 A 
ATOM      9  C   UNL     1       1.186   3.951  19.674  0.00  0.00    +0.000 A 
ATOM     10  C   UNL     1       1.003   3.285  20.890  0.00  0.00    +0.000 A 
ATOM     11  C   UNL     1       2.068   2.624  21.499  0.00  0.00    +0.000 A 
ATOM     12  C   UNL     1       3.328   2.656  20.911  0.00  0.00    +0.000 A 
ATOM     13  C   UNL     1       3.517   3.330  19.702  0.00  0.00    +0.000 A 
ENDBRANCH   7   8
ENDBRANCH   3   7
BRANCH   3  14
ATOM     14  C   UNL     1       3.725   6.827  17.890  0.00  0.00    +0.000 C 
BRANCH  14  15
ATOM     15  C   UNL     1       2.331   7.469  17.894  0.00  0.00    +0.000 C 
ATOM     16  C   UNL     1       1.827   7.559  19.321  0.00  0.00    +0.000 C 
ATOM     17  C   UNL     1       1.400   8.978  19.354  0.00  0.00    +0.000 C 
ATOM     18  N   UNL     1       1.683   9.662  18.295  0.00  0.00    +0.000 NA
ATOM     19  O   UNL     1       2.380   8.815  17.411  0.00  0.00    +0.000 OA
BRANCH  17  20
ATOM     20  C   UNL     1       0.732   9.554  20.541  0.00  0.00    +0.000 A 
ATOM     21  C   UNL     1       0.717   8.873  21.764  0.00  0.00    +0.000 A 
ATOM     22  C   UNL     1       0.091   9.442  22.873  0.00  0.00    +0.000 A 
ATOM     23  C   UNL     1      -0.519  10.690  22.764  0.00  0.00    +0.000 A 
ATOM     24  C   UNL     1      -0.500  11.376  21.550  0.00  0.00    +0.000 A 
ATOM     25  C   UNL     1       0.127  10.811  20.440  0.00  0.00    +0.000 A 
ENDBRANCH  17  20
ENDBRANCH  14  15
ENDBRANCH   3  14
TORSDOF 6
ENDMDL
