MODEL 1
REMARK VINA RESULT:      -9.1      0.000      0.000
REMARK  Name = 
REMARK  6 active torsions:
REMARK  status: ('A' for Active; 'I' for Inactive)
REMARK    1  A    between atoms: C_5  and  O_6
REMARK    2  A    between atoms: C_11  and  C_12
REMARK    3  A    between atoms: C_15  and  O_16
REMARK    4  A    between atoms: O_16  and  C_17
REMARK    5  A    between atoms: C_17  and  C_18
REMARK    6  A    between atoms: C_18  and  N_19
REMARK                            x       y       z     vdW  Elec       q    Type
REMARK                         _______ _______ _______ _____ _____    ______ ____
ROOT
ATOM      1  O   UNL     1      -4.958  13.022  19.113  0.00  0.00    +0.000 OA
ATOM      2  C   UNL     1      -3.999  12.386  19.022  0.00  0.00    +0.000 C 
ATOM      3  C   UNL     1      -3.582  11.486  17.873  0.00  0.00    +0.000 A 
ATOM      4  C   UNL     1      -4.249  11.187  16.647  0.00  0.00    +0.000 A 
ATOM      5  C   UNL     1      -3.622  10.296  15.729  0.00  0.00    +0.000 A 
ATOM      6  C   UNL     1      -2.415   9.729  16.023  0.00  0.00    +0.000 A 
ATOM      7  C   UNL     1      -1.841  10.022  17.244  0.00  0.00    +0.000 A 
ATOM      8  C   UNL     1      -2.462  10.929  18.165  0.00  0.00    +0.000 A 
ATOM      9  C   UNL     1      -1.907  11.393  19.468  0.00  0.00    +0.000 A 
ATOM     10  C   UNL     1      -0.747  11.108  20.173  0.00  0.00    +0.000 A 
ATOM     11  N   UNL     1      -0.551  11.661  21.390  0.00  0.00    +0.000 NA
ATOM     12  C   UNL     1      -1.504  12.552  21.914  0.00  0.00    +0.000 A 
ATOM     13  C   UNL     1      -1.208  13.130  23.166  0.00  0.00    +0.000 A 
ATOM     14  C   UNL     1      -1.982  14.029  23.947  0.00  0.00    +0.000 A 
ATOM     15  C   UNL     1      -3.160  14.575  23.857  0.00  0.00    +0.000 A 
ATOM     16  F   UNL     1      -3.343  15.342  24.959  0.00  0.00    +0.000 F 
ATOM     17  C   UNL     1      -3.579  13.886  22.168  0.00  0.00    +0.000 A 
ATOM     18  C   UNL     1      -2.714  12.897  21.304  0.00  0.00    +0.000 A 
ATOM     19  C   UNL     1      -2.848  12.281  20.059  0.00  0.00    +0.000 A 
ENDROOT
BRANCH  10  20
ATOM     20  C   UNL     1       0.331  10.222  19.735  0.00  0.00    +0.000 A 
ATOM     21  C   UNL     1       1.101  10.479  18.605  0.00  0.00    +0.000 A 
ATOM     22  C   UNL     1       1.815   9.492  17.923  0.00  0.00    +0.000 A 
ATOM     23  C   UNL     1       2.172   8.363  18.604  0.00  0.00    +0.000 A 
ATOM     24  C   UNL     1       1.713   8.239  19.914  0.00  0.00    +0.000 A 
ATOM     25  C   UNL     1       0.706   9.078  20.416  0.00  0.00    +0.000 A 
BRANCH  23  26
ATOM     26  O   UNL     1       2.955   7.392  18.048  0.00  0.00    +0.000 OA
BRANCH  26  27
ATOM     27  C   UNL     1       2.386   6.073  18.095  0.00  0.00    +0.000 C 
BRANCH  27  28
ATOM     28  C   UNL     1       3.260   5.173  18.958  0.00  0.00    +0.000 C 
BRANCH  28  29
ATOM     29  N   UNL     1       2.798   3.770  18.961  0.00  0.00    +0.000 NA
ATOM     30  C   UNL     1       1.327   3.692  19.064  0.00  0.00    +0.000 C 
ATOM     31  C   UNL     1       1.065   3.862  20.543  0.00  0.00    +0.000 C 
ATOM     32  C   UNL     1       2.164   3.008  21.160  0.00  0.00    +0.000 C 
ATOM     33  C   UNL     1       3.329   3.119  20.180  0.00  0.00    +0.000 C 
ENDBRANCH  28  29
ENDBRANCH  27  28
ENDBRANCH  26  27
ENDBRANCH  23  26
ENDBRANCH  10  20
BRANCH   5  34
ATOM     34  O   UNL     1      -4.174   9.949  14.531  0.00  0.00    +0.000 OA
ATOM     35  H   UNL     1      -3.569  10.076  13.782  0.00  0.00    +0.000 HD
ENDBRANCH   5  34
TORSDOF 6
ENDMDL
MODEL 2
REMARK VINA RESULT:      -8.9      1.432      2.142
REMARK  Name = 
REMARK  6 active torsions:
REMARK  status: ('A' for Active; 'I' for Inactive)
REMARK    1  A    between atoms: C_5  and  O_6
REMARK    2  A    between atoms: C_11  and  C_12
REMARK    3  A    between atoms: C_15  and  O_16
REMARK    4  A    between atoms: O_16  and  C_17
REMARK    5  A    between atoms: C_17  and  C_18
REMARK    6  A    between atoms: C_18  and  N_19
REMARK                            x       y       z     vdW  Elec       q    Type
REMARK                         _______ _______ _______ _____ _____    ______ ____
ROOT
ATOM      1  O   UNL     1      -5.081  12.972  19.160  0.00  0.00    +0.000 OA
ATOM      2  C   UNL     1      -4.104  12.369  19.039  0.00  0.00    +0.000 C 
ATOM      3  C   UNL     1      -3.676  11.513  17.862  0.00  0.00    +0.000 A 
ATOM      4  C   UNL     1      -4.352  11.224  16.638  0.00  0.00    +0.000 A 
ATOM      5  C   UNL     1      -3.711  10.376  15.688  0.00  0.00    +0.000 A 
ATOM      6  C   UNL     1      -2.482   9.841  15.951  0.00  0.00    +0.000 A 
ATOM      7  C   UNL     1      -1.900  10.120  17.171  0.00  0.00    +0.000 A 
ATOM      8  C   UNL     1      -2.535  10.984  18.123  0.00  0.00    +0.000 A 
ATOM      9  C   UNL     1      -1.975  11.431  19.430  0.00  0.00    +0.000 A 
ATOM     10  C   UNL     1      -0.797  11.166  20.111  0.00  0.00    +0.000 A 
ATOM     11  N   UNL     1      -0.600  11.694  21.339  0.00  0.00    +0.000 NA
ATOM     12  C   UNL     1      -1.573  12.541  21.900  0.00  0.00    +0.000 A 
ATOM     13  C   UNL     1      -1.276  13.096  23.162  0.00  0.00    +0.000 A 
ATOM     14  C   UNL     1      -2.066  13.950  23.976  0.00  0.00    +0.000 A 
ATOM     15  C   UNL     1      -3.262  14.460  23.917  0.00  0.00    +0.000 A 
ATOM     16  F   UNL     1      -3.453  15.193  25.041  0.00  0.00    +0.000 F 
ATOM     17  C   UNL     1      -3.684  13.802  22.217  0.00  0.00    +0.000 A 
ATOM     18  C   UNL     1      -2.802  12.863  21.315  0.00  0.00    +0.000 A 
ATOM     19  C   UNL     1      -2.935  12.275  20.056  0.00  0.00    +0.000 A 
ENDROOT
BRANCH  10  20
ATOM     20  C   UNL     1       0.302  10.326  19.635  0.00  0.00    +0.000 A 
ATOM     21  C   UNL     1       1.165  10.724  18.620  0.00  0.00    +0.000 A 
ATOM     22  C   UNL     1       1.919   9.828  17.859  0.00  0.00    +0.000 A 
ATOM     23  C   UNL     1       2.205   8.603  18.395  0.00  0.00    +0.000 A 
ATOM     24  C   UNL     1       1.638   8.304  19.632  0.00  0.00    +0.000 A 
ATOM     25  C   UNL     1       0.605   9.087  20.171  0.00  0.00    +0.000 A 
BRANCH  23  26
ATOM     26  O   UNL     1       3.018   7.704  17.767  0.00  0.00    +0.000 OA
BRANCH  26  27
ATOM     27  C   UNL     1       3.393   6.578  18.578  0.00  0.00    +0.000 C 
BRANCH  27  28
ATOM     28  C   UNL     1       3.536   5.343  17.698  0.00  0.00    +0.000 C 
BRANCH  28  29
ATOM     29  N   UNL     1       4.946   4.943  17.510  0.00  0.00    +0.000 NA
ATOM     30  C   UNL     1       5.737   6.037  16.913  0.00  0.00    +0.000 C 
ATOM     31  C   UNL     1       5.430   5.932  15.436  0.00  0.00    +0.000 C 
ATOM     32  C   UNL     1       5.464   4.427  15.212  0.00  0.00    +0.000 C 
ATOM     33  C   UNL     1       4.976   3.833  16.531  0.00  0.00    +0.000 C 
ENDBRANCH  28  29
ENDBRANCH  27  28
ENDBRANCH  26  27
ENDBRANCH  23  26
ENDBRANCH  10  20
BRANCH   5  34
ATOM     34  O   UNL     1      -4.269  10.043  14.490  0.00  0.00    +0.000 OA
ATOM     35  H   UNL     1      -4.385  10.806  13.899  0.00  0.00    +0.000 HD
ENDBRANCH   5  34
TORSDOF 6
ENDMDL
MODEL 3
REMARK VINA RESULT:      -8.8      0.745      1.035
REMARK  Name = 
REMARK  6 active torsions:
REMARK  status: ('A' for Active; 'I' for Inactive)
REMARK    1  A    between atoms: C_5  and  O_6
REMARK    2  A    between atoms: C_11  and  C_12
REMARK    3  A    between atoms: C_15  and  O_16
REMARK    4  A    between atoms: O_16  and  C_17
REMARK    5  A    between atoms: C_17  and  C_18
REMARK    6  A    between atoms: C_18  and  N_19
REMARK                            x       y       z     vdW  Elec       q    Type
REMARK                         _______ _______ _______ _____ _____    ______ ____
ROOT
ATOM      1  O   UNL     1      -5.107  13.032  19.142  0.00  0.00    +0.000 OA
ATOM      2  C   UNL     1      -4.135  12.414  19.049  0.00  0.00    +0.000 C 
ATOM      3  C   UNL     1      -3.699  11.531  17.894  0.00  0.00    +0.000 A 
ATOM      4  C   UNL     1      -4.358  11.228  16.665  0.00  0.00    +0.000 A 
ATOM      5  C   UNL     1      -3.712  10.355  15.741  0.00  0.00    +0.000 A 
ATOM      6  C   UNL     1      -2.495   9.809  16.035  0.00  0.00    +0.000 A 
ATOM      7  C   UNL     1      -1.930  10.103  17.259  0.00  0.00    +0.000 A 
ATOM      8  C   UNL     1      -2.570  10.992  18.184  0.00  0.00    +0.000 A 
ATOM      9  C   UNL     1      -2.026  11.456  19.492  0.00  0.00    +0.000 A 
ATOM     10  C   UNL     1      -0.862  11.189  20.198  0.00  0.00    +0.000 A 
ATOM     11  N   UNL     1      -0.679  11.736  21.419  0.00  0.00    +0.000 NA
ATOM     12  C   UNL     1      -1.650  12.606  21.948  0.00  0.00    +0.000 A 
ATOM     13  C   UNL     1      -1.367  13.180  23.205  0.00  0.00    +0.000 A 
ATOM     14  C   UNL     1      -2.160  14.059  23.990  0.00  0.00    +0.000 A 
ATOM     15  C   UNL     1      -3.348  14.583  23.901  0.00  0.00    +0.000 A 
ATOM     16  F   UNL     1      -3.548  15.339  25.008  0.00  0.00    +0.000 F 
ATOM     17  C   UNL     1      -3.750  13.899  22.207  0.00  0.00    +0.000 A 
ATOM     18  C   UNL     1      -2.865  12.933  21.337  0.00  0.00    +0.000 A 
ATOM     19  C   UNL     1      -2.985  12.323  20.087  0.00  0.00    +0.000 A 
ENDROOT
BRANCH  10  20
ATOM     20  C   UNL     1       0.232  10.326  19.756  0.00  0.00    +0.000 A 
ATOM     21  C   UNL     1       1.014  10.616  18.642  0.00  0.00    +0.000 A 
ATOM     22  C   UNL     1       1.750   9.653  17.949  0.00  0.00    +0.000 A 
ATOM     23  C   UNL     1       2.113   8.514  18.612  0.00  0.00    +0.000 A 
ATOM     24  C   UNL     1       1.638   8.357  19.912  0.00  0.00    +0.000 A 
ATOM     25  C   UNL     1       0.614   9.173  20.419  0.00  0.00    +0.000 A 
BRANCH  23  26
ATOM     26  O   UNL     1       2.916   7.566  18.046  0.00  0.00    +0.000 OA
BRANCH  26  27
ATOM     27  C   UNL     1       3.142   6.412  18.873  0.00  0.00    +0.000 C 
BRANCH  27  28
ATOM     28  C   UNL     1       4.159   5.498  18.203  0.00  0.00    +0.000 C 
BRANCH  28  29
ATOM     29  N   UNL     1       4.071   4.104  18.684  0.00  0.00    +0.000 NA
ATOM     30  C   UNL     1       3.946   3.157  17.558  0.00  0.00    +0.000 C 
ATOM     31  C   UNL     1       2.476   3.211  17.210  0.00  0.00    +0.000 C 
ATOM     32  C   UNL     1       1.826   3.230  18.586  0.00  0.00    +0.000 C 
ATOM     33  C   UNL     1       2.823   3.973  19.470  0.00  0.00    +0.000 C 
ENDBRANCH  28  29
ENDBRANCH  27  28
ENDBRANCH  26  27
ENDBRANCH  23  26
ENDBRANCH  10  20
BRANCH   5  34
ATOM     34  O   UNL     1      -4.255  10.007  14.540  0.00  0.00    +0.000 OA
ATOM     35  H   UNL     1      -3.777  10.383  13.783  0.00  0.00    +0.000 HD
ENDBRANCH   5  34
TORSDOF 6
ENDMDL
MODEL 4
REMARK VINA RESULT:      -8.3      1.500      2.375
REMARK  Name = 
REMARK  6 active torsions:
REMARK  status: ('A' for Active; 'I' for Inactive)
REMARK    1  A    between atoms: C_5  and  O_6
REMARK    2  A    between atoms: C_11  and  C_12
REMARK    3  A    between atoms: C_15  and  O_16
REMARK    4  A    between atoms: O_16  and  C_17
REMARK    5  A    between atoms: C_17  and  C_18
REMARK    6  A    between atoms: C_18  and  N_19
REMARK                            x       y       z     vdW  Elec       q    Type
REMARK                         _______ _______ _______ _____ _____    ______ ____
ROOT
ATOM      1  O   UNL     1      -4.826  12.970  19.013  0.00  0.00    +0.000 OA
ATOM      2  C   UNL     1      -3.915  12.278  18.856  0.00  0.00    +0.000 C 
ATOM      3  C   UNL     1      -3.606  11.397  17.660  0.00  0.00    +0.000 A 
ATOM      4  C   UNL     1      -4.344  11.187  16.456  0.00  0.00    +0.000 A 
ATOM      5  C   UNL     1      -3.816  10.292  15.480  0.00  0.00    +0.000 A 
ATOM      6  C   UNL     1      -2.636   9.640  15.700  0.00  0.00    +0.000 A 
ATOM      7  C   UNL     1      -1.993   9.850  16.903  0.00  0.00    +0.000 A 
ATOM      8  C   UNL     1      -2.514  10.760  17.881  0.00  0.00    +0.000 A 
ATOM      9  C   UNL     1      -1.874  11.138  19.173  0.00  0.00    +0.000 A 
ATOM     10  C   UNL     1      -0.706  10.755  19.815  0.00  0.00    +0.000 A 
ATOM     11  N   UNL     1      -0.423  11.249  21.040  0.00  0.00    +0.000 NA
ATOM     12  C   UNL     1      -1.293  12.178  21.637  0.00  0.00    +0.000 A 
ATOM     13  C   UNL     1      -0.906  12.689  22.894  0.00  0.00    +0.000 A 
ATOM     14  C   UNL     1      -1.587  13.606  23.739  0.00  0.00    +0.000 A 
ATOM     15  C   UNL     1      -2.730  14.228  23.721  0.00  0.00    +0.000 A 
ATOM     16  F   UNL     1      -2.815  14.964  24.856  0.00  0.00    +0.000 F 
ATOM     17  C   UNL     1      -3.264  13.631  22.031  0.00  0.00    +0.000 A 
ATOM     18  C   UNL     1      -2.503  12.622  21.094  0.00  0.00    +0.000 A 
ATOM     19  C   UNL     1      -2.729  12.062  19.836  0.00  0.00    +0.000 A 
ENDROOT
BRANCH  10  20
ATOM     20  C   UNL     1       0.292   9.819  19.299  0.00  0.00    +0.000 A 
ATOM     21  C   UNL     1       0.647   8.655  19.972  0.00  0.00    +0.000 A 
ATOM     22  C   UNL     1       1.851   7.981  19.757  0.00  0.00    +0.000 A 
ATOM     23  C   UNL     1       2.488   8.158  18.561  0.00  0.00    +0.000 A 
ATOM     24  C   UNL     1       1.931   9.077  17.675  0.00  0.00    +0.000 A 
ATOM     25  C   UNL     1       0.941   9.983  18.089  0.00  0.00    +0.000 A 
BRANCH  23  26
ATOM     26  O   UNL     1       3.615   7.464  18.225  0.00  0.00    +0.000 OA
BRANCH  26  27
ATOM     27  C   UNL     1       3.537   6.051  18.479  0.00  0.00    +0.000 C 
BRANCH  27  28
ATOM     28  C   UNL     1       4.916   5.526  18.856  0.00  0.00    +0.000 C 
BRANCH  28  29
ATOM     29  N   UNL     1       5.407   4.498  17.916  0.00  0.00    +0.000 NA
ATOM     30  C   UNL     1       6.840   4.690  17.613  0.00  0.00    +0.000 C 
ATOM     31  C   UNL     1       6.838   5.768  16.553  0.00  0.00    +0.000 C 
ATOM     32  C   UNL     1       5.671   5.343  15.673  0.00  0.00    +0.000 C 
ATOM     33  C   UNL     1       4.690   4.676  16.632  0.00  0.00    +0.000 C 
ENDBRANCH  28  29
ENDBRANCH  27  28
ENDBRANCH  26  27
ENDBRANCH  23  26
ENDBRANCH  10  20
BRANCH   5  34
ATOM     34  O   UNL     1      -4.439  10.027  14.297  0.00  0.00    +0.000 OA
ATOM     35  H   UNL     1      -5.127  10.676  14.075  0.00  0.00    +0.000 HD
ENDBRANCH   5  34
TORSDOF 6
ENDMDL
MODEL 5
REMARK VINA RESULT:      -8.2      0.926      1.328
REMARK  Name = 
REMARK  6 active torsions:
REMARK  status: ('A' for Active; 'I' for Inactive)
REMARK    1  A    between atoms: C_5  and  O_6
REMARK    2  A    between atoms: C_11  and  C_12
REMARK    3  A    between atoms: C_15  and  O_16
REMARK    4  A    between atoms: O_16  and  C_17
REMARK    5  A    between atoms: C_17  and  C_18
REMARK    6  A    between atoms: C_18  and  N_19
REMARK                            x       y       z     vdW  Elec       q    Type
REMARK                         _______ _______ _______ _____ _____    ______ ____
ROOT
ATOM      1  O   UNL     1      -4.904  13.040  18.993  0.00  0.00    +0.000 OA
ATOM      2  C   UNL     1      -3.996  12.337  18.859  0.00  0.00    +0.000 C 
ATOM      3  C   UNL     1      -3.676  11.444  17.675  0.00  0.00    +0.000 A 
ATOM      4  C   UNL     1      -4.394  11.231  16.460  0.00  0.00    +0.000 A 
ATOM      5  C   UNL     1      -3.858  10.323  15.500  0.00  0.00    +0.000 A 
ATOM      6  C   UNL     1      -2.689   9.661  15.747  0.00  0.00    +0.000 A 
ATOM      7  C   UNL     1      -2.065   9.874  16.959  0.00  0.00    +0.000 A 
ATOM      8  C   UNL     1      -2.594  10.797  17.921  0.00  0.00    +0.000 A 
ATOM      9  C   UNL     1      -1.973  11.180  19.221  0.00  0.00    +0.000 A 
ATOM     10  C   UNL     1      -0.821  10.790  19.887  0.00  0.00    +0.000 A 
ATOM     11  N   UNL     1      -0.554  11.291  21.112  0.00  0.00    +0.000 NA
ATOM     12  C   UNL     1      -1.425  12.234  21.687  0.00  0.00    +0.000 A 
ATOM     13  C   UNL     1      -1.056  12.752  22.946  0.00  0.00    +0.000 A 
ATOM     14  C   UNL     1      -1.742  13.682  23.771  0.00  0.00    +0.000 A 
ATOM     15  C   UNL     1      -2.878  14.315  23.728  0.00  0.00    +0.000 A 
ATOM     16  F   UNL     1      -2.976  15.061  24.855  0.00  0.00    +0.000 F 
ATOM     17  C   UNL     1      -3.389  13.709  22.033  0.00  0.00    +0.000 A 
ATOM     18  C   UNL     1      -2.621  12.685  21.119  0.00  0.00    +0.000 A 
ATOM     19  C   UNL     1      -2.831  12.118  19.861  0.00  0.00    +0.000 A 
ENDROOT
BRANCH  10  20
ATOM     20  C   UNL     1       0.176   9.840  19.396  0.00  0.00    +0.000 A 
ATOM     21  C   UNL     1       0.596   8.742  20.140  0.00  0.00    +0.000 A 
ATOM     22  C   UNL     1       1.806   8.082  19.918  0.00  0.00    +0.000 A 
ATOM     23  C   UNL     1       2.379   8.178  18.680  0.00  0.00    +0.000 A 
ATOM     24  C   UNL     1       1.754   9.010  17.754  0.00  0.00    +0.000 A 
ATOM     25  C   UNL     1       0.761   9.922  18.145  0.00  0.00    +0.000 A 
BRANCH  23  26
ATOM     26  O   UNL     1       3.507   7.486  18.343  0.00  0.00    +0.000 OA
BRANCH  26  27
ATOM     27  C   UNL     1       3.260   6.177  17.804  0.00  0.00    +0.000 C 
BRANCH  27  28
ATOM     28  C   UNL     1       3.339   5.145  18.921  0.00  0.00    +0.000 C 
BRANCH  28  29
ATOM     29  N   UNL     1       4.231   4.015  18.586  0.00  0.00    +0.000 NA
ATOM     30  C   UNL     1       3.865   3.413  17.289  0.00  0.00    +0.000 C 
ATOM     31  C   UNL     1       2.711   2.499  17.633  0.00  0.00    +0.000 C 
ATOM     32  C   UNL     1       3.183   1.872  18.938  0.00  0.00    +0.000 C 
ATOM     33  C   UNL     1       4.025   2.957  19.602  0.00  0.00    +0.000 C 
ENDBRANCH  28  29
ENDBRANCH  27  28
ENDBRANCH  26  27
ENDBRANCH  23  26
ENDBRANCH  10  20
BRANCH   5  34
ATOM     34  O   UNL     1      -4.463  10.054  14.309  0.00  0.00    +0.000 OA
ATOM     35  H   UNL     1      -5.049  10.769  14.009  0.00  0.00    +0.000 HD
ENDBRANCH   5  34
TORSDOF 6
ENDMDL
MODEL 6
REMARK VINA RESULT:      -8.1      1.916      2.618
REMARK  Name = 
REMARK  6 active torsions:
REMARK  status: ('A' for Active; 'I' for Inactive)
REMARK    1  A    between atoms: C_5  and  O_6
REMARK    2  A    between atoms: C_11  and  C_12
REMARK    3  A    between atoms: C_15  and  O_16
REMARK    4  A    between atoms: O_16  and  C_17
REMARK    5  A    between atoms: C_17  and  C_18
REMARK    6  A    between atoms: C_18  and  N_19
REMARK                            x       y       z     vdW  Elec       q    Type
REMARK                         _______ _______ _______ _____ _____    ______ ____
ROOT
ATOM      1  O   UNL     1      -4.609  13.206  18.974  0.00  0.00    +0.000 OA
ATOM      2  C   UNL     1      -3.706  12.490  18.893  0.00  0.00    +0.000 C 
ATOM      3  C   UNL     1      -3.402  11.495  17.787  0.00  0.00    +0.000 A 
ATOM      4  C   UNL     1      -4.133  11.182  16.602  0.00  0.00    +0.000 A 
ATOM      5  C   UNL     1      -3.611  10.192  15.720  0.00  0.00    +0.000 A 
ATOM      6  C   UNL     1      -2.443   9.546  16.012  0.00  0.00    +0.000 A 
ATOM      7  C   UNL     1      -1.806   9.860  17.196  0.00  0.00    +0.000 A 
ATOM      8  C   UNL     1      -2.321  10.866  18.078  0.00  0.00    +0.000 A 
ATOM      9  C   UNL     1      -1.686  11.356  19.335  0.00  0.00    +0.000 A 
ATOM     10  C   UNL     1      -0.529  11.018  20.021  0.00  0.00    +0.000 A 
ATOM     11  N   UNL     1      -0.248  11.622  21.196  0.00  0.00    +0.000 NA
ATOM     12  C   UNL     1      -1.109  12.616  21.695  0.00  0.00    +0.000 A 
ATOM     13  C   UNL     1      -0.725  13.238  22.901  0.00  0.00    +0.000 A 
ATOM     14  C   UNL     1      -1.398  14.240  23.650  0.00  0.00    +0.000 A 
ATOM     15  C   UNL     1      -2.531  14.874  23.562  0.00  0.00    +0.000 A 
ATOM     16  F   UNL     1      -2.614  15.716  24.621  0.00  0.00    +0.000 F 
ATOM     17  C   UNL     1      -3.061  14.128  21.930  0.00  0.00    +0.000 A 
ATOM     18  C   UNL     1      -2.307  13.024  21.101  0.00  0.00    +0.000 A 
ATOM     19  C   UNL     1      -2.533  12.351  19.899  0.00  0.00    +0.000 A 
ENDROOT
BRANCH  10  20
ATOM     20  C   UNL     1       0.458  10.023  19.605  0.00  0.00    +0.000 A 
ATOM     21  C   UNL     1       1.181  10.134  18.421  0.00  0.00    +0.000 A 
ATOM     22  C   UNL     1       1.786   9.046  17.788  0.00  0.00    +0.000 A 
ATOM     23  C   UNL     1       2.101   7.950  18.542  0.00  0.00    +0.000 A 
ATOM     24  C   UNL     1       1.707   7.964  19.878  0.00  0.00    +0.000 A 
ATOM     25  C   UNL     1       0.790   8.913  20.359  0.00  0.00    +0.000 A 
BRANCH  23  26
ATOM     26  O   UNL     1       2.783   6.884  18.030  0.00  0.00    +0.000 OA
BRANCH  26  27
ATOM     27  C   UNL     1       4.093   7.204  17.530  0.00  0.00    +0.000 C 
BRANCH  27  28
ATOM     28  C   UNL     1       4.993   5.981  17.647  0.00  0.00    +0.000 C 
BRANCH  28  29
ATOM     29  N   UNL     1       6.275   6.152  16.932  0.00  0.00    +0.000 NA
ATOM     30  C   UNL     1       7.325   5.286  17.504  0.00  0.00    +0.000 C 
ATOM     31  C   UNL     1       7.806   6.060  18.710  0.00  0.00    +0.000 C 
ATOM     32  C   UNL     1       7.857   7.483  18.174  0.00  0.00    +0.000 C 
ATOM     33  C   UNL     1       6.731   7.545  17.145  0.00  0.00    +0.000 C 
ENDBRANCH  28  29
ENDBRANCH  27  28
ENDBRANCH  26  27
ENDBRANCH  23  26
ENDBRANCH  10  20
BRANCH   5  34
ATOM     34  O   UNL     1      -4.229   9.824  14.562  0.00  0.00    +0.000 OA
ATOM     35  H   UNL     1      -5.047  10.321  14.392  0.00  0.00    +0.000 HD
ENDBRANCH   5  34
TORSDOF 6
ENDMDL
MODEL 7
REMARK VINA RESULT:      -8.1      1.706      2.314
REMARK  Name = 
REMARK  6 active torsions:
REMARK  status: ('A' for Active; 'I' for Inactive)
REMARK    1  A    between atoms: C_5  and  O_6
REMARK    2  A    between atoms: C_11  and  C_12
REMARK    3  A    between atoms: C_15  and  O_16
REMARK    4  A    between atoms: O_16  and  C_17
REMARK    5  A    between atoms: C_17  and  C_18
REMARK    6  A    between atoms: C_18  and  N_19
REMARK                            x       y       z     vdW  Elec       q    Type
REMARK                         _______ _______ _______ _____ _____    ______ ____
ROOT
ATOM      1  O   UNL     1      -5.696  13.094  18.436  0.00  0.00    +0.000 OA
ATOM      2  C   UNL     1      -4.720  12.499  18.601  0.00  0.00    +0.000 C 
ATOM      3  C   UNL     1      -4.014  11.576  17.625  0.00  0.00    +0.000 A 
ATOM      4  C   UNL     1      -4.365  11.201  16.293  0.00  0.00    +0.000 A 
ATOM      5  C   UNL     1      -3.509  10.304  15.589  0.00  0.00    +0.000 A 
ATOM      6  C   UNL     1      -2.385   9.804  16.184  0.00  0.00    +0.000 A 
ATOM      7  C   UNL     1      -2.124  10.169  17.489  0.00  0.00    +0.000 A 
ATOM      8  C   UNL     1      -2.975  11.082  18.195  0.00  0.00    +0.000 A 
ATOM      9  C   UNL     1      -2.757  11.619  19.569  0.00  0.00    +0.000 A 
ATOM     10  C   UNL     1      -1.786  11.415  20.537  0.00  0.00    +0.000 A 
ATOM     11  N   UNL     1      -1.900  12.022  21.738  0.00  0.00    +0.000 NA
ATOM     12  C   UNL     1      -2.981  12.888  21.983  0.00  0.00    +0.000 A 
ATOM     13  C   UNL     1      -3.007  13.527  23.241  0.00  0.00    +0.000 A 
ATOM     14  C   UNL     1      -3.973  14.419  23.776  0.00  0.00    +0.000 A 
ATOM     15  C   UNL     1      -5.116  14.907  23.388  0.00  0.00    +0.000 A 
ATOM     16  F   UNL     1      -5.579  15.707  24.379  0.00  0.00    +0.000 F 
ATOM     17  C   UNL     1      -5.103  14.136  21.683  0.00  0.00    +0.000 A 
ATOM     18  C   UNL     1      -4.025  13.155  21.092  0.00  0.00    +0.000 A 
ATOM     19  C   UNL     1      -3.841  12.486  19.881  0.00  0.00    +0.000 A 
ENDROOT
BRANCH  10  20
ATOM     20  C   UNL     1      -0.605  10.562  20.405  0.00  0.00    +0.000 A 
ATOM     21  C   UNL     1       0.374  10.782  19.442  0.00  0.00    +0.000 A 
ATOM     22  C   UNL     1       1.256   9.791  19.004  0.00  0.00    +0.000 A 
ATOM     23  C   UNL     1       1.507   8.735  19.834  0.00  0.00    +0.000 A 
ATOM     24  C   UNL     1       0.787   8.678  21.025  0.00  0.00    +0.000 A 
ATOM     25  C   UNL     1      -0.337   9.492  21.239  0.00  0.00    +0.000 A 
BRANCH  23  26
ATOM     26  O   UNL     1       2.428   7.773  19.532  0.00  0.00    +0.000 OA
BRANCH  26  27
ATOM     27  C   UNL     1       2.641   7.579  18.123  0.00  0.00    +0.000 C 
BRANCH  27  28
ATOM     28  C   UNL     1       2.982   6.119  17.857  0.00  0.00    +0.000 C 
BRANCH  28  29
ATOM     29  N   UNL     1       4.429   5.845  17.972  0.00  0.00    +0.000 NA
ATOM     30  C   UNL     1       5.219   6.797  17.166  0.00  0.00    +0.000 C 
ATOM     31  C   UNL     1       5.144   6.226  15.768  0.00  0.00    +0.000 C 
ATOM     32  C   UNL     1       5.320   4.736  16.025  0.00  0.00    +0.000 C 
ATOM     33  C   UNL     1       4.685   4.507  17.394  0.00  0.00    +0.000 C 
ENDBRANCH  28  29
ENDBRANCH  27  28
ENDBRANCH  26  27
ENDBRANCH  23  26
ENDBRANCH  10  20
BRANCH   5  34
ATOM     34  O   UNL     1      -3.752   9.888  14.315  0.00  0.00    +0.000 OA
ATOM     35  H   UNL     1      -4.390   9.157  14.268  0.00  0.00    +0.000 HD
ENDBRANCH   5  34
TORSDOF 6
ENDMDL
MODEL 8
REMARK VINA RESULT:      -7.9      4.503     10.340
REMARK  Name = 
REMARK  6 active torsions:
REMARK  status: ('A' for Active; 'I' for Inactive)
REMARK    1  A    between atoms: C_5  and  O_6
REMARK    2  A    between atoms: C_11  and  C_12
REMARK    3  A    between atoms: C_15  and  O_16
REMARK    4  A    between atoms: O_16  and  C_17
REMARK    5  A    between atoms: C_17  and  C_18
REMARK    6  A    between atoms: C_18  and  N_19
REMARK                            x       y       z     vdW  Elec       q    Type
REMARK                         _______ _______ _______ _____ _____    ______ ____
ROOT
ATOM      1  O   UNL     1       4.215   1.649  17.974  0.00  0.00    +0.000 OA
ATOM      2  C   UNL     1       3.788   2.689  18.240  0.00  0.00    +0.000 C 
ATOM      3  C   UNL     1       2.860   3.051  19.385  0.00  0.00    +0.000 A 
ATOM      4  C   UNL     1       2.277   2.228  20.395  0.00  0.00    +0.000 A 
ATOM      5  C   UNL     1       1.429   2.836  21.366  0.00  0.00    +0.000 A 
ATOM      6  C   UNL     1       1.170   4.176  21.322  0.00  0.00    +0.000 A 
ATOM      7  C   UNL     1       1.726   4.911  20.294  0.00  0.00    +0.000 A 
ATOM      8  C   UNL     1       2.591   4.305  19.324  0.00  0.00    +0.000 A 
ATOM      9  C   UNL     1       3.319   5.000  18.224  0.00  0.00    +0.000 A 
ATOM     10  C   UNL     1       3.375   6.317  17.791  0.00  0.00    +0.000 A 
ATOM     11  N   UNL     1       4.104   6.631  16.699  0.00  0.00    +0.000 NA
ATOM     12  C   UNL     1       4.833   5.630  16.033  0.00  0.00    +0.000 A 
ATOM     13  C   UNL     1       5.612   6.042  14.931  0.00  0.00    +0.000 A 
ATOM     14  C   UNL     1       6.419   5.263  14.060  0.00  0.00    +0.000 A 
ATOM     15  C   UNL     1       6.690   3.999  13.912  0.00  0.00    +0.000 A 
ATOM     16  F   UNL     1       7.533   3.879  12.858  0.00  0.00    +0.000 F 
ATOM     17  C   UNL     1       5.723   3.404  15.400  0.00  0.00    +0.000 A 
ATOM     18  C   UNL     1       4.838   4.272  16.367  0.00  0.00    +0.000 A 
ATOM     19  C   UNL     1       4.057   4.025  17.497  0.00  0.00    +0.000 A 
ENDROOT
BRANCH  10  20
ATOM     20  C   UNL     1       2.687   7.453  18.403  0.00  0.00    +0.000 A 
ATOM     21  C   UNL     1       2.417   7.521  19.766  0.00  0.00    +0.000 A 
ATOM     22  C   UNL     1       1.422   8.336  20.311  0.00  0.00    +0.000 A 
ATOM     23  C   UNL     1       1.021   9.432  19.600  0.00  0.00    +0.000 A 
ATOM     24  C   UNL     1       1.573   9.604  18.333  0.00  0.00    +0.000 A 
ATOM     25  C   UNL     1       2.279   8.570  17.697  0.00  0.00    +0.000 A 
BRANCH  23  26
ATOM     26  O   UNL     1       0.128  10.338  20.098  0.00  0.00    +0.000 OA
BRANCH  26  27
ATOM     27  C   UNL     1       0.260  11.661  19.552  0.00  0.00    +0.000 C 
BRANCH  27  28
ATOM     28  C   UNL     1      -0.838  11.897  18.524  0.00  0.00    +0.000 C 
BRANCH  28  29
ATOM     29  N   UNL     1      -1.924  10.899  18.615  0.00  0.00    +0.000 NA
ATOM     30  C   UNL     1      -1.965  10.043  17.414  0.00  0.00    +0.000 C 
ATOM     31  C   UNL     1      -2.717  10.881  16.405  0.00  0.00    +0.000 C 
ATOM     32  C   UNL     1      -3.830  11.477  17.256  0.00  0.00    +0.000 C 
ATOM     33  C   UNL     1      -3.211  11.630  18.643  0.00  0.00    +0.000 C 
ENDBRANCH  28  29
ENDBRANCH  27  28
ENDBRANCH  26  27
ENDBRANCH  23  26
ENDBRANCH  10  20
BRANCH   5  34
ATOM     34  O   UNL     1       0.828   2.140  22.372  0.00  0.00    +0.000 OA
ATOM     35  H   UNL     1       0.340   1.361  22.058  0.00  0.00    +0.000 HD
ENDBRANCH   5  34
TORSDOF 6
ENDMDL
MODEL 9
REMARK VINA RESULT:      -7.7      4.512     10.464
REMARK  Name = 
REMARK  6 active torsions:
REMARK  status: ('A' for Active; 'I' for Inactive)
REMARK    1  A    between atoms: C_5  and  O_6
REMARK    2  A    between atoms: C_11  and  C_12
REMARK    3  A    between atoms: C_15  and  O_16
REMARK    4  A    between atoms: O_16  and  C_17
REMARK    5  A    between atoms: C_17  and  C_18
REMARK    6  A    between atoms: C_18  and  N_19
REMARK                            x       y       z     vdW  Elec       q    Type
REMARK                         _______ _______ _______ _____ _____    ______ ____
ROOT
ATOM      1  O   UNL     1       4.329   1.802  18.020  0.00  0.00    +0.000 OA
ATOM      2  C   UNL     1       3.856   2.822  18.283  0.00  0.00    +0.000 C 
ATOM      3  C   UNL     1       2.891   3.140  19.409  0.00  0.00    +0.000 A 
ATOM      4  C   UNL     1       2.319   2.288  20.401  0.00  0.00    +0.000 A 
ATOM      5  C   UNL     1       1.427   2.857  21.357  0.00  0.00    +0.000 A 
ATOM      6  C   UNL     1       1.117   4.186  21.315  0.00  0.00    +0.000 A 
ATOM      7  C   UNL     1       1.666   4.949  20.304  0.00  0.00    +0.000 A 
ATOM      8  C   UNL     1       2.574   4.384  19.349  0.00  0.00    +0.000 A 
ATOM      9  C   UNL     1       3.298   5.114  18.270  0.00  0.00    +0.000 A 
ATOM     10  C   UNL     1       3.312   6.434  17.846  0.00  0.00    +0.000 A 
ATOM     11  N   UNL     1       4.051   6.785  16.771  0.00  0.00    +0.000 NA
ATOM     12  C   UNL     1       4.833   5.817  16.116  0.00  0.00    +0.000 A 
ATOM     13  C   UNL     1       5.619   6.266  15.034  0.00  0.00    +0.000 A 
ATOM     14  C   UNL     1       6.474   5.525  14.175  0.00  0.00    +0.000 A 
ATOM     15  C   UNL     1       6.797   4.273  14.026  0.00  0.00    +0.000 A 
ATOM     16  F   UNL     1       7.666   4.194  12.989  0.00  0.00    +0.000 F 
ATOM     17  C   UNL     1       5.823   3.631  15.489  0.00  0.00    +0.000 A 
ATOM     18  C   UNL     1       4.884   4.458  16.442  0.00  0.00    +0.000 A 
ATOM     19  C   UNL     1       4.089   4.173  17.553  0.00  0.00    +0.000 A 
ENDROOT
BRANCH  10  20
ATOM     20  C   UNL     1       2.567   7.539  18.449  0.00  0.00    +0.000 A 
ATOM     21  C   UNL     1       2.405   7.672  19.824  0.00  0.00    +0.000 A 
ATOM     22  C   UNL     1       1.382   8.423  20.407  0.00  0.00    +0.000 A 
ATOM     23  C   UNL     1       0.817   9.428  19.672  0.00  0.00    +0.000 A 
ATOM     24  C   UNL     1       1.243   9.567  18.353  0.00  0.00    +0.000 A 
ATOM     25  C   UNL     1       1.994   8.564  17.719  0.00  0.00    +0.000 A 
BRANCH  23  26
ATOM     26  O   UNL     1      -0.117  10.277  20.194  0.00  0.00    +0.000 OA
BRANCH  26  27
ATOM     27  C   UNL     1       0.068  10.574  21.588  0.00  0.00    +0.000 C 
BRANCH  27  28
ATOM     28  C   UNL     1      -0.089  12.072  21.813  0.00  0.00    +0.000 C 
BRANCH  28  29
ATOM     29  N   UNL     1      -0.792  12.385  23.075  0.00  0.00    +0.000 NA
ATOM     30  C   UNL     1      -2.109  11.720  23.131  0.00  0.00    +0.000 C 
ATOM     31  C   UNL     1      -3.002  12.631  22.319  0.00  0.00    +0.000 C 
ATOM     32  C   UNL     1      -2.549  14.010  22.779  0.00  0.00    +0.000 C 
ATOM     33  C   UNL     1      -1.065  13.840  23.094  0.00  0.00    +0.000 C 
ENDBRANCH  28  29
ENDBRANCH  27  28
ENDBRANCH  26  27
ENDBRANCH  23  26
ENDBRANCH  10  20
BRANCH   5  34
ATOM     34  O   UNL     1       0.833   2.131  22.346  0.00  0.00    +0.000 OA
ATOM     35  H   UNL     1       1.466   1.624  22.881  0.00  0.00    +0.000 HD
ENDBRANCH   5  34
TORSDOF 6
ENDMDL
