MODEL 1
REMARK VINA RESULT:      -9.2      0.000      0.000
REMARK  Name = 
REMARK  3 active torsions:
REMARK  status: ('A' for Active; 'I' for Inactive)
REMARK    1  A    between atoms: C_2  and  C_3
REMARK    2  A    between atoms: C_3  and  C_4
REMARK    3  A    between atoms: C_16  and  N_17
REMARK                            x       y       z     vdW  Elec       q    Type
REMARK                         _______ _______ _______ _____ _____    ______ ____
ROOT
ATOM      1  O   UNL     1       1.007   9.178  21.382  0.00  0.00    +0.000 OA
ATOM      2  C   UNL     1       1.358   9.050  20.206  0.00  0.00    +0.000 C 
ATOM      3  N   UNL     1       1.723   7.819  19.665  0.00  0.00    +0.000 N 
ATOM      4  C   UNL     1       2.276   7.693  18.324  0.00  0.00    +0.000 C 
ATOM      5  C   UNL     1       1.977   6.348  17.678  0.00  0.00    +0.000 C 
ATOM      6  C   UNL     1       2.380   5.180  18.570  0.00  0.00    +0.000 C 
ATOM      7  C   UNL     1       1.658   5.365  19.926  0.00  0.00    +0.000 C 
ATOM      8  C   UNL     1       1.973   6.705  20.576  0.00  0.00    +0.000 C 
ENDROOT
BRANCH   6   9
ATOM      9  N   UNL     1       3.807   4.904  18.711  0.00  0.00    +0.000 N 
ATOM     10  C   UNL     1       4.260   3.705  19.329  0.00  0.00    +0.000 A 
ATOM     11  O   UNL     1       3.590   2.804  19.807  0.00  0.00    +0.000 OA
ATOM     12  N   UNL     1       5.652   3.723  19.296  0.00  0.00    +0.000 N 
ATOM     13  C   UNL     1       6.075   4.855  18.624  0.00  0.00    +0.000 A 
ATOM     14  C   UNL     1       7.371   5.229  18.357  0.00  0.00    +0.000 A 
ATOM     15  C   UNL     1       7.563   6.410  17.644  0.00  0.00    +0.000 A 
ATOM     16  C   UNL     1       6.454   7.155  17.206  0.00  0.00    +0.000 A 
ATOM     17  C   UNL     1       5.145   6.732  17.467  0.00  0.00    +0.000 A 
ATOM     18  C   UNL     1       4.950   5.585  18.216  0.00  0.00    +0.000 A 
ATOM     19  H   UNL     1       6.224   2.990  19.678  0.00  0.00    +0.000 HD
ENDBRANCH   6   9
BRANCH   2  20
ATOM     20  C   UNL     1       1.298  10.246  19.258  0.00  0.00    +0.000 C 
BRANCH  20  21
ATOM     21  C   UNL     1      -0.099  10.433  18.756  0.00  0.00    +0.000 A 
ATOM     22  C   UNL     1      -1.172  11.103  19.309  0.00  0.00    +0.000 A 
ATOM     23  C   UNL     1      -2.248  11.047  18.384  0.00  0.00    +0.000 A 
ATOM     24  C   UNL     1      -3.561  11.556  18.377  0.00  0.00    +0.000 A 
ATOM     25  C   UNL     1      -4.381  11.318  17.269  0.00  0.00    +0.000 A 
ATOM     26  C   UNL     1      -3.912  10.587  16.180  0.00  0.00    +0.000 A 
ATOM     27  C   UNL     1      -2.611  10.073  16.163  0.00  0.00    +0.000 A 
ATOM     28  C   UNL     1      -1.806  10.319  17.281  0.00  0.00    +0.000 A 
ATOM     29  N   UNL     1      -0.510   9.941  17.538  0.00  0.00    +0.000 N 
ATOM     30  H   UNL     1       0.071   9.414  16.897  0.00  0.00    +0.000 HD
ENDBRANCH  20  21
ENDBRANCH   2  20
TORSDOF 3
ENDMDL
MODEL 2
REMARK VINA RESULT:      -9.0      2.248      8.777
REMARK  Name = 
REMARK  3 active torsions:
REMARK  status: ('A' for Active; 'I' for Inactive)
REMARK    1  A    between atoms: C_2  and  C_3
REMARK    2  A    between atoms: C_3  and  C_4
REMARK    3  A    between atoms: C_16  and  N_17
REMARK                            x       y       z     vdW  Elec       q    Type
REMARK                         _______ _______ _______ _____ _____    ______ ____
ROOT
ATOM      1  O   UNL     1       1.444   7.219  20.994  0.00  0.00    +0.000 OA
ATOM      2  C   UNL     1       1.567   8.020  20.063  0.00  0.00    +0.000 C 
ATOM      3  N   UNL     1       0.974   9.282  20.080  0.00  0.00    +0.000 N 
ATOM      4  C   UNL     1       0.997  10.166  18.924  0.00  0.00    +0.000 C 
ATOM      5  C   UNL     1       0.945  11.640  19.299  0.00  0.00    +0.000 C 
ATOM      6  C   UNL     1      -0.218  11.956  20.231  0.00  0.00    +0.000 C 
ATOM      7  C   UNL     1      -0.083  11.031  21.464  0.00  0.00    +0.000 C 
ATOM      8  C   UNL     1      -0.048   9.557  21.087  0.00  0.00    +0.000 C 
ENDROOT
BRANCH   6   9
ATOM      9  N   UNL     1      -1.560  11.956  19.656  0.00  0.00    +0.000 N 
ATOM     10  C   UNL     1      -2.574  12.811  20.170  0.00  0.00    +0.000 A 
ATOM     11  O   UNL     1      -2.495  13.601  21.097  0.00  0.00    +0.000 OA
ATOM     12  N   UNL     1      -3.721  12.596  19.410  0.00  0.00    +0.000 N 
ATOM     13  C   UNL     1      -3.436  11.689  18.406  0.00  0.00    +0.000 A 
ATOM     14  C   UNL     1      -4.292  11.231  17.431  0.00  0.00    +0.000 A 
ATOM     15  C   UNL     1      -3.780  10.326  16.504  0.00  0.00    +0.000 A 
ATOM     16  C   UNL     1      -2.431   9.936  16.573  0.00  0.00    +0.000 A 
ATOM     17  C   UNL     1      -1.576  10.444  17.559  0.00  0.00    +0.000 A 
ATOM     18  C   UNL     1      -2.092  11.306  18.511  0.00  0.00    +0.000 A 
ATOM     19  H   UNL     1      -4.590  13.074  19.573  0.00  0.00    +0.000 HD
ENDBRANCH   6   9
BRANCH   2  20
ATOM     20  C   UNL     1       2.481   7.688  18.886  0.00  0.00    +0.000 C 
BRANCH  20  21
ATOM     21  C   UNL     1       2.650   6.206  18.771  0.00  0.00    +0.000 A 
ATOM     22  C   UNL     1       2.094   5.302  17.888  0.00  0.00    +0.000 A 
ATOM     23  C   UNL     1       2.652   4.024  18.159  0.00  0.00    +0.000 A 
ATOM     24  C   UNL     1       2.495   2.747  17.588  0.00  0.00    +0.000 A 
ATOM     25  C   UNL     1       3.225   1.671  18.107  0.00  0.00    +0.000 A 
ATOM     26  C   UNL     1       4.100   1.855  19.176  0.00  0.00    +0.000 A 
ATOM     27  C   UNL     1       4.274   3.115  19.757  0.00  0.00    +0.000 A 
ATOM     28  C   UNL     1       3.534   4.177  19.227  0.00  0.00    +0.000 A 
ATOM     29  N   UNL     1       3.501   5.502  19.593  0.00  0.00    +0.000 N 
ATOM     30  H   UNL     1       4.061   5.905  20.334  0.00  0.00    +0.000 HD
ENDBRANCH  20  21
ENDBRANCH   2  20
TORSDOF 3
ENDMDL
MODEL 3
REMARK VINA RESULT:      -9.0      0.633      1.161
REMARK  Name = 
REMARK  3 active torsions:
REMARK  status: ('A' for Active; 'I' for Inactive)
REMARK    1  A    between atoms: C_2  and  C_3
REMARK    2  A    between atoms: C_3  and  C_4
REMARK    3  A    between atoms: C_16  and  N_17
REMARK                            x       y       z     vdW  Elec       q    Type
REMARK                         _______ _______ _______ _____ _____    ______ ____
ROOT
ATOM      1  O   UNL     1       0.595   8.594  21.633  0.00  0.00    +0.000 OA
ATOM      2  C   UNL     1       1.130   8.751  20.532  0.00  0.00    +0.000 C 
ATOM      3  N   UNL     1       1.639   7.688  19.789  0.00  0.00    +0.000 N 
ATOM      4  C   UNL     1       2.397   7.890  18.563  0.00  0.00    +0.000 C 
ATOM      5  C   UNL     1       2.273   6.730  17.586  0.00  0.00    +0.000 C 
ATOM      6  C   UNL     1       2.597   5.392  18.239  0.00  0.00    +0.000 C 
ATOM      7  C   UNL     1       1.667   5.241  19.466  0.00  0.00    +0.000 C 
ATOM      8  C   UNL     1       1.805   6.395  20.448  0.00  0.00    +0.000 C 
ENDROOT
BRANCH   6   9
ATOM      9  N   UNL     1       3.998   5.113  18.542  0.00  0.00    +0.000 N 
ATOM     10  C   UNL     1       4.376   3.915  19.210  0.00  0.00    +0.000 A 
ATOM     11  O   UNL     1       3.654   3.016  19.610  0.00  0.00    +0.000 OA
ATOM     12  N   UNL     1       5.763   3.931  19.336  0.00  0.00    +0.000 N 
ATOM     13  C   UNL     1       6.261   5.061  18.713  0.00  0.00    +0.000 A 
ATOM     14  C   UNL     1       7.581   5.432  18.594  0.00  0.00    +0.000 A 
ATOM     15  C   UNL     1       7.854   6.612  17.905  0.00  0.00    +0.000 A 
ATOM     16  C   UNL     1       6.804   7.357  17.342  0.00  0.00    +0.000 A 
ATOM     17  C   UNL     1       5.473   6.936  17.454  0.00  0.00    +0.000 A 
ATOM     18  C   UNL     1       5.192   5.791  18.178  0.00  0.00    +0.000 A 
ATOM     19  H   UNL     1       6.286   3.198  19.781  0.00  0.00    +0.000 HD
ENDBRANCH   6   9
BRANCH   2  20
ATOM     20  C   UNL     1       1.152  10.135  19.886  0.00  0.00    +0.000 C 
BRANCH  20  21
ATOM     21  C   UNL     1      -0.084  10.339  19.068  0.00  0.00    +0.000 A 
ATOM     22  C   UNL     1      -0.457   9.803  17.851  0.00  0.00    +0.000 A 
ATOM     23  C   UNL     1      -1.768  10.260  17.553  0.00  0.00    +0.000 A 
ATOM     24  C   UNL     1      -2.664  10.039  16.490  0.00  0.00    +0.000 A 
ATOM     25  C   UNL     1      -3.921  10.656  16.515  0.00  0.00    +0.000 A 
ATOM     26  C   UNL     1      -4.288  11.479  17.576  0.00  0.00    +0.000 A 
ATOM     27  C   UNL     1      -3.416  11.712  18.645  0.00  0.00    +0.000 A 
ATOM     28  C   UNL     1      -2.164  11.089  18.602  0.00  0.00    +0.000 A 
ATOM     29  N   UNL     1      -1.120  11.138  19.495  0.00  0.00    +0.000 N 
ATOM     30  H   UNL     1      -1.136  11.654  20.367  0.00  0.00    +0.000 HD
ENDBRANCH  20  21
ENDBRANCH   2  20
TORSDOF 3
ENDMDL
MODEL 4
REMARK VINA RESULT:      -8.9      0.812      1.369
REMARK  Name = 
REMARK  3 active torsions:
REMARK  status: ('A' for Active; 'I' for Inactive)
REMARK    1  A    between atoms: C_2  and  C_3
REMARK    2  A    between atoms: C_3  and  C_4
REMARK    3  A    between atoms: C_16  and  N_17
REMARK                            x       y       z     vdW  Elec       q    Type
REMARK                         _______ _______ _______ _____ _____    ______ ____
ROOT
ATOM      1  O   UNL     1       1.169   9.443  20.679  0.00  0.00    +0.000 OA
ATOM      2  C   UNL     1       1.379   9.015  19.541  0.00  0.00    +0.000 C 
ATOM      3  N   UNL     1       1.751   7.695  19.296  0.00  0.00    +0.000 N 
ATOM      4  C   UNL     1       2.138   7.231  17.971  0.00  0.00    +0.000 C 
ATOM      5  C   UNL     1       1.846   5.755  17.746  0.00  0.00    +0.000 C 
ATOM      6  C   UNL     1       2.431   4.879  18.847  0.00  0.00    +0.000 C 
ATOM      7  C   UNL     1       1.874   5.399  20.194  0.00  0.00    +0.000 C 
ATOM      8  C   UNL     1       2.182   6.872  20.423  0.00  0.00    +0.000 C 
ENDROOT
BRANCH   6   9
ATOM      9  N   UNL     1       3.879   4.690  18.858  0.00  0.00    +0.000 N 
ATOM     10  C   UNL     1       4.456   3.514  19.413  0.00  0.00    +0.000 A 
ATOM     11  O   UNL     1       3.887   2.566  19.930  0.00  0.00    +0.000 OA
ATOM     12  N   UNL     1       5.837   3.619  19.260  0.00  0.00    +0.000 N 
ATOM     13  C   UNL     1       6.129   4.784  18.574  0.00  0.00    +0.000 A 
ATOM     14  C   UNL     1       7.372   5.241  18.202  0.00  0.00    +0.000 A 
ATOM     15  C   UNL     1       7.428   6.441  17.497  0.00  0.00    +0.000 A 
ATOM     16  C   UNL     1       6.242   7.121  17.171  0.00  0.00    +0.000 A 
ATOM     17  C   UNL     1       4.989   6.614  17.537  0.00  0.00    +0.000 A 
ATOM     18  C   UNL     1       4.931   5.447  18.278  0.00  0.00    +0.000 A 
ATOM     19  H   UNL     1       6.484   2.918  19.576  0.00  0.00    +0.000 HD
ENDBRANCH   6   9
BRANCH   2  20
ATOM     20  C   UNL     1       1.125   9.912  18.331  0.00  0.00    +0.000 C 
BRANCH  20  21
ATOM     21  C   UNL     1      -0.297  10.376  18.326  0.00  0.00    +0.000 A 
ATOM     22  C   UNL     1      -1.368   9.988  17.546  0.00  0.00    +0.000 A 
ATOM     23  C   UNL     1      -2.519  10.683  18.005  0.00  0.00    +0.000 A 
ATOM     24  C   UNL     1      -3.876  10.686  17.628  0.00  0.00    +0.000 A 
ATOM     25  C   UNL     1      -4.775  11.509  18.316  0.00  0.00    +0.000 A 
ATOM     26  C   UNL     1      -4.341  12.318  19.364  0.00  0.00    +0.000 A 
ATOM     27  C   UNL     1      -2.999  12.330  19.758  0.00  0.00    +0.000 A 
ATOM     28  C   UNL     1      -2.114  11.503  19.057  0.00  0.00    +0.000 A 
ATOM     29  N   UNL     1      -0.762  11.316  19.219  0.00  0.00    +0.000 N 
ATOM     30  H   UNL     1      -0.202  11.773  19.928  0.00  0.00    +0.000 HD
ENDBRANCH  20  21
ENDBRANCH   2  20
TORSDOF 3
ENDMDL
MODEL 5
REMARK VINA RESULT:      -8.7      2.130      8.643
REMARK  Name = 
REMARK  3 active torsions:
REMARK  status: ('A' for Active; 'I' for Inactive)
REMARK    1  A    between atoms: C_2  and  C_3
REMARK    2  A    between atoms: C_3  and  C_4
REMARK    3  A    between atoms: C_16  and  N_17
REMARK                            x       y       z     vdW  Elec       q    Type
REMARK                         _______ _______ _______ _____ _____    ______ ____
ROOT
ATOM      1  O   UNL     1       1.629   7.353  20.654  0.00  0.00    +0.000 OA
ATOM      2  C   UNL     1       1.691   8.205  19.764  0.00  0.00    +0.000 C 
ATOM      3  N   UNL     1       1.023   9.425  19.849  0.00  0.00    +0.000 N 
ATOM      4  C   UNL     1       0.979  10.366  18.739  0.00  0.00    +0.000 C 
ATOM      5  C   UNL     1       0.842  11.813  19.187  0.00  0.00    +0.000 C 
ATOM      6  C   UNL     1      -0.327  12.010  20.144  0.00  0.00    +0.000 C 
ATOM      7  C   UNL     1      -0.123  11.036  21.328  0.00  0.00    +0.000 C 
ATOM      8  C   UNL     1      -0.002   9.587  20.877  0.00  0.00    +0.000 C 
ENDROOT
BRANCH   6   9
ATOM      9  N   UNL     1      -1.673  11.957  19.580  0.00  0.00    +0.000 N 
ATOM     10  C   UNL     1      -2.722  12.754  20.119  0.00  0.00    +0.000 A 
ATOM     11  O   UNL     1      -2.671  13.531  21.058  0.00  0.00    +0.000 OA
ATOM     12  N   UNL     1      -3.865  12.497  19.365  0.00  0.00    +0.000 N 
ATOM     13  C   UNL     1      -3.547  11.623  18.342  0.00  0.00    +0.000 A 
ATOM     14  C   UNL     1      -4.388  11.141  17.367  0.00  0.00    +0.000 A 
ATOM     15  C   UNL     1      -3.843  10.278  16.419  0.00  0.00    +0.000 A 
ATOM     16  C   UNL     1      -2.477   9.951  16.470  0.00  0.00    +0.000 A 
ATOM     17  C   UNL     1      -1.638  10.482  17.457  0.00  0.00    +0.000 A 
ATOM     18  C   UNL     1      -2.185  11.302  18.429  0.00  0.00    +0.000 A 
ATOM     19  H   UNL     1      -4.754  12.931  19.544  0.00  0.00    +0.000 HD
ENDBRANCH   6   9
BRANCH   2  20
ATOM     20  C   UNL     1       2.611   7.989  18.564  0.00  0.00    +0.000 C 
BRANCH  20  21
ATOM     21  C   UNL     1       2.790   6.525  18.313  0.00  0.00    +0.000 A 
ATOM     22  C   UNL     1       3.915   5.800  17.975  0.00  0.00    +0.000 A 
ATOM     23  C   UNL     1       3.557   4.426  17.936  0.00  0.00    +0.000 A 
ATOM     24  C   UNL     1       4.265   3.237  17.679  0.00  0.00    +0.000 A 
ATOM     25  C   UNL     1       3.589   2.012  17.732  0.00  0.00    +0.000 A 
ATOM     26  C   UNL     1       2.230   1.963  18.037  0.00  0.00    +0.000 A 
ATOM     27  C   UNL     1       1.506   3.131  18.298  0.00  0.00    +0.000 A 
ATOM     28  C   UNL     1       2.199   4.345  18.237  0.00  0.00    +0.000 A 
ATOM     29  N   UNL     1       1.752   5.629  18.441  0.00  0.00    +0.000 N 
ATOM     30  H   UNL     1       0.802   5.871  18.696  0.00  0.00    +0.000 HD
ENDBRANCH  20  21
ENDBRANCH   2  20
TORSDOF 3
ENDMDL
MODEL 6
REMARK VINA RESULT:      -8.4      2.503      3.111
REMARK  Name = 
REMARK  3 active torsions:
REMARK  status: ('A' for Active; 'I' for Inactive)
REMARK    1  A    between atoms: C_2  and  C_3
REMARK    2  A    between atoms: C_3  and  C_4
REMARK    3  A    between atoms: C_16  and  N_17
REMARK                            x       y       z     vdW  Elec       q    Type
REMARK                         _______ _______ _______ _____ _____    ______ ____
ROOT
ATOM      1  O   UNL     1       0.995   8.474  21.856  0.00  0.00    +0.000 OA
ATOM      2  C   UNL     1       1.291   8.495  20.659  0.00  0.00    +0.000 C 
ATOM      3  N   UNL     1       1.715   7.357  19.973  0.00  0.00    +0.000 N 
ATOM      4  C   UNL     1       2.202   7.414  18.603  0.00  0.00    +0.000 C 
ATOM      5  C   UNL     1       1.966   6.123  17.832  0.00  0.00    +0.000 C 
ATOM      6  C   UNL     1       2.500   4.904  18.574  0.00  0.00    +0.000 C 
ATOM      7  C   UNL     1       1.840   4.892  19.973  0.00  0.00    +0.000 C 
ATOM      8  C   UNL     1       2.092   6.178  20.748  0.00  0.00    +0.000 C 
ENDROOT
BRANCH   6   9
ATOM      9  N   UNL     1       3.948   4.725  18.619  0.00  0.00    +0.000 N 
ATOM     10  C   UNL     1       4.519   3.528  19.133  0.00  0.00    +0.000 A 
ATOM     11  O   UNL     1       3.943   2.552  19.586  0.00  0.00    +0.000 OA
ATOM     12  N   UNL     1       5.903   3.651  19.026  0.00  0.00    +0.000 N 
ATOM     13  C   UNL     1       6.205   4.850  18.407  0.00  0.00    +0.000 A 
ATOM     14  C   UNL     1       7.454   5.334  18.095  0.00  0.00    +0.000 A 
ATOM     15  C   UNL     1       7.521   6.567  17.452  0.00  0.00    +0.000 A 
ATOM     16  C   UNL     1       6.339   7.253  17.123  0.00  0.00    +0.000 A 
ATOM     17  C   UNL     1       5.080   6.720  17.426  0.00  0.00    +0.000 A 
ATOM     18  C   UNL     1       5.010   5.518  18.108  0.00  0.00    +0.000 A 
ATOM     19  H   UNL     1       6.546   2.940  19.327  0.00  0.00    +0.000 HD
ENDBRANCH   6   9
BRANCH   2  20
ATOM     20  C   UNL     1       1.095   9.773  19.847  0.00  0.00    +0.000 C 
BRANCH  20  21
ATOM     21  C   UNL     1       0.487  10.837  20.706  0.00  0.00    +0.000 A 
ATOM     22  C   UNL     1       0.890  12.135  20.953  0.00  0.00    +0.000 A 
ATOM     23  C   UNL     1      -0.089  12.749  21.778  0.00  0.00    +0.000 A 
ATOM     24  C   UNL     1      -0.237  14.036  22.328  0.00  0.00    +0.000 A 
ATOM     25  C   UNL     1      -1.361  14.319  23.113  0.00  0.00    +0.000 A 
ATOM     26  C   UNL     1      -2.327  13.344  23.351  0.00  0.00    +0.000 A 
ATOM     27  C   UNL     1      -2.202  12.059  22.813  0.00  0.00    +0.000 A 
ATOM     28  C   UNL     1      -1.071  11.794  22.033  0.00  0.00    +0.000 A 
ATOM     29  N   UNL     1      -0.690  10.640  21.391  0.00  0.00    +0.000 N 
ATOM     30  H   UNL     1      -1.228   9.781  21.388  0.00  0.00    +0.000 HD
ENDBRANCH  20  21
ENDBRANCH   2  20
TORSDOF 3
ENDMDL
MODEL 7
REMARK VINA RESULT:      -8.4      1.831      2.621
REMARK  Name = 
REMARK  3 active torsions:
REMARK  status: ('A' for Active; 'I' for Inactive)
REMARK    1  A    between atoms: C_2  and  C_3
REMARK    2  A    between atoms: C_3  and  C_4
REMARK    3  A    between atoms: C_16  and  N_17
REMARK                            x       y       z     vdW  Elec       q    Type
REMARK                         _______ _______ _______ _____ _____    ______ ____
ROOT
ATOM      1  O   UNL     1       0.890   8.643  21.911  0.00  0.00    +0.000 OA
ATOM      2  C   UNL     1       1.288   8.732  20.747  0.00  0.00    +0.000 C 
ATOM      3  N   UNL     1       1.702   7.623  20.012  0.00  0.00    +0.000 N 
ATOM      4  C   UNL     1       2.308   7.746  18.695  0.00  0.00    +0.000 C 
ATOM      5  C   UNL     1       2.064   6.533  17.809  0.00  0.00    +0.000 C 
ATOM      6  C   UNL     1       2.461   5.232  18.495  0.00  0.00    +0.000 C 
ATOM      7  C   UNL     1       1.684   5.161  19.831  0.00  0.00    +0.000 C 
ATOM      8  C   UNL     1       1.942   6.368  20.721  0.00  0.00    +0.000 C 
ENDROOT
BRANCH   6   9
ATOM      9  N   UNL     1       3.887   4.957  18.644  0.00  0.00    +0.000 N 
ATOM     10  C   UNL     1       4.338   3.743  19.233  0.00  0.00    +0.000 A 
ATOM     11  O   UNL     1       3.667   2.826  19.678  0.00  0.00    +0.000 OA
ATOM     12  N   UNL     1       5.731   3.769  19.216  0.00  0.00    +0.000 N 
ATOM     13  C   UNL     1       6.156   4.921  18.581  0.00  0.00    +0.000 A 
ATOM     14  C   UNL     1       7.454   5.307  18.338  0.00  0.00    +0.000 A 
ATOM     15  C   UNL     1       7.648   6.509  17.661  0.00  0.00    +0.000 A 
ATOM     16  C   UNL     1       6.540   7.260  17.231  0.00  0.00    +0.000 A 
ATOM     17  C   UNL     1       5.230   6.825  17.466  0.00  0.00    +0.000 A 
ATOM     18  C   UNL     1       5.033   5.657  18.181  0.00  0.00    +0.000 A 
ATOM     19  H   UNL     1       6.302   3.027  19.583  0.00  0.00    +0.000 HD
ENDBRANCH   6   9
BRANCH   2  20
ATOM     20  C   UNL     1       1.237  10.076  20.024  0.00  0.00    +0.000 C 
BRANCH  20  21
ATOM     21  C   UNL     1       0.052  10.863  20.487  0.00  0.00    +0.000 A 
ATOM     22  C   UNL     1      -0.995  11.418  19.777  0.00  0.00    +0.000 A 
ATOM     23  C   UNL     1      -1.901  11.991  20.708  0.00  0.00    +0.000 A 
ATOM     24  C   UNL     1      -3.134  12.661  20.588  0.00  0.00    +0.000 A 
ATOM     25  C   UNL     1      -3.788  13.101  21.745  0.00  0.00    +0.000 A 
ATOM     26  C   UNL     1      -3.234  12.881  23.004  0.00  0.00    +0.000 A 
ATOM     27  C   UNL     1      -2.012  12.214  23.148  0.00  0.00    +0.000 A 
ATOM     28  C   UNL     1      -1.371  11.785  21.981  0.00  0.00    +0.000 A 
ATOM     29  N   UNL     1      -0.180  11.119  21.820  0.00  0.00    +0.000 N 
ATOM     30  H   UNL     1       0.417  10.820  22.583  0.00  0.00    +0.000 HD
ENDBRANCH  20  21
ENDBRANCH   2  20
TORSDOF 3
ENDMDL
MODEL 8
REMARK VINA RESULT:      -8.1      2.700      8.690
REMARK  Name = 
REMARK  3 active torsions:
REMARK  status: ('A' for Active; 'I' for Inactive)
REMARK    1  A    between atoms: C_2  and  C_3
REMARK    2  A    between atoms: C_3  and  C_4
REMARK    3  A    between atoms: C_16  and  N_17
REMARK                            x       y       z     vdW  Elec       q    Type
REMARK                         _______ _______ _______ _____ _____    ______ ____
ROOT
ATOM      1  O   UNL     1       1.202   7.940  21.538  0.00  0.00    +0.000 OA
ATOM      2  C   UNL     1       1.269   8.557  20.472  0.00  0.00    +0.000 C 
ATOM      3  N   UNL     1       0.609   9.767  20.266  0.00  0.00    +0.000 N 
ATOM      4  C   UNL     1       0.570  10.418  18.965  0.00  0.00    +0.000 C 
ATOM      5  C   UNL     1       0.442  11.932  19.058  0.00  0.00    +0.000 C 
ATOM      6  C   UNL     1      -0.725  12.357  19.940  0.00  0.00    +0.000 C 
ATOM      7  C   UNL     1      -0.526  11.689  21.321  0.00  0.00    +0.000 C 
ATOM      8  C   UNL     1      -0.415  10.174  21.225  0.00  0.00    +0.000 C 
ENDROOT
BRANCH   6   9
ATOM      9  N   UNL     1      -2.072  12.180  19.404  0.00  0.00    +0.000 N 
ATOM     10  C   UNL     1      -3.207  12.662  20.113  0.00  0.00    +0.000 A 
ATOM     11  O   UNL     1      -3.236  13.238  21.189  0.00  0.00    +0.000 OA
ATOM     12  N   UNL     1      -4.331  12.362  19.346  0.00  0.00    +0.000 N 
ATOM     13  C   UNL     1      -3.928  11.772  18.162  0.00  0.00    +0.000 A 
ATOM     14  C   UNL     1      -4.729  11.351  17.127  0.00  0.00    +0.000 A 
ATOM     15  C   UNL     1      -4.100  10.797  16.014  0.00  0.00    +0.000 A 
ATOM     16  C   UNL     1      -2.698  10.710  15.971  0.00  0.00    +0.000 A 
ATOM     17  C   UNL     1      -1.907  11.177  17.028  0.00  0.00    +0.000 A 
ATOM     18  C   UNL     1      -2.529  11.684  18.155  0.00  0.00    +0.000 A 
ATOM     19  H   UNL     1      -5.269  12.590  19.626  0.00  0.00    +0.000 HD
ENDBRANCH   6   9
BRANCH   2  20
ATOM     20  C   UNL     1       2.186   8.057  19.358  0.00  0.00    +0.000 C 
BRANCH  20  21
ATOM     21  C   UNL     1       2.172   6.562  19.314  0.00  0.00    +0.000 A 
ATOM     22  C   UNL     1       1.880   5.635  20.295  0.00  0.00    +0.000 A 
ATOM     23  C   UNL     1       1.933   4.342  19.708  0.00  0.00    +0.000 A 
ATOM     24  C   UNL     1       1.712   3.038  20.190  0.00  0.00    +0.000 A 
ATOM     25  C   UNL     1       1.844   1.954  19.315  0.00  0.00    +0.000 A 
ATOM     26  C   UNL     1       2.189   2.154  17.980  0.00  0.00    +0.000 A 
ATOM     27  C   UNL     1       2.411   3.441  17.478  0.00  0.00    +0.000 A 
ATOM     28  C   UNL     1       2.278   4.512  18.368  0.00  0.00    +0.000 A 
ATOM     29  N   UNL     1       2.437   5.861  18.159  0.00  0.00    +0.000 N 
ATOM     30  H   UNL     1       2.670   6.279  17.266  0.00  0.00    +0.000 HD
ENDBRANCH  20  21
ENDBRANCH   2  20
TORSDOF 3
ENDMDL
MODEL 9
REMARK VINA RESULT:      -8.0      2.326      3.512
REMARK  Name = 
REMARK  3 active torsions:
REMARK  status: ('A' for Active; 'I' for Inactive)
REMARK    1  A    between atoms: C_2  and  C_3
REMARK    2  A    between atoms: C_3  and  C_4
REMARK    3  A    between atoms: C_16  and  N_17
REMARK                            x       y       z     vdW  Elec       q    Type
REMARK                         _______ _______ _______ _____ _____    ______ ____
ROOT
ATOM      1  O   UNL     1       1.148   9.348  20.723  0.00  0.00    +0.000 OA
ATOM      2  C   UNL     1       1.343   8.924  19.581  0.00  0.00    +0.000 C 
ATOM      3  N   UNL     1       1.748   7.615  19.329  0.00  0.00    +0.000 N 
ATOM      4  C   UNL     1       2.118   7.159  17.997  0.00  0.00    +0.000 C 
ATOM      5  C   UNL     1       1.863   5.674  17.781  0.00  0.00    +0.000 C 
ATOM      6  C   UNL     1       2.499   4.818  18.869  0.00  0.00    +0.000 C 
ATOM      7  C   UNL     1       1.958   5.325  20.228  0.00  0.00    +0.000 C 
ATOM      8  C   UNL     1       2.229   6.807  20.447  0.00  0.00    +0.000 C 
ENDROOT
BRANCH   6   9
ATOM      9  N   UNL     1       3.951   4.671  18.847  0.00  0.00    +0.000 N 
ATOM     10  C   UNL     1       4.574   3.505  19.372  0.00  0.00    +0.000 A 
ATOM     11  O   UNL     1       4.043   2.534  19.887  0.00  0.00    +0.000 OA
ATOM     12  N   UNL     1       5.947   3.652  19.191  0.00  0.00    +0.000 N 
ATOM     13  C   UNL     1       6.191   4.834  18.517  0.00  0.00    +0.000 A 
ATOM     14  C   UNL     1       7.412   5.333  18.125  0.00  0.00    +0.000 A 
ATOM     15  C   UNL     1       7.418   6.544  17.436  0.00  0.00    +0.000 A 
ATOM     16  C   UNL     1       6.206   7.193  17.145  0.00  0.00    +0.000 A 
ATOM     17  C   UNL     1       4.976   6.645  17.530  0.00  0.00    +0.000 A 
ATOM     18  C   UNL     1       4.968   5.467  18.256  0.00  0.00    +0.000 A 
ATOM     19  H   UNL     1       6.620   2.966  19.484  0.00  0.00    +0.000 HD
ENDBRANCH   6   9
BRANCH   2  20
ATOM     20  C   UNL     1       1.036   9.811  18.376  0.00  0.00    +0.000 C 
BRANCH  20  21
ATOM     21  C   UNL     1       1.534  11.200  18.621  0.00  0.00    +0.000 A 
ATOM     22  C   UNL     1       2.496  11.941  17.965  0.00  0.00    +0.000 A 
ATOM     23  C   UNL     1       2.525  13.236  18.547  0.00  0.00    +0.000 A 
ATOM     24  C   UNL     1       3.265  14.407  18.293  0.00  0.00    +0.000 A 
ATOM     25  C   UNL     1       3.031  15.546  19.072  0.00  0.00    +0.000 A 
ATOM     26  C   UNL     1       2.078  15.530  20.088  0.00  0.00    +0.000 A 
ATOM     27  C   UNL     1       1.330  14.380  20.357  0.00  0.00    +0.000 A 
ATOM     28  C   UNL     1       1.579  13.250  19.570  0.00  0.00    +0.000 A 
ATOM     29  N   UNL     1       1.007  12.001  19.609  0.00  0.00    +0.000 N 
ATOM     30  H   UNL     1       0.269  11.729  20.247  0.00  0.00    +0.000 HD
ENDBRANCH  20  21
ENDBRANCH   2  20
TORSDOF 3
ENDMDL
