MODEL 1
REMARK VINA RESULT:      -8.1      0.000      0.000
REMARK  Name = 
REMARK  5 active torsions:
REMARK  status: ('A' for Active; 'I' for Inactive)
REMARK    1  A    between atoms: C_1  and  C_2
REMARK    2  A    between atoms: C_4  and  C_5
REMARK    3  A    between atoms: C_12  and  C_13
REMARK    4  A    between atoms: C_13  and  O_15
REMARK    5  A    between atoms: N_17  and  C_18
REMARK                            x       y       z     vdW  Elec       q    Type
REMARK                         _______ _______ _______ _____ _____    ______ ____
ROOT
ATOM      1  C   UNL     1       1.423   9.101  19.321  0.00  0.00    +0.000 A 
ATOM      2  C   UNL     1       2.158   9.466  18.181  0.00  0.00    +0.000 A 
ATOM      3  F   UNL     1       1.999  10.670  17.614  0.00  0.00    +0.000 F 
ATOM      4  C   UNL     1       3.065   8.606  17.576  0.00  0.00    +0.000 A 
ATOM      5  C   UNL     1       3.248   7.326  18.095  0.00  0.00    +0.000 A 
ATOM      6  C   UNL     1       4.202   6.422  17.422  0.00  0.00    +0.000 A 
ATOM      7  O   UNL     1       4.841   6.789  16.438  0.00  0.00    +0.000 OA
ATOM      8  C   UNL     1       4.369   5.056  17.949  0.00  0.00    +0.000 A 
ATOM      9  C   UNL     1       3.635   4.722  19.019  0.00  0.00    +0.000 A 
ATOM     10  N   UNL     1       2.762   5.552  19.702  0.00  0.00    +0.000 N 
ATOM     11  C   UNL     1       2.543   6.882  19.226  0.00  0.00    +0.000 A 
ATOM     12  C   UNL     1       1.651   7.798  19.823  0.00  0.00    +0.000 A 
ATOM     13  F   UNL     1       0.991   7.423  20.931  0.00  0.00    +0.000 F 
ENDROOT
BRANCH   1  17
ATOM     14  C   UNL     1      -2.745  11.918  19.142  0.00  0.00    +0.000 C 
ATOM     15  C   UNL     1      -1.550  11.397  19.878  0.00  0.00    +0.000 A 
ATOM     16  C   UNL     1      -0.640  10.552  19.248  0.00  0.00    +0.000 A 
ATOM     17  C   UNL     1       0.454  10.030  19.956  0.00  0.00    +0.000 A 
ATOM     18  C   UNL     1       0.575  10.426  21.294  0.00  0.00    +0.000 A 
ATOM     19  C   UNL     1      -0.354  11.296  21.841  0.00  0.00    +0.000 A 
ATOM     20  N   UNL     1      -1.412  11.783  21.165  0.00  0.00    +0.000 NA
ENDBRANCH   1  17
BRANCH  10  21
ATOM     21  C   UNL     1       1.960   4.992  20.813  0.00  0.00    +0.000 C 
ATOM     22  C   UNL     1       1.007   3.826  20.697  0.00  0.00    +0.000 C 
ATOM     23  C   UNL     1       2.319   3.642  21.390  0.00  0.00    +0.000 C 
ENDBRANCH  10  21
BRANCH   8  24
ATOM     24  C   UNL     1       5.289   4.068  17.352  0.00  0.00    +0.000 C 
ATOM     25  O   UNL     1       5.022   3.432  16.343  0.00  0.00    +0.000 OA
BRANCH  24  26
ATOM     26  O   UNL     1       6.454   3.910  18.013  0.00  0.00    +0.000 OA
ATOM     27  H   UNL     1       7.149   4.575  17.781  0.00  0.00    +0.000 HD
ENDBRANCH  24  26
ENDBRANCH   8  24
TORSDOF 4
ENDMDL
MODEL 2
REMARK VINA RESULT:      -8.1      1.995      3.490
REMARK  Name = 
REMARK  5 active torsions:
REMARK  status: ('A' for Active; 'I' for Inactive)
REMARK    1  A    between atoms: C_1  and  C_2
REMARK    2  A    between atoms: C_4  and  C_5
REMARK    3  A    between atoms: C_12  and  C_13
REMARK    4  A    between atoms: C_13  and  O_15
REMARK    5  A    between atoms: N_17  and  C_18
REMARK                            x       y       z     vdW  Elec       q    Type
REMARK                         _______ _______ _______ _____ _____    ______ ____
ROOT
ATOM      1  C   UNL     1       1.367   8.488  19.649  0.00  0.00    +0.000 A 
ATOM      2  C   UNL     1       0.894   7.684  20.699  0.00  0.00    +0.000 A 
ATOM      3  F   UNL     1      -0.007   8.151  21.575  0.00  0.00    +0.000 F 
ATOM      4  C   UNL     1       1.340   6.384  20.897  0.00  0.00    +0.000 A 
ATOM      5  C   UNL     1       2.305   5.852  20.043  0.00  0.00    +0.000 A 
ATOM      6  C   UNL     1       2.779   4.475  20.286  0.00  0.00    +0.000 A 
ATOM      7  O   UNL     1       2.324   3.797  21.204  0.00  0.00    +0.000 OA
ATOM      8  C   UNL     1       3.826   3.926  19.405  0.00  0.00    +0.000 A 
ATOM      9  C   UNL     1       4.281   4.723  18.428  0.00  0.00    +0.000 A 
ATOM     10  N   UNL     1       3.833   6.003  18.144  0.00  0.00    +0.000 N 
ATOM     11  C   UNL     1       2.835   6.597  18.976  0.00  0.00    +0.000 A 
ATOM     12  C   UNL     1       2.333   7.903  18.798  0.00  0.00    +0.000 A 
ATOM     13  F   UNL     1       2.785   8.630  17.763  0.00  0.00    +0.000 F 
ENDROOT
BRANCH   1  17
ATOM     14  C   UNL     1      -1.895  11.781  17.683  0.00  0.00    +0.000 C 
ATOM     15  C   UNL     1      -0.680  11.475  18.504  0.00  0.00    +0.000 A 
ATOM     16  C   UNL     1      -0.230  10.165  18.646  0.00  0.00    +0.000 A 
ATOM     17  C   UNL     1       0.883   9.878  19.452  0.00  0.00    +0.000 A 
ATOM     18  C   UNL     1       1.503  10.973  20.067  0.00  0.00    +0.000 A 
ATOM     19  C   UNL     1       1.015  12.251  19.852  0.00  0.00    +0.000 A 
ATOM     20  N   UNL     1      -0.062  12.523  19.090  0.00  0.00    +0.000 NA
ENDBRANCH   1  17
BRANCH  10  21
ATOM     21  C   UNL     1       4.512   6.779  17.083  0.00  0.00    +0.000 C 
ATOM     22  C   UNL     1       6.004   6.820  16.853  0.00  0.00    +0.000 C 
ATOM     23  C   UNL     1       5.130   6.061  15.906  0.00  0.00    +0.000 C 
ENDBRANCH  10  21
BRANCH   8  24
ATOM     24  C   UNL     1       4.377   2.565  19.559  0.00  0.00    +0.000 C 
ATOM     25  O   UNL     1       5.102   2.241  20.488  0.00  0.00    +0.000 OA
BRANCH  24  26
ATOM     26  O   UNL     1       4.026   1.700  18.586  0.00  0.00    +0.000 OA
ATOM     27  H   UNL     1       3.782   2.126  17.727  0.00  0.00    +0.000 HD
ENDBRANCH  24  26
ENDBRANCH   8  24
TORSDOF 4
ENDMDL
MODEL 3
REMARK VINA RESULT:      -7.9      0.378      1.271
REMARK  Name = 
REMARK  5 active torsions:
REMARK  status: ('A' for Active; 'I' for Inactive)
REMARK    1  A    between atoms: C_1  and  C_2
REMARK    2  A    between atoms: C_4  and  C_5
REMARK    3  A    between atoms: C_12  and  C_13
REMARK    4  A    between atoms: C_13  and  O_15
REMARK    5  A    between atoms: N_17  and  C_18
REMARK                            x       y       z     vdW  Elec       q    Type
REMARK                         _______ _______ _______ _____ _____    ______ ____
ROOT
ATOM      1  C   UNL     1       1.295   9.103  19.157  0.00  0.00    +0.000 A 
ATOM      2  C   UNL     1       2.105   9.474  18.072  0.00  0.00    +0.000 A 
ATOM      3  F   UNL     1       1.962  10.669  17.480  0.00  0.00    +0.000 F 
ATOM      4  C   UNL     1       3.076   8.631  17.548  0.00  0.00    +0.000 A 
ATOM      5  C   UNL     1       3.249   7.361  18.095  0.00  0.00    +0.000 A 
ATOM      6  C   UNL     1       4.274   6.475  17.507  0.00  0.00    +0.000 A 
ATOM      7  O   UNL     1       4.977   6.848  16.570  0.00  0.00    +0.000 OA
ATOM      8  C   UNL     1       4.432   5.118  18.061  0.00  0.00    +0.000 A 
ATOM      9  C   UNL     1       3.627   4.777  19.077  0.00  0.00    +0.000 A 
ATOM     10  N   UNL     1       2.685   5.593  19.681  0.00  0.00    +0.000 N 
ATOM     11  C   UNL     1       2.471   6.912  19.174  0.00  0.00    +0.000 A 
ATOM     12  C   UNL     1       1.515   7.811  19.690  0.00  0.00    +0.000 A 
ATOM     13  F   UNL     1       0.781   7.431  20.749  0.00  0.00    +0.000 F 
ENDROOT
BRANCH   1  17
ATOM     14  C   UNL     1      -0.922  11.433  23.030  0.00  0.00    +0.000 C 
ATOM     15  C   UNL     1      -0.823  11.137  21.565  0.00  0.00    +0.000 A 
ATOM     16  C   UNL     1       0.140  10.253  21.083  0.00  0.00    +0.000 A 
ATOM     17  C   UNL     1       0.258  10.014  19.705  0.00  0.00    +0.000 A 
ATOM     18  C   UNL     1      -0.648  10.689  18.876  0.00  0.00    +0.000 A 
ATOM     19  C   UNL     1      -1.598  11.528  19.435  0.00  0.00    +0.000 A 
ATOM     20  N   UNL     1      -1.700  11.769  20.756  0.00  0.00    +0.000 NA
ENDBRANCH   1  17
BRANCH  10  21
ATOM     21  C   UNL     1       1.814   5.024  20.734  0.00  0.00    +0.000 C 
ATOM     22  C   UNL     1       1.059   3.719  20.629  0.00  0.00    +0.000 C 
ATOM     23  C   UNL     1       2.268   3.806  21.505  0.00  0.00    +0.000 C 
ENDBRANCH  10  21
BRANCH   8  24
ATOM     24  C   UNL     1       5.419   4.147  17.548  0.00  0.00    +0.000 C 
ATOM     25  O   UNL     1       5.267   3.531  16.504  0.00  0.00    +0.000 OA
BRANCH  24  26
ATOM     26  O   UNL     1       6.507   3.983  18.328  0.00  0.00    +0.000 OA
ATOM     27  H   UNL     1       7.312   3.669  17.846  0.00  0.00    +0.000 HD
ENDBRANCH  24  26
ENDBRANCH   8  24
TORSDOF 4
ENDMDL
MODEL 4
REMARK VINA RESULT:      -7.9      2.072      3.727
REMARK  Name = 
REMARK  5 active torsions:
REMARK  status: ('A' for Active; 'I' for Inactive)
REMARK    1  A    between atoms: C_1  and  C_2
REMARK    2  A    between atoms: C_4  and  C_5
REMARK    3  A    between atoms: C_12  and  C_13
REMARK    4  A    between atoms: C_13  and  O_15
REMARK    5  A    between atoms: N_17  and  C_18
REMARK                            x       y       z     vdW  Elec       q    Type
REMARK                         _______ _______ _______ _____ _____    ______ ____
ROOT
ATOM      1  C   UNL     1       1.414   8.467  19.596  0.00  0.00    +0.000 A 
ATOM      2  C   UNL     1       0.942   7.683  20.661  0.00  0.00    +0.000 A 
ATOM      3  F   UNL     1       0.050   8.171  21.536  0.00  0.00    +0.000 F 
ATOM      4  C   UNL     1       1.378   6.383  20.875  0.00  0.00    +0.000 A 
ATOM      5  C   UNL     1       2.333   5.830  20.022  0.00  0.00    +0.000 A 
ATOM      6  C   UNL     1       2.796   4.452  20.283  0.00  0.00    +0.000 A 
ATOM      7  O   UNL     1       2.342   3.792  21.214  0.00  0.00    +0.000 OA
ATOM      8  C   UNL     1       3.833   3.881  19.403  0.00  0.00    +0.000 A 
ATOM      9  C   UNL     1       4.288   4.660  18.412  0.00  0.00    +0.000 A 
ATOM     10  N   UNL     1       3.849   5.939  18.112  0.00  0.00    +0.000 N 
ATOM     11  C   UNL     1       2.861   6.554  18.941  0.00  0.00    +0.000 A 
ATOM     12  C   UNL     1       2.370   7.862  18.747  0.00  0.00    +0.000 A 
ATOM     13  F   UNL     1       2.821   8.569  17.699  0.00  0.00    +0.000 F 
ENDROOT
BRANCH   1  17
ATOM     14  C   UNL     1       1.964  13.443  20.140  0.00  0.00    +0.000 C 
ATOM     15  C   UNL     1       1.192  12.259  19.644  0.00  0.00    +0.000 A 
ATOM     16  C   UNL     1       1.644  10.964  19.887  0.00  0.00    +0.000 A 
ATOM     17  C   UNL     1       0.940   9.859  19.382  0.00  0.00    +0.000 A 
ATOM     18  C   UNL     1      -0.225  10.141  18.658  0.00  0.00    +0.000 A 
ATOM     19  C   UNL     1      -0.626  11.456  18.486  0.00  0.00    +0.000 A 
ATOM     20  N   UNL     1       0.058  12.516  18.957  0.00  0.00    +0.000 NA
ENDBRANCH   1  17
BRANCH  10  21
ATOM     21  C   UNL     1       4.527   6.695  17.035  0.00  0.00    +0.000 C 
ATOM     22  C   UNL     1       6.023   6.817  16.866  0.00  0.00    +0.000 C 
ATOM     23  C   UNL     1       5.242   5.950  15.932  0.00  0.00    +0.000 C 
ENDBRANCH  10  21
BRANCH   8  24
ATOM     24  C   UNL     1       4.374   2.519  19.574  0.00  0.00    +0.000 C 
ATOM     25  O   UNL     1       5.083   2.196  20.515  0.00  0.00    +0.000 OA
BRANCH  24  26
ATOM     26  O   UNL     1       4.031   1.649  18.601  0.00  0.00    +0.000 OA
ATOM     27  H   UNL     1       4.770   1.403  17.992  0.00  0.00    +0.000 HD
ENDBRANCH  24  26
ENDBRANCH   8  24
TORSDOF 4
ENDMDL
MODEL 5
REMARK VINA RESULT:      -7.8      1.271      2.021
REMARK  Name = 
REMARK  5 active torsions:
REMARK  status: ('A' for Active; 'I' for Inactive)
REMARK    1  A    between atoms: C_1  and  C_2
REMARK    2  A    between atoms: C_4  and  C_5
REMARK    3  A    between atoms: C_12  and  C_13
REMARK    4  A    between atoms: C_13  and  O_15
REMARK    5  A    between atoms: N_17  and  C_18
REMARK                            x       y       z     vdW  Elec       q    Type
REMARK                         _______ _______ _______ _____ _____    ______ ____
ROOT
ATOM      1  C   UNL     1       2.033   8.265  19.074  0.00  0.00    +0.000 A 
ATOM      2  C   UNL     1       2.629   8.842  17.941  0.00  0.00    +0.000 A 
ATOM      3  F   UNL     1       2.272  10.065  17.521  0.00  0.00    +0.000 F 
ATOM      4  C   UNL     1       3.594   8.183  17.193  0.00  0.00    +0.000 A 
ATOM      5  C   UNL     1       3.981   6.894  17.556  0.00  0.00    +0.000 A 
ATOM      6  C   UNL     1       4.995   6.205  16.733  0.00  0.00    +0.000 A 
ATOM      7  O   UNL     1       5.507   6.754  15.760  0.00  0.00    +0.000 OA
ATOM      8  C   UNL     1       5.378   4.827  17.095  0.00  0.00    +0.000 A 
ATOM      9  C   UNL     1       4.773   4.288  18.162  0.00  0.00    +0.000 A 
ATOM     10  N   UNL     1       3.850   4.916  18.982  0.00  0.00    +0.000 N 
ATOM     11  C   UNL     1       3.425   6.244  18.670  0.00  0.00    +0.000 A 
ATOM     12  C   UNL     1       2.466   6.962  19.415  0.00  0.00    +0.000 A 
ATOM     13  F   UNL     1       1.943   6.389  20.511  0.00  0.00    +0.000 F 
ENDROOT
BRANCH   1  17
ATOM     14  C   UNL     1      -0.066   9.524  23.474  0.00  0.00    +0.000 C 
ATOM     15  C   UNL     1      -0.026   9.589  21.978  0.00  0.00    +0.000 A 
ATOM     16  C   UNL     1       0.937   8.882  21.262  0.00  0.00    +0.000 A 
ATOM     17  C   UNL     1       0.999   8.981  19.863  0.00  0.00    +0.000 A 
ATOM     18  C   UNL     1       0.038   9.801  19.255  0.00  0.00    +0.000 A 
ATOM     19  C   UNL     1      -0.907  10.447  20.034  0.00  0.00    +0.000 A 
ATOM     20  N   UNL     1      -0.955  10.363  21.377  0.00  0.00    +0.000 NA
ENDBRANCH   1  17
BRANCH  10  21
ATOM     21  C   UNL     1       3.212   4.139  20.069  0.00  0.00    +0.000 C 
ATOM     22  C   UNL     1       2.127   3.106  19.879  0.00  0.00    +0.000 C 
ATOM     23  C   UNL     1       3.516   2.667  20.216  0.00  0.00    +0.000 C 
ENDBRANCH  10  21
BRANCH   8  24
ATOM     24  C   UNL     1       6.374   4.042  16.340  0.00  0.00    +0.000 C 
ATOM     25  O   UNL     1       7.563   4.322  16.314  0.00  0.00    +0.000 OA
BRANCH  24  26
ATOM     26  O   UNL     1       5.869   2.987  15.668  0.00  0.00    +0.000 OA
ATOM     27  H   UNL     1       5.807   3.116  14.689  0.00  0.00    +0.000 HD
ENDBRANCH  24  26
ENDBRANCH   8  24
TORSDOF 4
ENDMDL
MODEL 6
REMARK VINA RESULT:      -7.6      1.295      1.537
REMARK  Name = 
REMARK  5 active torsions:
REMARK  status: ('A' for Active; 'I' for Inactive)
REMARK    1  A    between atoms: C_1  and  C_2
REMARK    2  A    between atoms: C_4  and  C_5
REMARK    3  A    between atoms: C_12  and  C_13
REMARK    4  A    between atoms: C_13  and  O_15
REMARK    5  A    between atoms: N_17  and  C_18
REMARK                            x       y       z     vdW  Elec       q    Type
REMARK                         _______ _______ _______ _____ _____    ______ ____
ROOT
ATOM      1  C   UNL     1       2.107   8.136  19.180  0.00  0.00    +0.000 A 
ATOM      2  C   UNL     1       2.628   8.753  18.031  0.00  0.00    +0.000 A 
ATOM      3  F   UNL     1       2.234   9.982  17.668  0.00  0.00    +0.000 F 
ATOM      4  C   UNL     1       3.555   8.127  17.208  0.00  0.00    +0.000 A 
ATOM      5  C   UNL     1       3.976   6.833  17.509  0.00  0.00    +0.000 A 
ATOM      6  C   UNL     1       4.947   6.180  16.607  0.00  0.00    +0.000 A 
ATOM      7  O   UNL     1       5.394   6.764  15.622  0.00  0.00    +0.000 OA
ATOM      8  C   UNL     1       5.365   4.798  16.906  0.00  0.00    +0.000 A 
ATOM      9  C   UNL     1       4.831   4.221  17.991  0.00  0.00    +0.000 A 
ATOM     10  N   UNL     1       3.952   4.814  18.882  0.00  0.00    +0.000 N 
ATOM     11  C   UNL     1       3.494   6.144  18.634  0.00  0.00    +0.000 A 
ATOM     12  C   UNL     1       2.574   6.829  19.456  0.00  0.00    +0.000 A 
ATOM     13  F   UNL     1       2.123   6.218  20.564  0.00  0.00    +0.000 F 
ENDROOT
BRANCH   1  17
ATOM     14  C   UNL     1      -1.535  11.541  19.880  0.00  0.00    +0.000 C 
ATOM     15  C   UNL     1      -0.637  10.460  20.400  0.00  0.00    +0.000 A 
ATOM     16  C   UNL     1       0.307   9.860  19.570  0.00  0.00    +0.000 A 
ATOM     17  C   UNL     1       1.114   8.816  20.049  0.00  0.00    +0.000 A 
ATOM     18  C   UNL     1       0.925   8.448  21.387  0.00  0.00    +0.000 A 
ATOM     19  C   UNL     1      -0.014   9.114  22.158  0.00  0.00    +0.000 A 
ATOM     20  N   UNL     1      -0.799  10.104  21.693  0.00  0.00    +0.000 NA
ENDBRANCH   1  17
BRANCH  10  21
ATOM     21  C   UNL     1       3.388   3.999  19.981  0.00  0.00    +0.000 C 
ATOM     22  C   UNL     1       2.282   2.980  19.831  0.00  0.00    +0.000 C 
ATOM     23  C   UNL     1       3.688   2.519  20.048  0.00  0.00    +0.000 C 
ENDBRANCH  10  21
BRANCH   8  24
ATOM     24  C   UNL     1       6.323   4.047  16.071  0.00  0.00    +0.000 C 
ATOM     25  O   UNL     1       6.002   3.471  15.041  0.00  0.00    +0.000 OA
BRANCH  24  26
ATOM     26  O   UNL     1       7.589   4.037  16.535  0.00  0.00    +0.000 OA
ATOM     27  H   UNL     1       7.693   3.636  17.433  0.00  0.00    +0.000 HD
ENDBRANCH  24  26
ENDBRANCH   8  24
TORSDOF 4
ENDMDL
MODEL 7
REMARK VINA RESULT:      -7.5      3.957      7.876
REMARK  Name = 
REMARK  5 active torsions:
REMARK  status: ('A' for Active; 'I' for Inactive)
REMARK    1  A    between atoms: C_1  and  C_2
REMARK    2  A    between atoms: C_4  and  C_5
REMARK    3  A    between atoms: C_12  and  C_13
REMARK    4  A    between atoms: C_13  and  O_15
REMARK    5  A    between atoms: N_17  and  C_18
REMARK                            x       y       z     vdW  Elec       q    Type
REMARK                         _______ _______ _______ _____ _____    ______ ____
ROOT
ATOM      1  C   UNL     1       2.046   7.577  19.576  0.00  0.00    +0.000 A 
ATOM      2  C   UNL     1       1.561   7.075  20.795  0.00  0.00    +0.000 A 
ATOM      3  F   UNL     1       1.738   5.788  21.130  0.00  0.00    +0.000 F 
ATOM      4  C   UNL     1       0.866   7.866  21.699  0.00  0.00    +0.000 A 
ATOM      5  C   UNL     1       0.616   9.202  21.392  0.00  0.00    +0.000 A 
ATOM      6  C   UNL     1      -0.143  10.017  22.362  0.00  0.00    +0.000 A 
ATOM      7  O   UNL     1      -0.532   9.544  23.427  0.00  0.00    +0.000 OA
ATOM      8  C   UNL     1      -0.439  11.421  22.020  0.00  0.00    +0.000 A 
ATOM      9  C   UNL     1       0.009  11.869  20.839  0.00  0.00    +0.000 A 
ATOM     10  N   UNL     1       0.759  11.148  19.924  0.00  0.00    +0.000 N 
ATOM     11  C   UNL     1       1.059   9.776  20.190  0.00  0.00    +0.000 A 
ATOM     12  C   UNL     1       1.783   8.942  19.312  0.00  0.00    +0.000 A 
ATOM     13  F   UNL     1       2.259   9.468  18.172  0.00  0.00    +0.000 F 
ENDROOT
BRANCH   1  17
ATOM     14  C   UNL     1       2.712   3.190  17.198  0.00  0.00    +0.000 C 
ATOM     15  C   UNL     1       3.120   4.605  17.469  0.00  0.00    +0.000 A 
ATOM     16  C   UNL     1       2.428   5.378  18.398  0.00  0.00    +0.000 A 
ATOM     17  C   UNL     1       2.785   6.718  18.616  0.00  0.00    +0.000 A 
ATOM     18  C   UNL     1       3.869   7.202  17.872  0.00  0.00    +0.000 A 
ATOM     19  C   UNL     1       4.527   6.360  16.990  0.00  0.00    +0.000 A 
ATOM     20  N   UNL     1       4.174   5.080  16.770  0.00  0.00    +0.000 NA
ENDBRANCH   1  17
BRANCH  10  21
ATOM     21  C   UNL     1       1.094  11.771  18.624  0.00  0.00    +0.000 C 
ATOM     22  C   UNL     1       0.966  13.241  18.304  0.00  0.00    +0.000 C 
ATOM     23  C   UNL     1       2.322  12.643  18.504  0.00  0.00    +0.000 C 
ENDBRANCH  10  21
BRANCH   8  24
ATOM     24  C   UNL     1      -1.194  12.325  22.909  0.00  0.00    +0.000 C 
ATOM     25  O   UNL     1      -0.721  13.351  23.376  0.00  0.00    +0.000 OA
BRANCH  24  26
ATOM     26  O   UNL     1      -2.455  11.929  23.178  0.00  0.00    +0.000 OA
ATOM     27  H   UNL     1      -2.953  12.529  23.787  0.00  0.00    +0.000 HD
ENDBRANCH  24  26
ENDBRANCH   8  24
TORSDOF 4
ENDMDL
MODEL 8
REMARK VINA RESULT:      -7.5      3.347      6.922
REMARK  Name = 
REMARK  5 active torsions:
REMARK  status: ('A' for Active; 'I' for Inactive)
REMARK    1  A    between atoms: C_1  and  C_2
REMARK    2  A    between atoms: C_4  and  C_5
REMARK    3  A    between atoms: C_12  and  C_13
REMARK    4  A    between atoms: C_13  and  O_15
REMARK    5  A    between atoms: N_17  and  C_18
REMARK                            x       y       z     vdW  Elec       q    Type
REMARK                         _______ _______ _______ _____ _____    ______ ____
ROOT
ATOM      1  C   UNL     1       2.538   7.045  18.947  0.00  0.00    +0.000 A 
ATOM      2  C   UNL     1       2.896   7.796  17.816  0.00  0.00    +0.000 A 
ATOM      3  F   UNL     1       3.554   7.232  16.792  0.00  0.00    +0.000 F 
ATOM      4  C   UNL     1       2.606   9.149  17.701  0.00  0.00    +0.000 A 
ATOM      5  C   UNL     1       1.957   9.802  18.747  0.00  0.00    +0.000 A 
ATOM      6  C   UNL     1       1.678  11.246  18.611  0.00  0.00    +0.000 A 
ATOM      7  O   UNL     1       1.990  11.862  17.594  0.00  0.00    +0.000 OA
ATOM      8  C   UNL     1       1.024  11.945  19.732  0.00  0.00    +0.000 A 
ATOM      9  C   UNL     1       0.720  11.213  20.813  0.00  0.00    +0.000 A 
ATOM     10  N   UNL     1       0.927   9.851  20.961  0.00  0.00    +0.000 N 
ATOM     11  C   UNL     1       1.576   9.123  19.916  0.00  0.00    +0.000 A 
ATOM     12  C   UNL     1       1.868   7.744  19.977  0.00  0.00    +0.000 A 
ATOM     13  F   UNL     1       1.481   7.053  21.062  0.00  0.00    +0.000 F 
ENDROOT
BRANCH   1  17
ATOM     14  C   UNL     1       1.176   2.203  18.728  0.00  0.00    +0.000 C 
ATOM     15  C   UNL     1       2.210   3.261  18.961  0.00  0.00    +0.000 A 
ATOM     16  C   UNL     1       1.876   4.611  18.882  0.00  0.00    +0.000 A 
ATOM     17  C   UNL     1       2.857   5.599  19.057  0.00  0.00    +0.000 A 
ATOM     18  C   UNL     1       4.154   5.144  19.330  0.00  0.00    +0.000 A 
ATOM     19  C   UNL     1       4.402   3.784  19.423  0.00  0.00    +0.000 A 
ATOM     20  N   UNL     1       3.462   2.838  19.240  0.00  0.00    +0.000 NA
ENDBRANCH   1  17
BRANCH  10  21
ATOM     21  C   UNL     1       0.613   9.216  22.260  0.00  0.00    +0.000 C 
ATOM     22  C   UNL     1      -0.254   9.822  23.339  0.00  0.00    +0.000 C 
ATOM     23  C   UNL     1      -0.778   8.686  22.520  0.00  0.00    +0.000 C 
ENDBRANCH  10  21
BRANCH   8  24
ATOM     24  C   UNL     1       0.705  13.386  19.708  0.00  0.00    +0.000 C 
ATOM     25  O   UNL     1       1.106  14.172  20.553  0.00  0.00    +0.000 OA
BRANCH  24  26
ATOM     26  O   UNL     1      -0.077  13.773  18.679  0.00  0.00    +0.000 OA
ATOM     27  H   UNL     1      -0.552  14.629  18.826  0.00  0.00    +0.000 HD
ENDBRANCH  24  26
ENDBRANCH   8  24
TORSDOF 4
ENDMDL
MODEL 9
REMARK VINA RESULT:      -7.5      3.907      7.841
REMARK  Name = 
REMARK  5 active torsions:
REMARK  status: ('A' for Active; 'I' for Inactive)
REMARK    1  A    between atoms: C_1  and  C_2
REMARK    2  A    between atoms: C_4  and  C_5
REMARK    3  A    between atoms: C_12  and  C_13
REMARK    4  A    between atoms: C_13  and  O_15
REMARK    5  A    between atoms: N_17  and  C_18
REMARK                            x       y       z     vdW  Elec       q    Type
REMARK                         _______ _______ _______ _____ _____    ______ ____
ROOT
ATOM      1  C   UNL     1       2.048   7.378  19.527  0.00  0.00    +0.000 A 
ATOM      2  C   UNL     1       1.578   6.897  20.760  0.00  0.00    +0.000 A 
ATOM      3  F   UNL     1       1.742   5.612  21.108  0.00  0.00    +0.000 F 
ATOM      4  C   UNL     1       0.913   7.709  21.669  0.00  0.00    +0.000 A 
ATOM      5  C   UNL     1       0.678   9.046  21.351  0.00  0.00    +0.000 A 
ATOM      6  C   UNL     1      -0.050   9.884  22.324  0.00  0.00    +0.000 A 
ATOM      7  O   UNL     1      -0.426   9.428  23.402  0.00  0.00    +0.000 OA
ATOM      8  C   UNL     1      -0.331  11.288  21.972  0.00  0.00    +0.000 A 
ATOM      9  C   UNL     1       0.101  11.715  20.778  0.00  0.00    +0.000 A 
ATOM     10  N   UNL     1       0.822  10.972  19.857  0.00  0.00    +0.000 N 
ATOM     11  C   UNL     1       1.106   9.599  20.133  0.00  0.00    +0.000 A 
ATOM     12  C   UNL     1       1.801   8.744  19.252  0.00  0.00    +0.000 A 
ATOM     13  F   UNL     1       2.263   9.249  18.097  0.00  0.00    +0.000 F 
ENDROOT
BRANCH   1  17
ATOM     14  C   UNL     1       5.884   6.450  16.401  0.00  0.00    +0.000 C 
ATOM     15  C   UNL     1       4.596   6.042  17.049  0.00  0.00    +0.000 A 
ATOM     16  C   UNL     1       3.938   6.901  17.925  0.00  0.00    +0.000 A 
ATOM     17  C   UNL     1       2.755   6.497  18.564  0.00  0.00    +0.000 A 
ATOM     18  C   UNL     1       2.286   5.215  18.250  0.00  0.00    +0.000 A 
ATOM     19  C   UNL     1       2.981   4.430  17.344  0.00  0.00    +0.000 A 
ATOM     20  N   UNL     1       4.124   4.813  16.744  0.00  0.00    +0.000 NA
ENDBRANCH   1  17
BRANCH  10  21
ATOM     21  C   UNL     1       1.142  11.575  18.544  0.00  0.00    +0.000 C 
ATOM     22  C   UNL     1       1.004  13.039  18.201  0.00  0.00    +0.000 C 
ATOM     23  C   UNL     1       2.364  12.451  18.398  0.00  0.00    +0.000 C 
ENDBRANCH  10  21
BRANCH   8  24
ATOM     24  C   UNL     1      -1.056  12.214  22.865  0.00  0.00    +0.000 C 
ATOM     25  O   UNL     1      -0.559  13.239  23.308  0.00  0.00    +0.000 OA
BRANCH  24  26
ATOM     26  O   UNL     1      -2.316  11.838  23.164  0.00  0.00    +0.000 OA
ATOM     27  H   UNL     1      -3.019  12.333  22.673  0.00  0.00    +0.000 HD
ENDBRANCH  24  26
ENDBRANCH   8  24
TORSDOF 4
ENDMDL
