MODEL 1
REMARK VINA RESULT:      -8.8      0.000      0.000
REMARK  Name = 
REMARK  9 active torsions:
REMARK  status: ('A' for Active; 'I' for Inactive)
REMARK    1  A    between atoms: C_1  and  C_2
REMARK    2  A    between atoms: C_2  and  C_3
REMARK    3  A    between atoms: C_3  and  C_4
REMARK    4  A    between atoms: C_4  and  C_5
REMARK    5  A    between atoms: C_5  and  N_6
REMARK    6  A    between atoms: C_8  and  C_9
REMARK    7  A    between atoms: N_11  and  C_12
REMARK    8  A    between atoms: C_26  and  C_27
REMARK    9  A    between atoms: C_29  and  C_30
REMARK                            x       y       z     vdW  Elec       q    Type
REMARK                         _______ _______ _______ _____ _____    ______ ____
ROOT
ATOM      1  N   UNL     1       2.270   5.720  20.488  0.00  0.00    +0.000 N 
ATOM      2  C   UNL     1       1.450   6.779  20.880  0.00  0.00    +0.000 A 
ATOM      3  C   UNL     1       1.345   7.964  20.239  0.00  0.00    +0.000 A 
ATOM      4  C   UNL     1       2.176   8.184  19.028  0.00  0.00    +0.000 A 
ATOM      5  O   UNL     1       2.174   9.219  18.374  0.00  0.00    +0.000 OA
ATOM      6  N   UNL     1       2.982   7.088  18.682  0.00  0.00    +0.000 N 
ATOM      7  N   UNL     1       3.777   7.087  17.569  0.00  0.00    +0.000 NA
ATOM      8  C   UNL     1       4.352   5.878  17.584  0.00  0.00    +0.000 A 
ATOM      9  C   UNL     1       3.982   5.130  18.724  0.00  0.00    +0.000 A 
ATOM     10  C   UNL     1       3.057   5.893  19.385  0.00  0.00    +0.000 A 
ENDROOT
BRANCH   8  11
ATOM     11  C   UNL     1       5.266   5.376  16.505  0.00  0.00    +0.000 A 
ATOM     12  C   UNL     1       4.889   4.638  15.402  0.00  0.00    +0.000 A 
ATOM     13  C   UNL     1       5.996   4.352  14.526  0.00  0.00    +0.000 A 
ATOM     14  C   UNL     1       5.911   3.644  13.218  0.00  0.00    +0.000 C 
ATOM     15  C   UNL     1       7.177   4.838  15.052  0.00  0.00    +0.000 A 
ATOM     16  S   UNL     1       6.956   5.651  16.528  0.00  0.00    +0.000 S 
ENDBRANCH   8  11
BRANCH   3  17
ATOM     17  C   UNL     1       0.386   8.968  20.783  0.00  0.00    +0.000 C 
ATOM     18  O   UNL     1      -0.589   8.597  21.432  0.00  0.00    +0.000 OA
ATOM     19  N   UNL     1       0.662  10.294  20.518  0.00  0.00    +0.000 N 
ATOM     20  H   UNL     1       1.521  10.509  20.007  0.00  0.00    +0.000 HD
BRANCH  19  21
ATOM     21  C   UNL     1      -0.164  11.419  20.984  0.00  0.00    +0.000 C 
ATOM     22  C   UNL     1       0.628  12.747  20.906  0.00  0.00    +0.000 C 
ATOM     23  C   UNL     1      -0.229  13.929  21.385  0.00  0.00    +0.000 C 
ATOM     24  C   UNL     1      -1.467  14.051  20.487  0.00  0.00    +0.000 C 
ATOM     25  C   UNL     1      -2.300  12.760  20.567  0.00  0.00    +0.000 C 
ATOM     26  C   UNL     1      -2.737  12.516  22.021  0.00  0.00    +0.000 C 
ATOM     27  C   UNL     1      -1.502  12.385  22.921  0.00  0.00    +0.000 C 
ATOM     28  C   UNL     1      -0.677  13.680  22.835  0.00  0.00    +0.000 C 
ATOM     29  C   UNL     1      -0.643  11.201  22.444  0.00  0.00    +0.000 C 
ATOM     30  C   UNL     1      -1.437  11.568  20.097  0.00  0.00    +0.000 C 
ENDBRANCH  19  21
ENDBRANCH   3  17
BRANCH   1  31
ATOM     31  C   UNL     1       2.343   4.455  21.256  0.00  0.00    +0.000 C 
BRANCH  31  32
ATOM     32  C   UNL     1       1.212   3.476  20.910  0.00  0.00    +0.000 C 
BRANCH  32  33
ATOM     33  C   UNL     1       1.617   2.303  20.010  0.00  0.00    +0.000 C 
BRANCH  33  35
ATOM     34  C   UNL     1       2.439   2.268  17.625  0.00  0.00    +0.000 C 
ATOM     35  C   UNL     1       1.262   2.539  18.543  0.00  0.00    +0.000 C 
ENDBRANCH  33  35
ENDBRANCH  32  33
ENDBRANCH  31  32
ENDBRANCH   1  31
TORSDOF 7
ENDMDL
MODEL 2
REMARK VINA RESULT:      -8.8      0.023      1.295
REMARK  Name = 
REMARK  9 active torsions:
REMARK  status: ('A' for Active; 'I' for Inactive)
REMARK    1  A    between atoms: C_1  and  C_2
REMARK    2  A    between atoms: C_2  and  C_3
REMARK    3  A    between atoms: C_3  and  C_4
REMARK    4  A    between atoms: C_4  and  C_5
REMARK    5  A    between atoms: C_5  and  N_6
REMARK    6  A    between atoms: C_8  and  C_9
REMARK    7  A    between atoms: N_11  and  C_12
REMARK    8  A    between atoms: C_26  and  C_27
REMARK    9  A    between atoms: C_29  and  C_30
REMARK                            x       y       z     vdW  Elec       q    Type
REMARK                         _______ _______ _______ _____ _____    ______ ____
ROOT
ATOM      1  N   UNL     1       2.269   5.727  20.477  0.00  0.00    +0.000 N 
ATOM      2  C   UNL     1       1.450   6.787  20.865  0.00  0.00    +0.000 A 
ATOM      3  C   UNL     1       1.346   7.971  20.221  0.00  0.00    +0.000 A 
ATOM      4  C   UNL     1       2.179   8.187  19.011  0.00  0.00    +0.000 A 
ATOM      5  O   UNL     1       2.179   9.221  18.354  0.00  0.00    +0.000 OA
ATOM      6  N   UNL     1       2.985   7.090  18.668  0.00  0.00    +0.000 N 
ATOM      7  N   UNL     1       3.781   7.085  17.557  0.00  0.00    +0.000 NA
ATOM      8  C   UNL     1       4.356   5.876  17.575  0.00  0.00    +0.000 A 
ATOM      9  C   UNL     1       3.983   5.131  18.717  0.00  0.00    +0.000 A 
ATOM     10  C   UNL     1       3.058   5.897  19.375  0.00  0.00    +0.000 A 
ENDROOT
BRANCH   8  11
ATOM     11  C   UNL     1       5.271   5.370  16.499  0.00  0.00    +0.000 A 
ATOM     12  C   UNL     1       4.893   4.642  15.390  0.00  0.00    +0.000 A 
ATOM     13  C   UNL     1       6.002   4.349  14.520  0.00  0.00    +0.000 A 
ATOM     14  C   UNL     1       5.918   3.649  13.208  0.00  0.00    +0.000 C 
ATOM     15  C   UNL     1       7.185   4.822  15.054  0.00  0.00    +0.000 A 
ATOM     16  S   UNL     1       6.963   5.629  16.533  0.00  0.00    +0.000 S 
ENDBRANCH   8  11
BRANCH   3  17
ATOM     17  C   UNL     1       0.387   8.977  20.761  0.00  0.00    +0.000 C 
ATOM     18  O   UNL     1      -0.595   8.608  21.401  0.00  0.00    +0.000 OA
ATOM     19  N   UNL     1       0.671  10.303  20.504  0.00  0.00    +0.000 N 
ATOM     20  H   UNL     1       1.535  10.516  20.000  0.00  0.00    +0.000 HD
BRANCH  19  21
ATOM     21  C   UNL     1      -0.154  11.430  20.968  0.00  0.00    +0.000 C 
ATOM     22  C   UNL     1      -1.429  11.565  20.100  0.00  0.00    +0.000 C 
ATOM     23  C   UNL     1      -2.302  12.735  20.581  0.00  0.00    +0.000 C 
ATOM     24  C   UNL     1      -2.728  12.484  22.033  0.00  0.00    +0.000 C 
ATOM     25  C   UNL     1      -1.485  12.378  22.933  0.00  0.00    +0.000 C 
ATOM     26  C   UNL     1      -0.676  13.684  22.850  0.00  0.00    +0.000 C 
ATOM     27  C   UNL     1      -0.239  13.935  21.401  0.00  0.00    +0.000 C 
ATOM     28  C   UNL     1      -1.489  14.039  20.511  0.00  0.00    +0.000 C 
ATOM     29  C   UNL     1       0.634  12.765  20.918  0.00  0.00    +0.000 C 
ATOM     30  C   UNL     1      -0.600  11.210  22.444  0.00  0.00    +0.000 C 
ENDBRANCH  19  21
ENDBRANCH   3  17
BRANCH   1  31
ATOM     31  C   UNL     1       2.341   4.464  21.248  0.00  0.00    +0.000 C 
BRANCH  31  32
ATOM     32  C   UNL     1       1.207   3.486  20.906  0.00  0.00    +0.000 C 
BRANCH  32  33
ATOM     33  C   UNL     1       1.616   2.293  20.036  0.00  0.00    +0.000 C 
BRANCH  33  35
ATOM     34  C   UNL     1       2.453   2.253  17.656  0.00  0.00    +0.000 C 
ATOM     35  C   UNL     1       1.260   2.491  18.563  0.00  0.00    +0.000 C 
ENDBRANCH  33  35
ENDBRANCH  32  33
ENDBRANCH  31  32
ENDBRANCH   1  31
TORSDOF 7
ENDMDL
MODEL 3
REMARK VINA RESULT:      -8.8      0.064      1.278
REMARK  Name = 
REMARK  9 active torsions:
REMARK  status: ('A' for Active; 'I' for Inactive)
REMARK    1  A    between atoms: C_1  and  C_2
REMARK    2  A    between atoms: C_2  and  C_3
REMARK    3  A    between atoms: C_3  and  C_4
REMARK    4  A    between atoms: C_4  and  C_5
REMARK    5  A    between atoms: C_5  and  N_6
REMARK    6  A    between atoms: C_8  and  C_9
REMARK    7  A    between atoms: N_11  and  C_12
REMARK    8  A    between atoms: C_26  and  C_27
REMARK    9  A    between atoms: C_29  and  C_30
REMARK                            x       y       z     vdW  Elec       q    Type
REMARK                         _______ _______ _______ _____ _____    ______ ____
ROOT
ATOM      1  N   UNL     1       2.287   5.753  20.464  0.00  0.00    +0.000 N 
ATOM      2  C   UNL     1       1.465   6.812  20.849  0.00  0.00    +0.000 A 
ATOM      3  C   UNL     1       1.361   7.995  20.203  0.00  0.00    +0.000 A 
ATOM      4  C   UNL     1       2.198   8.211  18.995  0.00  0.00    +0.000 A 
ATOM      5  O   UNL     1       2.197   9.244  18.337  0.00  0.00    +0.000 OA
ATOM      6  N   UNL     1       3.006   7.115  18.656  0.00  0.00    +0.000 N 
ATOM      7  N   UNL     1       3.805   7.110  17.546  0.00  0.00    +0.000 NA
ATOM      8  C   UNL     1       4.382   5.903  17.568  0.00  0.00    +0.000 A 
ATOM      9  C   UNL     1       4.007   5.157  18.709  0.00  0.00    +0.000 A 
ATOM     10  C   UNL     1       3.079   5.923  19.364  0.00  0.00    +0.000 A 
ENDROOT
BRANCH   8  11
ATOM     11  C   UNL     1       5.301   5.397  16.494  0.00  0.00    +0.000 A 
ATOM     12  C   UNL     1       4.927   4.668  15.384  0.00  0.00    +0.000 A 
ATOM     13  C   UNL     1       6.039   4.376  14.517  0.00  0.00    +0.000 A 
ATOM     14  C   UNL     1       5.959   3.676  13.205  0.00  0.00    +0.000 C 
ATOM     15  C   UNL     1       7.220   4.849  15.056  0.00  0.00    +0.000 A 
ATOM     16  S   UNL     1       6.993   5.656  16.534  0.00  0.00    +0.000 S 
ENDBRANCH   8  11
BRANCH   3  17
ATOM     17  C   UNL     1       0.400   9.000  20.739  0.00  0.00    +0.000 C 
ATOM     18  O   UNL     1      -0.569   8.631  21.401  0.00  0.00    +0.000 OA
ATOM     19  N   UNL     1       0.664  10.324  20.453  0.00  0.00    +0.000 N 
ATOM     20  H   UNL     1       1.518  10.538  19.932  0.00  0.00    +0.000 HD
BRANCH  19  21
ATOM     21  C   UNL     1      -0.167  11.450  20.909  0.00  0.00    +0.000 C 
ATOM     22  C   UNL     1      -0.563  11.269  22.395  0.00  0.00    +0.000 C 
ATOM     23  C   UNL     1      -1.426  12.443  22.883  0.00  0.00    +0.000 C 
ATOM     24  C   UNL     1      -0.626  13.746  22.750  0.00  0.00    +0.000 C 
ATOM     25  C   UNL     1      -0.244  13.978  21.278  0.00  0.00    +0.000 C 
ATOM     26  C   UNL     1      -1.518  14.064  20.421  0.00  0.00    +0.000 C 
ATOM     27  C   UNL     1      -2.317  12.759  20.543  0.00  0.00    +0.000 C 
ATOM     28  C   UNL     1      -2.694  12.538  22.018  0.00  0.00    +0.000 C 
ATOM     29  C   UNL     1      -1.455  11.582  20.055  0.00  0.00    +0.000 C 
ATOM     30  C   UNL     1       0.614  12.793  20.782  0.00  0.00    +0.000 C 
ENDBRANCH  19  21
ENDBRANCH   3  17
BRANCH   1  31
ATOM     31  C   UNL     1       2.359   4.490  21.236  0.00  0.00    +0.000 C 
BRANCH  31  32
ATOM     32  C   UNL     1       1.218   3.517  20.903  0.00  0.00    +0.000 C 
BRANCH  32  33
ATOM     33  C   UNL     1       1.612   2.334  20.012  0.00  0.00    +0.000 C 
BRANCH  33  35
ATOM     34  C   UNL     1       2.448   2.268  17.633  0.00  0.00    +0.000 C 
ATOM     35  C   UNL     1       1.270   2.567  18.542  0.00  0.00    +0.000 C 
ENDBRANCH  33  35
ENDBRANCH  32  33
ENDBRANCH  31  32
ENDBRANCH   1  31
TORSDOF 7
ENDMDL
MODEL 4
REMARK VINA RESULT:      -8.2      0.973      1.697
REMARK  Name = 
REMARK  9 active torsions:
REMARK  status: ('A' for Active; 'I' for Inactive)
REMARK    1  A    between atoms: C_1  and  C_2
REMARK    2  A    between atoms: C_2  and  C_3
REMARK    3  A    between atoms: C_3  and  C_4
REMARK    4  A    between atoms: C_4  and  C_5
REMARK    5  A    between atoms: C_5  and  N_6
REMARK    6  A    between atoms: C_8  and  C_9
REMARK    7  A    between atoms: N_11  and  C_12
REMARK    8  A    between atoms: C_26  and  C_27
REMARK    9  A    between atoms: C_29  and  C_30
REMARK                            x       y       z     vdW  Elec       q    Type
REMARK                         _______ _______ _______ _____ _____    ______ ____
ROOT
ATOM      1  N   UNL     1       2.012   6.700  20.075  0.00  0.00    +0.000 N 
ATOM      2  C   UNL     1       1.272   7.876  20.200  0.00  0.00    +0.000 A 
ATOM      3  C   UNL     1       1.334   8.931  19.358  0.00  0.00    +0.000 A 
ATOM      4  C   UNL     1       2.276   8.860  18.212  0.00  0.00    +0.000 A 
ATOM      5  O   UNL     1       2.428   9.759  17.393  0.00  0.00    +0.000 OA
ATOM      6  N   UNL     1       2.996   7.657  18.137  0.00  0.00    +0.000 N 
ATOM      7  N   UNL     1       3.872   7.391  17.122  0.00  0.00    +0.000 NA
ATOM      8  C   UNL     1       4.323   6.162  17.398  0.00  0.00    +0.000 A 
ATOM      9  C   UNL     1       3.792   5.663  18.610  0.00  0.00    +0.000 A 
ATOM     10  C   UNL     1       2.898   6.607  19.039  0.00  0.00    +0.000 A 
ENDROOT
BRANCH   8  11
ATOM     11  C   UNL     1       5.266   5.400  16.513  0.00  0.00    +0.000 A 
ATOM     12  C   UNL     1       4.988   4.933  15.245  0.00  0.00    +0.000 A 
ATOM     13  C   UNL     1       6.120   4.282  14.639  0.00  0.00    +0.000 A 
ATOM     14  C   UNL     1       6.173   3.739  13.252  0.00  0.00    +0.000 C 
ATOM     15  C   UNL     1       7.187   4.233  15.514  0.00  0.00    +0.000 A 
ATOM     16  S   UNL     1       6.853   4.984  17.002  0.00  0.00    +0.000 S 
ENDBRANCH   8  11
BRANCH   3  17
ATOM     17  C   UNL     1       0.439  10.092  19.628  0.00  0.00    +0.000 C 
ATOM     18  O   UNL     1      -0.093  10.688  18.694  0.00  0.00    +0.000 OA
ATOM     19  N   UNL     1       0.254  10.436  20.952  0.00  0.00    +0.000 N 
ATOM     20  H   UNL     1       0.703   9.855  21.663  0.00  0.00    +0.000 HD
BRANCH  19  21
ATOM     21  C   UNL     1      -0.603  11.544  21.406  0.00  0.00    +0.000 C 
ATOM     22  C   UNL     1      -1.154  11.261  22.825  0.00  0.00    +0.000 C 
ATOM     23  C   UNL     1      -2.045  12.415  23.311  0.00  0.00    +0.000 C 
ATOM     24  C   UNL     1      -1.217  13.705  23.361  0.00  0.00    +0.000 C 
ATOM     25  C   UNL     1      -0.681  14.038  21.958  0.00  0.00    +0.000 C 
ATOM     26  C   UNL     1      -1.859  14.216  20.984  0.00  0.00    +0.000 C 
ATOM     27  C   UNL     1      -2.684  12.925  20.924  0.00  0.00    +0.000 C 
ATOM     28  C   UNL     1      -3.216  12.602  22.331  0.00  0.00    +0.000 C 
ATOM     29  C   UNL     1      -1.794  11.769  20.438  0.00  0.00    +0.000 C 
ATOM     30  C   UNL     1       0.206  12.874  21.462  0.00  0.00    +0.000 C 
ENDBRANCH  19  21
ENDBRANCH   3  17
BRANCH   1  31
ATOM     31  C   UNL     1       1.901   5.592  21.053  0.00  0.00    +0.000 C 
BRANCH  31  32
ATOM     32  C   UNL     1       0.994   4.451  20.566  0.00  0.00    +0.000 C 
BRANCH  32  33
ATOM     33  C   UNL     1       1.440   3.044  20.975  0.00  0.00    +0.000 C 
BRANCH  33  35
ATOM     34  C   UNL     1       1.206   2.647  18.494  0.00  0.00    +0.000 C 
ATOM     35  C   UNL     1       1.872   2.195  19.780  0.00  0.00    +0.000 C 
ENDBRANCH  33  35
ENDBRANCH  32  33
ENDBRANCH  31  32
ENDBRANCH   1  31
TORSDOF 7
ENDMDL
MODEL 5
REMARK VINA RESULT:      -8.2      3.357      9.980
REMARK  Name = 
REMARK  9 active torsions:
REMARK  status: ('A' for Active; 'I' for Inactive)
REMARK    1  A    between atoms: C_1  and  C_2
REMARK    2  A    between atoms: C_2  and  C_3
REMARK    3  A    between atoms: C_3  and  C_4
REMARK    4  A    between atoms: C_4  and  C_5
REMARK    5  A    between atoms: C_5  and  N_6
REMARK    6  A    between atoms: C_8  and  C_9
REMARK    7  A    between atoms: N_11  and  C_12
REMARK    8  A    between atoms: C_26  and  C_27
REMARK    9  A    between atoms: C_29  and  C_30
REMARK                            x       y       z     vdW  Elec       q    Type
REMARK                         _______ _______ _______ _____ _____    ______ ____
ROOT
ATOM      1  N   UNL     1      -0.428  10.323  19.228  0.00  0.00    +0.000 N 
ATOM      2  C   UNL     1       0.417   9.214  19.166  0.00  0.00    +0.000 A 
ATOM      3  C   UNL     1       1.077   8.676  20.215  0.00  0.00    +0.000 A 
ATOM      4  C   UNL     1       0.920   9.314  21.546  0.00  0.00    +0.000 A 
ATOM      5  O   UNL     1       1.478   8.923  22.564  0.00  0.00    +0.000 OA
ATOM      6  N   UNL     1       0.063  10.426  21.550  0.00  0.00    +0.000 N 
ATOM      7  N   UNL     1      -0.243  11.111  22.693  0.00  0.00    +0.000 NA
ATOM      8  C   UNL     1      -1.088  12.064  22.283  0.00  0.00    +0.000 A 
ATOM      9  C   UNL     1      -1.279  12.035  20.882  0.00  0.00    +0.000 A 
ATOM     10  C   UNL     1      -0.584  10.943  20.436  0.00  0.00    +0.000 A 
ENDROOT
BRANCH   8  11
ATOM     11  C   UNL     1      -1.764  13.034  23.207  0.00  0.00    +0.000 A 
ATOM     12  C   UNL     1      -1.185  14.151  23.774  0.00  0.00    +0.000 A 
ATOM     13  C   UNL     1      -2.114  14.905  24.576  0.00  0.00    +0.000 A 
ATOM     14  C   UNL     1      -1.826  16.197  25.258  0.00  0.00    +0.000 C 
ATOM     15  C   UNL     1      -3.343  14.277  24.626  0.00  0.00    +0.000 A 
ATOM     16  S   UNL     1      -3.392  12.850  23.703  0.00  0.00    +0.000 S 
ENDBRANCH   8  11
BRANCH   3  17
ATOM     17  C   UNL     1       1.908   7.463  19.967  0.00  0.00    +0.000 C 
ATOM     18  O   UNL     1       1.935   6.556  20.797  0.00  0.00    +0.000 OA
ATOM     19  N   UNL     1       2.617   7.430  18.783  0.00  0.00    +0.000 N 
ATOM     20  H   UNL     1       2.498   8.211  18.134  0.00  0.00    +0.000 HD
BRANCH  19  21
ATOM     21  C   UNL     1       3.477   6.311  18.366  0.00  0.00    +0.000 C 
ATOM     22  C   UNL     1       2.624   5.140  17.821  0.00  0.00    +0.000 C 
ATOM     23  C   UNL     1       3.514   3.969  17.377  0.00  0.00    +0.000 C 
ATOM     24  C   UNL     1       4.453   4.444  16.260  0.00  0.00    +0.000 C 
ATOM     25  C   UNL     1       5.343   5.587  16.776  0.00  0.00    +0.000 C 
ATOM     26  C   UNL     1       6.173   5.095  17.974  0.00  0.00    +0.000 C 
ATOM     27  C   UNL     1       5.238   4.627  19.097  0.00  0.00    +0.000 C 
ATOM     28  C   UNL     1       4.353   3.484  18.571  0.00  0.00    +0.000 C 
ATOM     29  C   UNL     1       4.346   5.798  19.544  0.00  0.00    +0.000 C 
ATOM     30  C   UNL     1       4.450   6.761  17.234  0.00  0.00    +0.000 C 
ENDBRANCH  19  21
ENDBRANCH   3  17
BRANCH   1  31
ATOM     31  C   UNL     1      -1.104  10.867  18.027  0.00  0.00    +0.000 C 
BRANCH  31  32
ATOM     32  C   UNL     1      -2.196   9.935  17.480  0.00  0.00    +0.000 C 
BRANCH  32  33
ATOM     33  C   UNL     1      -3.493  10.631  17.054  0.00  0.00    +0.000 C 
BRANCH  33  35
ATOM     34  C   UNL     1      -2.922  10.049  14.667  0.00  0.00    +0.000 C 
ATOM     35  C   UNL     1      -3.450  11.117  15.606  0.00  0.00    +0.000 C 
ENDBRANCH  33  35
ENDBRANCH  32  33
ENDBRANCH  31  32
ENDBRANCH   1  31
TORSDOF 7
ENDMDL
MODEL 6
REMARK VINA RESULT:      -8.2      3.357      9.928
REMARK  Name = 
REMARK  9 active torsions:
REMARK  status: ('A' for Active; 'I' for Inactive)
REMARK    1  A    between atoms: C_1  and  C_2
REMARK    2  A    between atoms: C_2  and  C_3
REMARK    3  A    between atoms: C_3  and  C_4
REMARK    4  A    between atoms: C_4  and  C_5
REMARK    5  A    between atoms: C_5  and  N_6
REMARK    6  A    between atoms: C_8  and  C_9
REMARK    7  A    between atoms: N_11  and  C_12
REMARK    8  A    between atoms: C_26  and  C_27
REMARK    9  A    between atoms: C_29  and  C_30
REMARK                            x       y       z     vdW  Elec       q    Type
REMARK                         _______ _______ _______ _____ _____    ______ ____
ROOT
ATOM      1  N   UNL     1      -0.750  11.189  18.538  0.00  0.00    +0.000 N 
ATOM      2  C   UNL     1       0.144  10.173  18.198  0.00  0.00    +0.000 A 
ATOM      3  C   UNL     1       0.938   9.508  19.066  0.00  0.00    +0.000 A 
ATOM      4  C   UNL     1       0.884   9.889  20.501  0.00  0.00    +0.000 A 
ATOM      5  O   UNL     1       1.566   9.367  21.375  0.00  0.00    +0.000 OA
ATOM      6  N   UNL     1      -0.028  10.918  20.785  0.00  0.00    +0.000 N 
ATOM      7  N   UNL     1      -0.252  11.366  22.057  0.00  0.00    +0.000 NA
ATOM      8  C   UNL     1      -1.186  12.312  21.906  0.00  0.00    +0.000 A 
ATOM      9  C   UNL     1      -1.519  12.516  20.548  0.00  0.00    +0.000 A 
ATOM     10  C   UNL     1      -0.815  11.573  19.848  0.00  0.00    +0.000 A 
ENDROOT
BRANCH   8  11
ATOM     11  C   UNL     1      -1.816  13.053  23.050  0.00  0.00    +0.000 A 
ATOM     12  C   UNL     1      -1.253  14.105  23.743  0.00  0.00    +0.000 A 
ATOM     13  C   UNL     1      -2.133  14.631  24.754  0.00  0.00    +0.000 A 
ATOM     14  C   UNL     1      -1.856  15.812  25.619  0.00  0.00    +0.000 C 
ATOM     15  C   UNL     1      -3.303  13.900  24.817  0.00  0.00    +0.000 A 
ATOM     16  S   UNL     1      -3.361  12.649  23.668  0.00  0.00    +0.000 S 
ENDBRANCH   8  11
BRANCH   3  17
ATOM     17  C   UNL     1       1.805   8.422  18.526  0.00  0.00    +0.000 C 
ATOM     18  O   UNL     1       2.392   8.579  17.458  0.00  0.00    +0.000 OA
ATOM     19  N   UNL     1       1.902   7.273  19.284  0.00  0.00    +0.000 N 
ATOM     20  H   UNL     1       1.412   7.250  20.181  0.00  0.00    +0.000 HD
BRANCH  19  21
ATOM     21  C   UNL     1       2.719   6.105  18.915  0.00  0.00    +0.000 C 
ATOM     22  C   UNL     1       1.992   5.244  17.854  0.00  0.00    +0.000 C 
ATOM     23  C   UNL     1       2.839   4.026  17.457  0.00  0.00    +0.000 C 
ATOM     24  C   UNL     1       4.168   4.509  16.860  0.00  0.00    +0.000 C 
ATOM     25  C   UNL     1       4.937   5.342  17.900  0.00  0.00    +0.000 C 
ATOM     26  C   UNL     1       5.212   4.484  19.147  0.00  0.00    +0.000 C 
ATOM     27  C   UNL     1       3.886   4.006  19.753  0.00  0.00    +0.000 C 
ATOM     28  C   UNL     1       3.126   3.174  18.706  0.00  0.00    +0.000 C 
ATOM     29  C   UNL     1       3.035   5.224  20.151  0.00  0.00    +0.000 C 
ATOM     30  C   UNL     1       4.081   6.561  18.310  0.00  0.00    +0.000 C 
ENDBRANCH  19  21
ENDBRANCH   3  17
BRANCH   1  31
ATOM     31  C   UNL     1      -1.576  11.884  17.523  0.00  0.00    +0.000 C 
BRANCH  31  32
ATOM     32  C   UNL     1      -3.046  11.440  17.540  0.00  0.00    +0.000 C 
BRANCH  32  33
ATOM     33  C   UNL     1      -3.294   9.992  17.105  0.00  0.00    +0.000 C 
BRANCH  33  35
ATOM     34  C   UNL     1      -3.445  10.277  14.602  0.00  0.00    +0.000 C 
ATOM     35  C   UNL     1      -2.662   9.670  15.751  0.00  0.00    +0.000 C 
ENDBRANCH  33  35
ENDBRANCH  32  33
ENDBRANCH  31  32
ENDBRANCH   1  31
TORSDOF 7
ENDMDL
MODEL 7
REMARK VINA RESULT:      -8.1      3.011     10.155
REMARK  Name = 
REMARK  9 active torsions:
REMARK  status: ('A' for Active; 'I' for Inactive)
REMARK    1  A    between atoms: C_1  and  C_2
REMARK    2  A    between atoms: C_2  and  C_3
REMARK    3  A    between atoms: C_3  and  C_4
REMARK    4  A    between atoms: C_4  and  C_5
REMARK    5  A    between atoms: C_5  and  N_6
REMARK    6  A    between atoms: C_8  and  C_9
REMARK    7  A    between atoms: N_11  and  C_12
REMARK    8  A    between atoms: C_26  and  C_27
REMARK    9  A    between atoms: C_29  and  C_30
REMARK                            x       y       z     vdW  Elec       q    Type
REMARK                         _______ _______ _______ _____ _____    ______ ____
ROOT
ATOM      1  N   UNL     1       1.261  11.314  18.921  0.00  0.00    +0.000 N 
ATOM      2  C   UNL     1       1.819  10.080  18.585  0.00  0.00    +0.000 A 
ATOM      3  C   UNL     1       1.682   8.941  19.299  0.00  0.00    +0.000 A 
ATOM      4  C   UNL     1       0.896   8.991  20.557  0.00  0.00    +0.000 A 
ATOM      5  O   UNL     1       0.715   8.027  21.292  0.00  0.00    +0.000 OA
ATOM      6  N   UNL     1       0.361  10.256  20.848  0.00  0.00    +0.000 N 
ATOM      7  N   UNL     1      -0.433  10.483  21.937  0.00  0.00    +0.000 NA
ATOM      8  C   UNL     1      -0.747  11.780  21.845  0.00  0.00    +0.000 A 
ATOM      9  C   UNL     1      -0.114  12.401  20.743  0.00  0.00    +0.000 A 
ATOM     10  C   UNL     1       0.542  11.398  20.079  0.00  0.00    +0.000 A 
ENDROOT
BRANCH   8  11
ATOM     11  C   UNL     1      -1.676  12.484  22.790  0.00  0.00    +0.000 A 
ATOM     12  C   UNL     1      -2.876  11.994  23.262  0.00  0.00    +0.000 A 
ATOM     13  C   UNL     1      -3.508  12.891  24.194  0.00  0.00    +0.000 A 
ATOM     14  C   UNL     1      -4.771  12.625  24.939  0.00  0.00    +0.000 C 
ATOM     15  C   UNL     1      -2.777  14.055  24.330  0.00  0.00    +0.000 A 
ATOM     16  S   UNL     1      -1.353  14.050  23.402  0.00  0.00    +0.000 S 
ENDBRANCH   8  11
BRANCH   3  17
ATOM     17  C   UNL     1       2.319   7.703  18.765  0.00  0.00    +0.000 C 
ATOM     18  O   UNL     1       3.008   7.757  17.748  0.00  0.00    +0.000 OA
ATOM     19  N   UNL     1       2.092   6.538  19.468  0.00  0.00    +0.000 N 
ATOM     20  H   UNL     1       1.541   6.599  20.327  0.00  0.00    +0.000 HD
BRANCH  19  21
ATOM     21  C   UNL     1       2.649   5.226  19.096  0.00  0.00    +0.000 C 
ATOM     22  C   UNL     1       4.193   5.294  19.010  0.00  0.00    +0.000 C 
ATOM     23  C   UNL     1       4.785   3.928  18.628  0.00  0.00    +0.000 C 
ATOM     24  C   UNL     1       4.404   2.897  19.699  0.00  0.00    +0.000 C 
ATOM     25  C   UNL     1       2.873   2.777  19.790  0.00  0.00    +0.000 C 
ATOM     26  C   UNL     1       2.309   2.340  18.427  0.00  0.00    +0.000 C 
ATOM     27  C   UNL     1       2.679   3.372  17.355  0.00  0.00    +0.000 C 
ATOM     28  C   UNL     1       4.211   3.484  17.272  0.00  0.00    +0.000 C 
ATOM     29  C   UNL     1       2.087   4.741  17.734  0.00  0.00    +0.000 C 
ATOM     30  C   UNL     1       2.275   4.152  20.161  0.00  0.00    +0.000 C 
ENDBRANCH  19  21
ENDBRANCH   3  17
BRANCH   1  31
ATOM     31  C   UNL     1       1.471  12.525  18.093  0.00  0.00    +0.000 C 
BRANCH  31  32
ATOM     32  C   UNL     1       2.819  13.211  18.365  0.00  0.00    +0.000 C 
BRANCH  32  33
ATOM     33  C   UNL     1       2.744  14.476  19.227  0.00  0.00    +0.000 C 
BRANCH  33  35
ATOM     34  C   UNL     1       2.502  14.817  21.715  0.00  0.00    +0.000 C 
ATOM     35  C   UNL     1       3.386  14.289  20.601  0.00  0.00    +0.000 C 
ENDBRANCH  33  35
ENDBRANCH  32  33
ENDBRANCH  31  32
ENDBRANCH   1  31
TORSDOF 7
ENDMDL
MODEL 8
REMARK VINA RESULT:      -8.1      3.289     10.289
REMARK  Name = 
REMARK  9 active torsions:
REMARK  status: ('A' for Active; 'I' for Inactive)
REMARK    1  A    between atoms: C_1  and  C_2
REMARK    2  A    between atoms: C_2  and  C_3
REMARK    3  A    between atoms: C_3  and  C_4
REMARK    4  A    between atoms: C_4  and  C_5
REMARK    5  A    between atoms: C_5  and  N_6
REMARK    6  A    between atoms: C_8  and  C_9
REMARK    7  A    between atoms: N_11  and  C_12
REMARK    8  A    between atoms: C_26  and  C_27
REMARK    9  A    between atoms: C_29  and  C_30
REMARK                            x       y       z     vdW  Elec       q    Type
REMARK                         _______ _______ _______ _____ _____    ______ ____
ROOT
ATOM      1  N   UNL     1       1.199  11.585  19.008  0.00  0.00    +0.000 N 
ATOM      2  C   UNL     1       1.746  10.362  18.619  0.00  0.00    +0.000 A 
ATOM      3  C   UNL     1       1.574   9.188  19.267  0.00  0.00    +0.000 A 
ATOM      4  C   UNL     1       0.756   9.184  20.506  0.00  0.00    +0.000 A 
ATOM      5  O   UNL     1       0.542   8.185  21.183  0.00  0.00    +0.000 OA
ATOM      6  N   UNL     1       0.234  10.440  20.851  0.00  0.00    +0.000 N 
ATOM      7  N   UNL     1      -0.584  10.621  21.932  0.00  0.00    +0.000 NA
ATOM      8  C   UNL     1      -0.875  11.927  21.902  0.00  0.00    +0.000 A 
ATOM      9  C   UNL     1      -0.205  12.595  20.851  0.00  0.00    +0.000 A 
ATOM     10  C   UNL     1       0.452  11.619  20.151  0.00  0.00    +0.000 A 
ENDROOT
BRANCH   8  11
ATOM     11  C   UNL     1      -1.817  12.595  22.861  0.00  0.00    +0.000 A 
ATOM     12  C   UNL     1      -3.018  12.082  23.306  0.00  0.00    +0.000 A 
ATOM     13  C   UNL     1      -3.665  12.945  24.260  0.00  0.00    +0.000 A 
ATOM     14  C   UNL     1      -4.932  12.647  24.985  0.00  0.00    +0.000 C 
ATOM     15  C   UNL     1      -2.942  14.109  24.440  0.00  0.00    +0.000 A 
ATOM     16  S   UNL     1      -1.511  14.143  23.524  0.00  0.00    +0.000 S 
ENDBRANCH   8  11
BRANCH   3  17
ATOM     17  C   UNL     1       2.205   7.970  18.682  0.00  0.00    +0.000 C 
ATOM     18  O   UNL     1       2.718   8.020  17.566  0.00  0.00    +0.000 OA
ATOM     19  N   UNL     1       2.177   6.827  19.455  0.00  0.00    +0.000 N 
ATOM     20  H   UNL     1       1.767   6.893  20.389  0.00  0.00    +0.000 HD
BRANCH  19  21
ATOM     21  C   UNL     1       2.761   5.539  19.047  0.00  0.00    +0.000 C 
ATOM     22  C   UNL     1       1.990   4.949  17.840  0.00  0.00    +0.000 C 
ATOM     23  C   UNL     1       2.595   3.607  17.402  0.00  0.00    +0.000 C 
ATOM     24  C   UNL     1       4.056   3.824  16.984  0.00  0.00    +0.000 C 
ATOM     25  C   UNL     1       4.862   4.379  18.171  0.00  0.00    +0.000 C 
ATOM     26  C   UNL     1       4.803   3.385  19.344  0.00  0.00    +0.000 C 
ATOM     27  C   UNL     1       3.345   3.172  19.772  0.00  0.00    +0.000 C 
ATOM     28  C   UNL     1       2.548   2.617  18.579  0.00  0.00    +0.000 C 
ATOM     29  C   UNL     1       2.737   4.515  20.211  0.00  0.00    +0.000 C 
ATOM     30  C   UNL     1       4.249   5.722  18.621  0.00  0.00    +0.000 C 
ENDBRANCH  19  21
ENDBRANCH   3  17
BRANCH   1  31
ATOM     31  C   UNL     1       1.449  12.835  18.252  0.00  0.00    +0.000 C 
BRANCH  31  32
ATOM     32  C   UNL     1       2.908  13.308  18.341  0.00  0.00    +0.000 C 
BRANCH  32  33
ATOM     33  C   UNL     1       3.092  14.807  18.603  0.00  0.00    +0.000 C 
BRANCH  33  35
ATOM     34  C   UNL     1       2.840  16.908  17.229  0.00  0.00    +0.000 C 
ATOM     35  C   UNL     1       3.543  15.569  17.358  0.00  0.00    +0.000 C 
ENDBRANCH  33  35
ENDBRANCH  32  33
ENDBRANCH  31  32
ENDBRANCH   1  31
TORSDOF 7
ENDMDL
MODEL 9
REMARK VINA RESULT:      -8.1      3.284     10.316
REMARK  Name = 
REMARK  9 active torsions:
REMARK  status: ('A' for Active; 'I' for Inactive)
REMARK    1  A    between atoms: C_1  and  C_2
REMARK    2  A    between atoms: C_2  and  C_3
REMARK    3  A    between atoms: C_3  and  C_4
REMARK    4  A    between atoms: C_4  and  C_5
REMARK    5  A    between atoms: C_5  and  N_6
REMARK    6  A    between atoms: C_8  and  C_9
REMARK    7  A    between atoms: N_11  and  C_12
REMARK    8  A    between atoms: C_26  and  C_27
REMARK    9  A    between atoms: C_29  and  C_30
REMARK                            x       y       z     vdW  Elec       q    Type
REMARK                         _______ _______ _______ _____ _____    ______ ____
ROOT
ATOM      1  N   UNL     1       1.125  11.541  19.082  0.00  0.00    +0.000 N 
ATOM      2  C   UNL     1       1.626  10.282  18.749  0.00  0.00    +0.000 A 
ATOM      3  C   UNL     1       1.470   9.159  19.485  0.00  0.00    +0.000 A 
ATOM      4  C   UNL     1       0.726   9.258  20.767  0.00  0.00    +0.000 A 
ATOM      5  O   UNL     1       0.534   8.312  21.522  0.00  0.00    +0.000 OA
ATOM      6  N   UNL     1       0.248  10.546  21.053  0.00  0.00    +0.000 N 
ATOM      7  N   UNL     1      -0.502  10.818  22.163  0.00  0.00    +0.000 NA
ATOM      8  C   UNL     1      -0.771  12.125  22.059  0.00  0.00    +0.000 A 
ATOM      9  C   UNL     1      -0.151  12.705  20.928  0.00  0.00    +0.000 A 
ATOM     10  C   UNL     1       0.446  11.669  20.261  0.00  0.00    +0.000 A 
ENDROOT
BRANCH   8  11
ATOM     11  C   UNL     1      -1.643  12.878  23.021  0.00  0.00    +0.000 A 
ATOM     12  C   UNL     1      -1.301  14.034  23.692  0.00  0.00    +0.000 A 
ATOM     13  C   UNL     1      -2.377  14.537  24.506  0.00  0.00    +0.000 A 
ATOM     14  C   UNL     1      -2.356  15.803  25.291  0.00  0.00    +0.000 C 
ATOM     15  C   UNL     1      -3.467  13.690  24.458  0.00  0.00    +0.000 A 
ATOM     16  S   UNL     1      -3.221  12.357  23.434  0.00  0.00    +0.000 S 
ENDBRANCH   8  11
BRANCH   3  17
ATOM     17  C   UNL     1       2.044   7.891  18.952  0.00  0.00    +0.000 C 
ATOM     18  O   UNL     1       2.661   7.895  17.889  0.00  0.00    +0.000 OA
ATOM     19  N   UNL     1       1.843   6.754  19.709  0.00  0.00    +0.000 N 
ATOM     20  H   UNL     1       1.355   6.856  20.601  0.00  0.00    +0.000 HD
BRANCH  19  21
ATOM     21  C   UNL     1       2.347   5.420  19.346  0.00  0.00    +0.000 C 
ATOM     22  C   UNL     1       3.892   5.379  19.428  0.00  0.00    +0.000 C 
ATOM     23  C   UNL     1       4.428   3.987  19.057  0.00  0.00    +0.000 C 
ATOM     24  C   UNL     1       3.863   2.951  20.038  0.00  0.00    +0.000 C 
ATOM     25  C   UNL     1       2.327   2.939  19.959  0.00  0.00    +0.000 C 
ATOM     26  C   UNL     1       1.887   2.589  18.527  0.00  0.00    +0.000 C 
ATOM     27  C   UNL     1       2.442   3.627  17.544  0.00  0.00    +0.000 C 
ATOM     28  C   UNL     1       3.977   3.631  17.630  0.00  0.00    +0.000 C 
ATOM     29  C   UNL     1       1.907   5.021  17.913  0.00  0.00    +0.000 C 
ATOM     30  C   UNL     1       1.787   4.340  20.320  0.00  0.00    +0.000 C 
ENDBRANCH  19  21
ENDBRANCH   3  17
BRANCH   1  31
ATOM     31  C   UNL     1       1.353  12.730  18.229  0.00  0.00    +0.000 C 
BRANCH  31  32
ATOM     32  C   UNL     1       2.832  13.137  18.149  0.00  0.00    +0.000 C 
BRANCH  32  33
ATOM     33  C   UNL     1       3.141  14.564  18.612  0.00  0.00    +0.000 C 
BRANCH  33  35
ATOM     34  C   UNL     1       2.944  16.764  17.393  0.00  0.00    +0.000 C 
ATOM     35  C   UNL     1       3.682  15.442  17.484  0.00  0.00    +0.000 C 
ENDBRANCH  33  35
ENDBRANCH  32  33
ENDBRANCH  31  32
ENDBRANCH   1  31
TORSDOF 7
ENDMDL
