MODEL 1
REMARK VINA RESULT:      -8.0      0.000      0.000
REMARK  Name = 
REMARK  5 active torsions:
REMARK  status: ('A' for Active; 'I' for Inactive)
REMARK    1  A    between atoms: C_1  and  C_2
REMARK    2  A    between atoms: C_2  and  C_3
REMARK    3  A    between atoms: C_3  and  C_4
REMARK    4  A    between atoms: C_4  and  N_5
REMARK    5  A    between atoms: C_13  and  C_14
REMARK                            x       y       z     vdW  Elec       q    Type
REMARK                         _______ _______ _______ _____ _____    ______ ____
ROOT
ATOM      1  N   UNL     1       6.037   4.081  12.854  0.00  0.00    +0.000 N 
ATOM      2  C   UNL     1       6.170   4.351  14.201  0.00  0.00    +0.000 A 
ATOM      3  N   UNL     1       7.247   5.011  14.654  0.00  0.00    +0.000 NA
ATOM      4  C   UNL     1       7.275   5.315  15.965  0.00  0.00    +0.000 A 
ATOM      5  C   UNL     1       6.277   4.967  16.841  0.00  0.00    +0.000 A 
ATOM      6  C   UNL     1       5.232   4.229  16.317  0.00  0.00    +0.000 A 
ATOM      7  N   UNL     1       5.169   3.930  14.997  0.00  0.00    +0.000 NA
ATOM      8  C   UNL     1       4.090   3.759  17.192  0.00  0.00    +0.000 C 
ATOM      9  C   UNL     1       4.444   3.802  18.695  0.00  0.00    +0.000 C 
ATOM     10  C   UNL     1       5.054   5.161  19.053  0.00  0.00    +0.000 C 
ATOM     11  C   UNL     1       6.305   5.388  18.246  0.00  0.00    +0.000 C 
ATOM     12  O   UNL     1       7.289   5.963  18.700  0.00  0.00    +0.000 OA
ATOM     13  H   UNL     1       5.384   3.311  12.771  0.00  0.00    +0.000 HD
ENDROOT
BRANCH   9  14
ATOM     14  C   UNL     1       3.277   3.491  19.620  0.00  0.00    +0.000 A 
ATOM     15  C   UNL     1       3.480   2.687  20.752  0.00  0.00    +0.000 A 
ATOM     16  C   UNL     1       2.446   2.458  21.664  0.00  0.00    +0.000 A 
ATOM     17  C   UNL     1       1.194   3.029  21.459  0.00  0.00    +0.000 A 
ATOM     18  C   UNL     1       0.974   3.825  20.338  0.00  0.00    +0.000 A 
ATOM     19  C   UNL     1       2.006   4.054  19.423  0.00  0.00    +0.000 A 
ENDBRANCH   9  14
BRANCH   1  20
ATOM     20  C   UNL     1       7.284   3.938  12.123  0.00  0.00    +0.000 C 
BRANCH  20  21
ATOM     21  C   UNL     1       7.273   2.632  11.319  0.00  0.00    +0.000 C 
BRANCH  21  23
ATOM     22  C   UNL     1       6.105   0.400  11.133  0.00  0.00    +0.000 C 
ATOM     23  C   UNL     1       5.953   1.874  11.471  0.00  0.00    +0.000 C 
ENDBRANCH  21  23
ENDBRANCH  20  21
ENDBRANCH   1  20
TORSDOF 4
ENDMDL
MODEL 2
REMARK VINA RESULT:      -7.9      3.169      3.875
REMARK  Name = 
REMARK  5 active torsions:
REMARK  status: ('A' for Active; 'I' for Inactive)
REMARK    1  A    between atoms: C_1  and  C_2
REMARK    2  A    between atoms: C_2  and  C_3
REMARK    3  A    between atoms: C_3  and  C_4
REMARK    4  A    between atoms: C_4  and  N_5
REMARK    5  A    between atoms: C_13  and  C_14
REMARK                            x       y       z     vdW  Elec       q    Type
REMARK                         _______ _______ _______ _____ _____    ______ ____
ROOT
ATOM      1  N   UNL     1       7.078   5.341  14.020  0.00  0.00    +0.000 N 
ATOM      2  C   UNL     1       6.258   5.097  15.103  0.00  0.00    +0.000 A 
ATOM      3  N   UNL     1       6.212   3.873  15.653  0.00  0.00    +0.000 NA
ATOM      4  C   UNL     1       5.457   3.723  16.756  0.00  0.00    +0.000 A 
ATOM      5  C   UNL     1       4.733   4.746  17.319  0.00  0.00    +0.000 A 
ATOM      6  C   UNL     1       4.773   5.960  16.659  0.00  0.00    +0.000 A 
ATOM      7  N   UNL     1       5.544   6.143  15.559  0.00  0.00    +0.000 NA
ATOM      8  C   UNL     1       3.989   7.151  17.165  0.00  0.00    +0.000 C 
ATOM      9  C   UNL     1       2.872   6.745  18.151  0.00  0.00    +0.000 C 
ATOM     10  C   UNL     1       3.431   5.802  19.220  0.00  0.00    +0.000 C 
ATOM     11  C   UNL     1       3.987   4.563  18.569  0.00  0.00    +0.000 C 
ATOM     12  O   UNL     1       3.897   3.451  19.079  0.00  0.00    +0.000 OA
ATOM     13  H   UNL     1       6.719   6.168  13.560  0.00  0.00    +0.000 HD
ENDROOT
BRANCH   9  14
ATOM     14  C   UNL     1       2.161   7.919  18.807  0.00  0.00    +0.000 A 
ATOM     15  C   UNL     1       1.785   9.027  18.032  0.00  0.00    +0.000 A 
ATOM     16  C   UNL     1       1.054  10.079  18.592  0.00  0.00    +0.000 A 
ATOM     17  C   UNL     1       0.689  10.039  19.934  0.00  0.00    +0.000 A 
ATOM     18  C   UNL     1       1.058   8.950  20.718  0.00  0.00    +0.000 A 
ATOM     19  C   UNL     1       1.791   7.897  20.161  0.00  0.00    +0.000 A 
ENDBRANCH   9  14
BRANCH   1  20
ATOM     20  C   UNL     1       7.332   4.196  13.162  0.00  0.00    +0.000 C 
BRANCH  20  21
ATOM     21  C   UNL     1       6.337   4.185  11.995  0.00  0.00    +0.000 C 
BRANCH  21  23
ATOM     22  C   UNL     1       4.137   3.221  11.214  0.00  0.00    +0.000 C 
ATOM     23  C   UNL     1       5.372   3.001  12.072  0.00  0.00    +0.000 C 
ENDBRANCH  21  23
ENDBRANCH  20  21
ENDBRANCH   1  20
TORSDOF 4
ENDMDL
MODEL 3
REMARK VINA RESULT:      -7.8      2.866      3.410
REMARK  Name = 
REMARK  5 active torsions:
REMARK  status: ('A' for Active; 'I' for Inactive)
REMARK    1  A    between atoms: C_1  and  C_2
REMARK    2  A    between atoms: C_2  and  C_3
REMARK    3  A    between atoms: C_3  and  C_4
REMARK    4  A    between atoms: C_4  and  N_5
REMARK    5  A    between atoms: C_13  and  C_14
REMARK                            x       y       z     vdW  Elec       q    Type
REMARK                         _______ _______ _______ _____ _____    ______ ____
ROOT
ATOM      1  N   UNL     1       7.153   5.520  13.815  0.00  0.00    +0.000 N 
ATOM      2  C   UNL     1       6.532   5.236  15.014  0.00  0.00    +0.000 A 
ATOM      3  N   UNL     1       6.835   4.111  15.680  0.00  0.00    +0.000 NA
ATOM      4  C   UNL     1       6.255   3.934  16.882  0.00  0.00    +0.000 A 
ATOM      5  C   UNL     1       5.371   4.829  17.432  0.00  0.00    +0.000 A 
ATOM      6  C   UNL     1       5.054   5.931  16.659  0.00  0.00    +0.000 A 
ATOM      7  N   UNL     1       5.641   6.143  15.456  0.00  0.00    +0.000 NA
ATOM      8  C   UNL     1       4.067   6.969  17.145  0.00  0.00    +0.000 C 
ATOM      9  C   UNL     1       3.186   6.449  18.302  0.00  0.00    +0.000 C 
ATOM     10  C   UNL     1       4.062   5.795  19.376  0.00  0.00    +0.000 C 
ATOM     11  C   UNL     1       4.825   4.642  18.781  0.00  0.00    +0.000 C 
ATOM     12  O   UNL     1       5.055   3.610  19.403  0.00  0.00    +0.000 OA
ATOM     13  H   UNL     1       6.562   6.183  13.327  0.00  0.00    +0.000 HD
ENDROOT
BRANCH   9  14
ATOM     14  C   UNL     1       2.289   7.506  18.928  0.00  0.00    +0.000 A 
ATOM     15  C   UNL     1       1.926   7.400  20.279  0.00  0.00    +0.000 A 
ATOM     16  C   UNL     1       1.176   8.402  20.901  0.00  0.00    +0.000 A 
ATOM     17  C   UNL     1       0.778   9.525  20.182  0.00  0.00    +0.000 A 
ATOM     18  C   UNL     1       1.125   9.644  18.839  0.00  0.00    +0.000 A 
ATOM     19  C   UNL     1       1.874   8.641  18.214  0.00  0.00    +0.000 A 
ENDBRANCH   9  14
BRANCH   1  20
ATOM     20  C   UNL     1       7.580   4.364  13.046  0.00  0.00    +0.000 C 
BRANCH  20  21
ATOM     21  C   UNL     1       6.627   4.138  11.867  0.00  0.00    +0.000 C 
BRANCH  21  23
ATOM     22  C   UNL     1       4.306   3.252  11.405  0.00  0.00    +0.000 C 
ATOM     23  C   UNL     1       5.611   3.030  12.153  0.00  0.00    +0.000 C 
ENDBRANCH  21  23
ENDBRANCH  20  21
ENDBRANCH   1  20
TORSDOF 4
ENDMDL
MODEL 4
REMARK VINA RESULT:      -7.8      0.411      1.062
REMARK  Name = 
REMARK  5 active torsions:
REMARK  status: ('A' for Active; 'I' for Inactive)
REMARK    1  A    between atoms: C_1  and  C_2
REMARK    2  A    between atoms: C_2  and  C_3
REMARK    3  A    between atoms: C_3  and  C_4
REMARK    4  A    between atoms: C_4  and  N_5
REMARK    5  A    between atoms: C_13  and  C_14
REMARK                            x       y       z     vdW  Elec       q    Type
REMARK                         _______ _______ _______ _____ _____    ______ ____
ROOT
ATOM      1  N   UNL     1       6.079   4.156  12.791  0.00  0.00    +0.000 N 
ATOM      2  C   UNL     1       6.256   4.268  14.156  0.00  0.00    +0.000 A 
ATOM      3  N   UNL     1       7.424   4.706  14.651  0.00  0.00    +0.000 NA
ATOM      4  C   UNL     1       7.502   4.872  15.984  0.00  0.00    +0.000 A 
ATOM      5  C   UNL     1       6.463   4.599  16.840  0.00  0.00    +0.000 A 
ATOM      6  C   UNL     1       5.315   4.087  16.266  0.00  0.00    +0.000 A 
ATOM      7  N   UNL     1       5.203   3.932  14.924  0.00  0.00    +0.000 NA
ATOM      8  C   UNL     1       4.116   3.717  17.112  0.00  0.00    +0.000 C 
ATOM      9  C   UNL     1       4.475   3.556  18.605  0.00  0.00    +0.000 C 
ATOM     10  C   UNL     1       5.290   4.763  19.081  0.00  0.00    +0.000 C 
ATOM     11  C   UNL     1       6.560   4.871  18.279  0.00  0.00    +0.000 C 
ATOM     12  O   UNL     1       7.622   5.239  18.769  0.00  0.00    +0.000 OA
ATOM     13  H   UNL     1       5.314   3.508  12.646  0.00  0.00    +0.000 HD
ENDROOT
BRANCH   9  14
ATOM     14  C   UNL     1       3.276   3.341  19.516  0.00  0.00    +0.000 A 
ATOM     15  C   UNL     1       1.977   3.445  18.995  0.00  0.00    +0.000 A 
ATOM     16  C   UNL     1       0.861   3.167  19.789  0.00  0.00    +0.000 A 
ATOM     17  C   UNL     1       1.026   2.780  21.115  0.00  0.00    +0.000 A 
ATOM     18  C   UNL     1       2.308   2.677  21.650  0.00  0.00    +0.000 A 
ATOM     19  C   UNL     1       3.426   2.957  20.858  0.00  0.00    +0.000 A 
ENDBRANCH   9  14
BRANCH   1  20
ATOM     20  C   UNL     1       7.287   3.893  12.028  0.00  0.00    +0.000 C 
BRANCH  20  21
ATOM     21  C   UNL     1       7.289   2.442  11.533  0.00  0.00    +0.000 C 
BRANCH  21  23
ATOM     22  C   UNL     1       5.889   0.389  11.073  0.00  0.00    +0.000 C 
ATOM     23  C   UNL     1       5.875   1.865  11.438  0.00  0.00    +0.000 C 
ENDBRANCH  21  23
ENDBRANCH  20  21
ENDBRANCH   1  20
TORSDOF 4
ENDMDL
MODEL 5
REMARK VINA RESULT:      -7.7      3.762      4.623
REMARK  Name = 
REMARK  5 active torsions:
REMARK  status: ('A' for Active; 'I' for Inactive)
REMARK    1  A    between atoms: C_1  and  C_2
REMARK    2  A    between atoms: C_2  and  C_3
REMARK    3  A    between atoms: C_3  and  C_4
REMARK    4  A    between atoms: C_4  and  N_5
REMARK    5  A    between atoms: C_13  and  C_14
REMARK                            x       y       z     vdW  Elec       q    Type
REMARK                         _______ _______ _______ _____ _____    ______ ____
ROOT
ATOM      1  N   UNL     1       6.515   5.531  14.986  0.00  0.00    +0.000 N 
ATOM      2  C   UNL     1       5.602   5.416  16.016  0.00  0.00    +0.000 A 
ATOM      3  N   UNL     1       5.429   4.239  16.636  0.00  0.00    +0.000 NA
ATOM      4  C   UNL     1       4.586   4.215  17.684  0.00  0.00    +0.000 A 
ATOM      5  C   UNL     1       3.897   5.319  18.123  0.00  0.00    +0.000 A 
ATOM      6  C   UNL     1       4.073   6.481  17.394  0.00  0.00    +0.000 A 
ATOM      7  N   UNL     1       4.933   6.536  16.348  0.00  0.00    +0.000 NA
ATOM      8  C   UNL     1       3.341   7.753  17.762  0.00  0.00    +0.000 C 
ATOM      9  C   UNL     1       2.129   7.490  18.681  0.00  0.00    +0.000 C 
ATOM     10  C   UNL     1       2.540   6.588  19.848  0.00  0.00    +0.000 C 
ATOM     11  C   UNL     1       3.051   5.273  19.321  0.00  0.00    +0.000 C 
ATOM     12  O   UNL     1       2.845   4.206  19.891  0.00  0.00    +0.000 OA
ATOM     13  H   UNL     1       6.250   6.347  14.448  0.00  0.00    +0.000 HD
ENDROOT
BRANCH   9  14
ATOM     14  C   UNL     1       1.458   8.751  19.205  0.00  0.00    +0.000 A 
ATOM     15  C   UNL     1       1.115   9.780  18.314  0.00  0.00    +0.000 A 
ATOM     16  C   UNL     1       0.421  10.910  18.755  0.00  0.00    +0.000 A 
ATOM     17  C   UNL     1       0.058  11.028  20.094  0.00  0.00    +0.000 A 
ATOM     18  C   UNL     1       0.394  10.019  20.992  0.00  0.00    +0.000 A 
ATOM     19  C   UNL     1       1.091   8.889  20.553  0.00  0.00    +0.000 A 
ENDBRANCH   9  14
BRANCH   1  20
ATOM     20  C   UNL     1       6.747   4.316  14.224  0.00  0.00    +0.000 C 
BRANCH  20  21
ATOM     21  C   UNL     1       5.471   3.914  13.475  0.00  0.00    +0.000 C 
BRANCH  21  23
ATOM     22  C   UNL     1       4.527   3.039  11.301  0.00  0.00    +0.000 C 
ATOM     23  C   UNL     1       5.777   3.220  12.147  0.00  0.00    +0.000 C 
ENDBRANCH  21  23
ENDBRANCH  20  21
ENDBRANCH   1  20
TORSDOF 4
ENDMDL
MODEL 6
REMARK VINA RESULT:      -7.7      3.738      4.487
REMARK  Name = 
REMARK  5 active torsions:
REMARK  status: ('A' for Active; 'I' for Inactive)
REMARK    1  A    between atoms: C_1  and  C_2
REMARK    2  A    between atoms: C_2  and  C_3
REMARK    3  A    between atoms: C_3  and  C_4
REMARK    4  A    between atoms: C_4  and  N_5
REMARK    5  A    between atoms: C_13  and  C_14
REMARK                            x       y       z     vdW  Elec       q    Type
REMARK                         _______ _______ _______ _____ _____    ______ ____
ROOT
ATOM      1  N   UNL     1       6.503   5.529  14.836  0.00  0.00    +0.000 N 
ATOM      2  C   UNL     1       5.606   5.401  15.878  0.00  0.00    +0.000 A 
ATOM      3  N   UNL     1       5.437   4.214  16.480  0.00  0.00    +0.000 NA
ATOM      4  C   UNL     1       4.610   4.175  17.541  0.00  0.00    +0.000 A 
ATOM      5  C   UNL     1       3.934   5.275  18.011  0.00  0.00    +0.000 A 
ATOM      6  C   UNL     1       4.104   6.448  17.299  0.00  0.00    +0.000 A 
ATOM      7  N   UNL     1       4.948   6.518  16.241  0.00  0.00    +0.000 NA
ATOM      8  C   UNL     1       3.385   7.717  17.701  0.00  0.00    +0.000 C 
ATOM      9  C   UNL     1       2.185   7.444  18.634  0.00  0.00    +0.000 C 
ATOM     10  C   UNL     1       2.610   6.519  19.779  0.00  0.00    +0.000 C 
ATOM     11  C   UNL     1       3.107   5.211  19.221  0.00  0.00    +0.000 C 
ATOM     12  O   UNL     1       2.904   4.136  19.775  0.00  0.00    +0.000 OA
ATOM     13  H   UNL     1       6.234   6.357  14.317  0.00  0.00    +0.000 HD
ENDROOT
BRANCH   9  14
ATOM     14  C   UNL     1       1.529   8.698  19.191  0.00  0.00    +0.000 A 
ATOM     15  C   UNL     1       1.172   8.755  20.547  0.00  0.00    +0.000 A 
ATOM     16  C   UNL     1       0.648   9.926  21.103  0.00  0.00    +0.000 A 
ATOM     17  C   UNL     1       0.474  11.058  20.311  0.00  0.00    +0.000 A 
ATOM     18  C   UNL     1       0.818  11.017  18.963  0.00  0.00    +0.000 A 
ATOM     19  C   UNL     1       1.340   9.846  18.404  0.00  0.00    +0.000 A 
ENDBRANCH   9  14
BRANCH   1  20
ATOM     20  C   UNL     1       6.717   4.327  14.050  0.00  0.00    +0.000 C 
BRANCH  20  21
ATOM     21  C   UNL     1       5.389   3.850  13.449  0.00  0.00    +0.000 C 
BRANCH  21  23
ATOM     22  C   UNL     1       4.299   3.173  11.272  0.00  0.00    +0.000 C 
ATOM     23  C   UNL     1       5.582   3.180  12.087  0.00  0.00    +0.000 C 
ENDBRANCH  21  23
ENDBRANCH  20  21
ENDBRANCH   1  20
TORSDOF 4
ENDMDL
MODEL 7
REMARK VINA RESULT:      -7.3      3.801      8.519
REMARK  Name = 
REMARK  5 active torsions:
REMARK  status: ('A' for Active; 'I' for Inactive)
REMARK    1  A    between atoms: C_1  and  C_2
REMARK    2  A    between atoms: C_2  and  C_3
REMARK    3  A    between atoms: C_3  and  C_4
REMARK    4  A    between atoms: C_4  and  N_5
REMARK    5  A    between atoms: C_13  and  C_14
REMARK                            x       y       z     vdW  Elec       q    Type
REMARK                         _______ _______ _______ _____ _____    ______ ____
ROOT
ATOM      1  N   UNL     1       1.651   8.226  19.758  0.00  0.00    +0.000 N 
ATOM      2  C   UNL     1       2.306   7.047  19.464  0.00  0.00    +0.000 A 
ATOM      3  N   UNL     1       2.225   6.003  20.304  0.00  0.00    +0.000 NA
ATOM      4  C   UNL     1       2.818   4.858  19.918  0.00  0.00    +0.000 A 
ATOM      5  C   UNL     1       3.502   4.724  18.735  0.00  0.00    +0.000 A 
ATOM      6  C   UNL     1       3.602   5.860  17.954  0.00  0.00    +0.000 A 
ATOM      7  N   UNL     1       2.996   7.019  18.308  0.00  0.00    +0.000 NA
ATOM      8  C   UNL     1       4.361   5.844  16.644  0.00  0.00    +0.000 C 
ATOM      9  C   UNL     1       5.317   4.636  16.533  0.00  0.00    +0.000 C 
ATOM     10  C   UNL     1       4.578   3.345  16.900  0.00  0.00    +0.000 C 
ATOM     11  C   UNL     1       4.064   3.436  18.313  0.00  0.00    +0.000 C 
ATOM     12  O   UNL     1       4.037   2.471  19.070  0.00  0.00    +0.000 OA
ATOM     13  H   UNL     1       2.104   8.956  19.221  0.00  0.00    +0.000 HD
ENDROOT
BRANCH   9  14
ATOM     14  C   UNL     1       5.981   4.490  15.172  0.00  0.00    +0.000 A 
ATOM     15  C   UNL     1       5.372   3.707  14.179  0.00  0.00    +0.000 A 
ATOM     16  C   UNL     1       5.917   3.627  12.894  0.00  0.00    +0.000 A 
ATOM     17  C   UNL     1       7.077   4.329  12.582  0.00  0.00    +0.000 A 
ATOM     18  C   UNL     1       7.697   5.106  13.557  0.00  0.00    +0.000 A 
ATOM     19  C   UNL     1       7.156   5.186  14.844  0.00  0.00    +0.000 A 
ENDBRANCH   9  14
BRANCH   1  20
ATOM     20  C   UNL     1       1.467   8.499  21.173  0.00  0.00    +0.000 C 
BRANCH  20  21
ATOM     21  C   UNL     1       0.012   8.898  21.445  0.00  0.00    +0.000 C 
BRANCH  21  23
ATOM     22  C   UNL     1      -0.971  10.571  23.063  0.00  0.00    +0.000 C 
ATOM     23  C   UNL     1      -0.221   9.257  22.914  0.00  0.00    +0.000 C 
ENDBRANCH  21  23
ENDBRANCH  20  21
ENDBRANCH   1  20
TORSDOF 4
ENDMDL
MODEL 8
REMARK VINA RESULT:      -7.3      2.453      7.387
REMARK  Name = 
REMARK  5 active torsions:
REMARK  status: ('A' for Active; 'I' for Inactive)
REMARK    1  A    between atoms: C_1  and  C_2
REMARK    2  A    between atoms: C_2  and  C_3
REMARK    3  A    between atoms: C_3  and  C_4
REMARK    4  A    between atoms: C_4  and  N_5
REMARK    5  A    between atoms: C_13  and  C_14
REMARK                            x       y       z     vdW  Elec       q    Type
REMARK                         _______ _______ _______ _____ _____    ______ ____
ROOT
ATOM      1  N   UNL     1       3.550   2.701  20.873  0.00  0.00    +0.000 N 
ATOM      2  C   UNL     1       3.725   3.678  19.913  0.00  0.00    +0.000 A 
ATOM      3  N   UNL     1       3.327   4.937  20.152  0.00  0.00    +0.000 NA
ATOM      4  C   UNL     1       3.602   5.857  19.210  0.00  0.00    +0.000 A 
ATOM      5  C   UNL     1       4.243   5.562  18.032  0.00  0.00    +0.000 A 
ATOM      6  C   UNL     1       4.562   4.233  17.824  0.00  0.00    +0.000 A 
ATOM      7  N   UNL     1       4.316   3.290  18.767  0.00  0.00    +0.000 NA
ATOM      8  C   UNL     1       5.239   3.781  16.549  0.00  0.00    +0.000 C 
ATOM      9  C   UNL     1       5.115   4.822  15.415  0.00  0.00    +0.000 C 
ATOM     10  C   UNL     1       5.506   6.210  15.931  0.00  0.00    +0.000 C 
ATOM     11  C   UNL     1       4.599   6.608  17.066  0.00  0.00    +0.000 C 
ATOM     12  O   UNL     1       4.221   7.762  17.237  0.00  0.00    +0.000 OA
ATOM     13  H   UNL     1       3.579   1.809  20.393  0.00  0.00    +0.000 HD
ENDROOT
BRANCH   9  14
ATOM     14  C   UNL     1       5.914   4.483  14.166  0.00  0.00    +0.000 A 
ATOM     15  C   UNL     1       5.414   3.541  13.253  0.00  0.00    +0.000 A 
ATOM     16  C   UNL     1       6.086   3.276  12.056  0.00  0.00    +0.000 A 
ATOM     17  C   UNL     1       7.266   3.948  11.754  0.00  0.00    +0.000 A 
ATOM     18  C   UNL     1       7.779   4.881  12.651  0.00  0.00    +0.000 A 
ATOM     19  C   UNL     1       7.110   5.147  13.850  0.00  0.00    +0.000 A 
ENDBRANCH   9  14
BRANCH   1  20
ATOM     20  C   UNL     1       2.424   2.904  21.768  0.00  0.00    +0.000 C 
BRANCH  20  21
ATOM     21  C   UNL     1       1.157   2.285  21.165  0.00  0.00    +0.000 C 
BRANCH  21  23
ATOM     22  C   UNL     1       0.649   2.495  18.699  0.00  0.00    +0.000 C 
ATOM     23  C   UNL     1       0.557   3.160  20.063  0.00  0.00    +0.000 C 
ENDBRANCH  21  23
ENDBRANCH  20  21
ENDBRANCH   1  20
TORSDOF 4
ENDMDL
MODEL 9
REMARK VINA RESULT:      -7.2      2.157      7.319
REMARK  Name = 
REMARK  5 active torsions:
REMARK  status: ('A' for Active; 'I' for Inactive)
REMARK    1  A    between atoms: C_1  and  C_2
REMARK    2  A    between atoms: C_2  and  C_3
REMARK    3  A    between atoms: C_3  and  C_4
REMARK    4  A    between atoms: C_4  and  N_5
REMARK    5  A    between atoms: C_13  and  C_14
REMARK                            x       y       z     vdW  Elec       q    Type
REMARK                         _______ _______ _______ _____ _____    ______ ____
ROOT
ATOM      1  N   UNL     1       3.506   2.573  20.558  0.00  0.00    +0.000 N 
ATOM      2  C   UNL     1       4.020   3.536  19.714  0.00  0.00    +0.000 A 
ATOM      3  N   UNL     1       4.231   4.783  20.163  0.00  0.00    +0.000 NA
ATOM      4  C   UNL     1       4.811   5.652  19.315  0.00  0.00    +0.000 A 
ATOM      5  C   UNL     1       5.170   5.326  18.030  0.00  0.00    +0.000 A 
ATOM      6  C   UNL     1       4.859   4.044  17.614  0.00  0.00    +0.000 A 
ATOM      7  N   UNL     1       4.295   3.144  18.456  0.00  0.00    +0.000 NA
ATOM      8  C   UNL     1       5.174   3.580  16.209  0.00  0.00    +0.000 C 
ATOM      9  C   UNL     1       5.435   4.758  15.244  0.00  0.00    +0.000 C 
ATOM     10  C   UNL     1       6.430   5.739  15.870  0.00  0.00    +0.000 C 
ATOM     11  C   UNL     1       5.875   6.276  17.163  0.00  0.00    +0.000 C 
ATOM     12  O   UNL     1       6.054   7.433  17.530  0.00  0.00    +0.000 OA
ATOM     13  H   UNL     1       3.107   1.850  19.971  0.00  0.00    +0.000 HD
ENDROOT
BRANCH   9  14
ATOM     14  C   UNL     1       5.911   4.339  13.862  0.00  0.00    +0.000 A 
ATOM     15  C   UNL     1       7.122   4.839  13.360  0.00  0.00    +0.000 A 
ATOM     16  C   UNL     1       7.625   4.402  12.131  0.00  0.00    +0.000 A 
ATOM     17  C   UNL     1       6.924   3.459  11.385  0.00  0.00    +0.000 A 
ATOM     18  C   UNL     1       5.718   2.957  11.865  0.00  0.00    +0.000 A 
ATOM     19  C   UNL     1       5.212   3.393  13.094  0.00  0.00    +0.000 A 
ENDBRANCH   9  14
BRANCH   1  20
ATOM     20  C   UNL     1       2.651   3.070  21.622  0.00  0.00    +0.000 C 
BRANCH  20  21
ATOM     21  C   UNL     1       1.184   2.758  21.305  0.00  0.00    +0.000 C 
BRANCH  21  23
ATOM     22  C   UNL     1       0.594   2.665  18.850  0.00  0.00    +0.000 C 
ATOM     23  C   UNL     1       0.679   3.540  20.091  0.00  0.00    +0.000 C 
ENDBRANCH  21  23
ENDBRANCH  20  21
ENDBRANCH   1  20
TORSDOF 4
ENDMDL
