MODEL 1
REMARK VINA RESULT:      -8.1      0.000      0.000
REMARK  Name = 
REMARK  5 active torsions:
REMARK  status: ('A' for Active; 'I' for Inactive)
REMARK    1  A    between atoms: C_1  and  N_2
REMARK    2  A    between atoms: N_2  and  C_3
REMARK    3  A    between atoms: N_2  and  C_15
REMARK    4  A    between atoms: C_3  and  C_4
REMARK    5  A    between atoms: C_7  and  C_8
REMARK                            x       y       z     vdW  Elec       q    Type
REMARK                         _______ _______ _______ _____ _____    ______ ____
ROOT
ATOM      1  C   UNL     1       6.012   5.000  18.024  0.00  0.00    +0.000 A 
ATOM      2  C   UNL     1       7.386   4.916  17.970  0.00  0.00    +0.000 A 
ATOM      3  O   UNL     1       7.749   4.679  16.684  0.00  0.00    +0.000 OA
ATOM      4  C   UNL     1       6.566   4.647  15.991  0.00  0.00    +0.000 A 
ATOM      5  N   UNL     1       5.498   4.817  16.752  0.00  0.00    +0.000 NA
ENDROOT
BRANCH   4   6
ATOM      6  C   UNL     1       6.664   4.502  14.539  0.00  0.00    +0.000 A 
ATOM      7  C   UNL     1       5.856   3.592  13.839  0.00  0.00    +0.000 A 
ATOM      8  C   UNL     1       6.004   3.413  12.461  0.00  0.00    +0.000 A 
ATOM      9  C   UNL     1       6.958   4.147  11.762  0.00  0.00    +0.000 A 
ATOM     10  C   UNL     1       7.755   5.070  12.436  0.00  0.00    +0.000 A 
ATOM     11  C   UNL     1       7.608   5.248  13.816  0.00  0.00    +0.000 A 
ENDBRANCH   4   6
BRANCH   1  12
ATOM     12  C   UNL     1       5.136   5.309  19.200  0.00  0.00    +0.000 C 
BRANCH  12  14
ATOM     13  C   UNL     1       3.445   6.898  18.184  0.00  0.00    +0.000 C 
ATOM     14  N   UNL     1       3.734   5.729  18.999  0.00  0.00    +0.000 N 
BRANCH  14  15
ATOM     15  C   UNL     1       2.743   4.768  19.210  0.00  0.00    +0.000 A 
ATOM     16  C   UNL     1       2.227   3.975  18.172  0.00  0.00    +0.000 A 
ATOM     17  C   UNL     1       1.230   3.018  18.403  0.00  0.00    +0.000 A 
ATOM     18  C   UNL     1       0.711   2.843  19.680  0.00  0.00    +0.000 A 
ATOM     19  C   UNL     1       1.192   3.623  20.724  0.00  0.00    +0.000 A 
ATOM     20  C   UNL     1       2.196   4.568  20.488  0.00  0.00    +0.000 A 
ENDBRANCH  14  15
ENDBRANCH  12  14
ENDBRANCH   1  12
TORSDOF 4
ENDMDL
MODEL 2
REMARK VINA RESULT:      -8.1      0.512      1.602
REMARK  Name = 
REMARK  5 active torsions:
REMARK  status: ('A' for Active; 'I' for Inactive)
REMARK    1  A    between atoms: C_1  and  N_2
REMARK    2  A    between atoms: N_2  and  C_3
REMARK    3  A    between atoms: N_2  and  C_15
REMARK    4  A    between atoms: C_3  and  C_4
REMARK    5  A    between atoms: C_7  and  C_8
REMARK                            x       y       z     vdW  Elec       q    Type
REMARK                         _______ _______ _______ _____ _____    ______ ____
ROOT
ATOM      1  C   UNL     1       5.873   5.556  17.831  0.00  0.00    +0.000 A 
ATOM      2  C   UNL     1       7.025   6.276  17.607  0.00  0.00    +0.000 A 
ATOM      3  O   UNL     1       7.465   5.998  16.352  0.00  0.00    +0.000 OA
ATOM      4  C   UNL     1       6.539   5.121  15.847  0.00  0.00    +0.000 A 
ATOM      5  N   UNL     1       5.577   4.813  16.701  0.00  0.00    +0.000 NA
ENDROOT
BRANCH   4   6
ATOM      6  C   UNL     1       6.712   4.721  14.451  0.00  0.00    +0.000 A 
ATOM      7  C   UNL     1       7.664   5.341  13.626  0.00  0.00    +0.000 A 
ATOM      8  C   UNL     1       7.776   4.996  12.276  0.00  0.00    +0.000 A 
ATOM      9  C   UNL     1       6.941   4.023  11.734  0.00  0.00    +0.000 A 
ATOM     10  C   UNL     1       6.005   3.382  12.543  0.00  0.00    +0.000 A 
ATOM     11  C   UNL     1       5.892   3.728  13.894  0.00  0.00    +0.000 A 
ENDBRANCH   4   6
BRANCH   1  12
ATOM     12  C   UNL     1       4.979   5.565  19.034  0.00  0.00    +0.000 C 
BRANCH  12  14
ATOM     13  C   UNL     1       3.173   7.079  18.103  0.00  0.00    +0.000 C 
ATOM     14  N   UNL     1       3.553   5.926  18.904  0.00  0.00    +0.000 N 
BRANCH  14  15
ATOM     15  C   UNL     1       2.616   4.924  19.167  0.00  0.00    +0.000 A 
ATOM     16  C   UNL     1       2.127   4.666  20.458  0.00  0.00    +0.000 A 
ATOM     17  C   UNL     1       1.190   3.654  20.702  0.00  0.00    +0.000 A 
ATOM     18  C   UNL     1       0.729   2.862  19.657  0.00  0.00    +0.000 A 
ATOM     19  C   UNL     1       1.204   3.083  18.372  0.00  0.00    +0.000 A 
ATOM     20  C   UNL     1       2.132   4.104  18.134  0.00  0.00    +0.000 A 
ENDBRANCH  14  15
ENDBRANCH  12  14
ENDBRANCH   1  12
TORSDOF 4
ENDMDL
MODEL 3
REMARK VINA RESULT:      -8.1      0.093      1.073
REMARK  Name = 
REMARK  5 active torsions:
REMARK  status: ('A' for Active; 'I' for Inactive)
REMARK    1  A    between atoms: C_1  and  N_2
REMARK    2  A    between atoms: N_2  and  C_3
REMARK    3  A    between atoms: N_2  and  C_15
REMARK    4  A    between atoms: C_3  and  C_4
REMARK    5  A    between atoms: C_7  and  C_8
REMARK                            x       y       z     vdW  Elec       q    Type
REMARK                         _______ _______ _______ _____ _____    ______ ____
ROOT
ATOM      1  C   UNL     1       6.003   5.063  18.025  0.00  0.00    +0.000 A 
ATOM      2  C   UNL     1       7.369   4.886  17.998  0.00  0.00    +0.000 A 
ATOM      3  O   UNL     1       7.741   4.629  16.717  0.00  0.00    +0.000 OA
ATOM      4  C   UNL     1       6.571   4.679  16.001  0.00  0.00    +0.000 A 
ATOM      5  N   UNL     1       5.503   4.918  16.742  0.00  0.00    +0.000 NA
ENDROOT
BRANCH   4   6
ATOM      6  C   UNL     1       6.688   4.531  14.551  0.00  0.00    +0.000 A 
ATOM      7  C   UNL     1       5.931   3.579  13.850  0.00  0.00    +0.000 A 
ATOM      8  C   UNL     1       6.099   3.401  12.474  0.00  0.00    +0.000 A 
ATOM      9  C   UNL     1       7.022   4.177  11.778  0.00  0.00    +0.000 A 
ATOM     10  C   UNL     1       7.767   5.141  12.454  0.00  0.00    +0.000 A 
ATOM     11  C   UNL     1       7.600   5.318  13.831  0.00  0.00    +0.000 A 
ENDBRANCH   4   6
BRANCH   1  12
ATOM     12  C   UNL     1       5.126   5.426  19.185  0.00  0.00    +0.000 C 
BRANCH  12  14
ATOM     13  C   UNL     1       3.431   6.967  18.101  0.00  0.00    +0.000 C 
ATOM     14  N   UNL     1       3.724   5.833  18.964  0.00  0.00    +0.000 N 
BRANCH  14  15
ATOM     15  C   UNL     1       2.736   4.877  19.212  0.00  0.00    +0.000 A 
ATOM     16  C   UNL     1       2.270   4.590  20.506  0.00  0.00    +0.000 A 
ATOM     17  C   UNL     1       1.282   3.624  20.735  0.00  0.00    +0.000 A 
ATOM     18  C   UNL     1       0.744   2.908  19.672  0.00  0.00    +0.000 A 
ATOM     19  C   UNL     1       1.195   3.160  18.383  0.00  0.00    +0.000 A 
ATOM     20  C   UNL     1       2.174   4.134  18.160  0.00  0.00    +0.000 A 
ENDBRANCH  14  15
ENDBRANCH  12  14
ENDBRANCH   1  12
TORSDOF 4
ENDMDL
MODEL 4
REMARK VINA RESULT:      -8.0      0.114      1.084
REMARK  Name = 
REMARK  5 active torsions:
REMARK  status: ('A' for Active; 'I' for Inactive)
REMARK    1  A    between atoms: C_1  and  N_2
REMARK    2  A    between atoms: N_2  and  C_3
REMARK    3  A    between atoms: N_2  and  C_15
REMARK    4  A    between atoms: C_3  and  C_4
REMARK    5  A    between atoms: C_7  and  C_8
REMARK                            x       y       z     vdW  Elec       q    Type
REMARK                         _______ _______ _______ _____ _____    ______ ____
ROOT
ATOM      1  C   UNL     1       6.036   4.990  18.069  0.00  0.00    +0.000 A 
ATOM      2  C   UNL     1       7.405   5.134  18.002  0.00  0.00    +0.000 A 
ATOM      3  O   UNL     1       7.796   4.908  16.721  0.00  0.00    +0.000 OA
ATOM      4  C   UNL     1       6.631   4.650  16.044  0.00  0.00    +0.000 A 
ATOM      5  N   UNL     1       5.554   4.671  16.811  0.00  0.00    +0.000 NA
ENDROOT
BRANCH   4   6
ATOM      6  C   UNL     1       6.744   4.463  14.598  0.00  0.00    +0.000 A 
ATOM      7  C   UNL     1       7.665   5.199  13.836  0.00  0.00    +0.000 A 
ATOM      8  C   UNL     1       7.719   5.060  12.446  0.00  0.00    +0.000 A 
ATOM      9  C   UNL     1       6.857   4.178  11.800  0.00  0.00    +0.000 A 
ATOM     10  C   UNL     1       5.951   3.423  12.543  0.00  0.00    +0.000 A 
ATOM     11  C   UNL     1       5.896   3.563  13.934  0.00  0.00    +0.000 A 
ENDBRANCH   4   6
BRANCH   1  12
ATOM     12  C   UNL     1       5.127   5.196  19.242  0.00  0.00    +0.000 C 
BRANCH  12  14
ATOM     13  C   UNL     1       3.474   6.838  18.245  0.00  0.00    +0.000 C 
ATOM     14  N   UNL     1       3.736   5.648  19.039  0.00  0.00    +0.000 N 
BRANCH  14  15
ATOM     15  C   UNL     1       2.724   4.703  19.225  0.00  0.00    +0.000 A 
ATOM     16  C   UNL     1       2.189   3.951  18.167  0.00  0.00    +0.000 A 
ATOM     17  C   UNL     1       1.172   3.010  18.372  0.00  0.00    +0.000 A 
ATOM     18  C   UNL     1       0.652   2.809  19.646  0.00  0.00    +0.000 A 
ATOM     19  C   UNL     1       1.152   3.548  20.710  0.00  0.00    +0.000 A 
ATOM     20  C   UNL     1       2.176   4.478  20.499  0.00  0.00    +0.000 A 
ENDBRANCH  14  15
ENDBRANCH  12  14
ENDBRANCH   1  12
TORSDOF 4
ENDMDL
MODEL 5
REMARK VINA RESULT:      -7.5      1.192      1.844
REMARK  Name = 
REMARK  5 active torsions:
REMARK  status: ('A' for Active; 'I' for Inactive)
REMARK    1  A    between atoms: C_1  and  N_2
REMARK    2  A    between atoms: N_2  and  C_3
REMARK    3  A    between atoms: N_2  and  C_15
REMARK    4  A    between atoms: C_3  and  C_4
REMARK    5  A    between atoms: C_7  and  C_8
REMARK                            x       y       z     vdW  Elec       q    Type
REMARK                         _______ _______ _______ _____ _____    ______ ____
ROOT
ATOM      1  C   UNL     1       6.070   4.359  18.001  0.00  0.00    +0.000 A 
ATOM      2  C   UNL     1       7.419   4.633  17.951  0.00  0.00    +0.000 A 
ATOM      3  O   UNL     1       7.809   4.624  16.650  0.00  0.00    +0.000 OA
ATOM      4  C   UNL     1       6.661   4.361  15.947  0.00  0.00    +0.000 A 
ATOM      5  N   UNL     1       5.598   4.177  16.712  0.00  0.00    +0.000 NA
ENDROOT
BRANCH   4   6
ATOM      6  C   UNL     1       6.768   4.389  14.489  0.00  0.00    +0.000 A 
ATOM      7  C   UNL     1       6.030   3.506  13.685  0.00  0.00    +0.000 A 
ATOM      8  C   UNL     1       6.189   3.497  12.296  0.00  0.00    +0.000 A 
ATOM      9  C   UNL     1       7.085   4.375  11.692  0.00  0.00    +0.000 A 
ATOM     10  C   UNL     1       7.811   5.272  12.472  0.00  0.00    +0.000 A 
ATOM     11  C   UNL     1       7.652   5.280  13.862  0.00  0.00    +0.000 A 
ENDBRANCH   4   6
BRANCH   1  12
ATOM     12  C   UNL     1       5.164   4.317  19.194  0.00  0.00    +0.000 C 
BRANCH  12  14
ATOM     13  C   UNL     1       5.105   2.015  20.252  0.00  0.00    +0.000 C 
ATOM     14  N   UNL     1       4.428   3.082  19.531  0.00  0.00    +0.000 N 
BRANCH  14  15
ATOM     15  C   UNL     1       3.033   3.156  19.551  0.00  0.00    +0.000 A 
ATOM     16  C   UNL     1       2.336   4.057  20.371  0.00  0.00    +0.000 A 
ATOM     17  C   UNL     1       0.936   4.114  20.379  0.00  0.00    +0.000 A 
ATOM     18  C   UNL     1       0.197   3.253  19.576  0.00  0.00    +0.000 A 
ATOM     19  C   UNL     1       0.858   2.341  18.765  0.00  0.00    +0.000 A 
ATOM     20  C   UNL     1       2.257   2.298  18.753  0.00  0.00    +0.000 A 
ENDBRANCH  14  15
ENDBRANCH  12  14
ENDBRANCH   1  12
TORSDOF 4
ENDMDL
MODEL 6
REMARK VINA RESULT:      -7.4      1.601      6.998
REMARK  Name = 
REMARK  5 active torsions:
REMARK  status: ('A' for Active; 'I' for Inactive)
REMARK    1  A    between atoms: C_1  and  N_2
REMARK    2  A    between atoms: N_2  and  C_3
REMARK    3  A    between atoms: N_2  and  C_15
REMARK    4  A    between atoms: C_3  and  C_4
REMARK    5  A    between atoms: C_7  and  C_8
REMARK                            x       y       z     vdW  Elec       q    Type
REMARK                         _______ _______ _______ _____ _____    ______ ____
ROOT
ATOM      1  C   UNL     1       4.667   6.397  16.899  0.00  0.00    +0.000 A 
ATOM      2  C   UNL     1       3.900   7.364  17.511  0.00  0.00    +0.000 A 
ATOM      3  O   UNL     1       2.901   6.749  18.195  0.00  0.00    +0.000 OA
ATOM      4  C   UNL     1       3.113   5.410  17.985  0.00  0.00    +0.000 A 
ATOM      5  N   UNL     1       4.147   5.150  17.203  0.00  0.00    +0.000 NA
ENDROOT
BRANCH   4   6
ATOM      6  C   UNL     1       2.226   4.490  18.697  0.00  0.00    +0.000 A 
ATOM      7  C   UNL     1       1.899   4.688  20.047  0.00  0.00    +0.000 A 
ATOM      8  C   UNL     1       1.103   3.767  20.736  0.00  0.00    +0.000 A 
ATOM      9  C   UNL     1       0.620   2.638  20.081  0.00  0.00    +0.000 A 
ATOM     10  C   UNL     1       0.918   2.436  18.734  0.00  0.00    +0.000 A 
ATOM     11  C   UNL     1       1.714   3.357  18.046  0.00  0.00    +0.000 A 
ENDBRANCH   4   6
BRANCH   1  12
ATOM     12  C   UNL     1       5.914   6.563  16.085  0.00  0.00    +0.000 C 
BRANCH  12  14
ATOM     13  C   UNL     1       7.287   4.598  16.905  0.00  0.00    +0.000 C 
ATOM     14  N   UNL     1       6.784   5.403  15.804  0.00  0.00    +0.000 N 
BRANCH  14  15
ATOM     15  C   UNL     1       6.728   4.860  14.518  0.00  0.00    +0.000 A 
ATOM     16  C   UNL     1       5.780   3.893  14.146  0.00  0.00    +0.000 A 
ATOM     17  C   UNL     1       5.743   3.358  12.852  0.00  0.00    +0.000 A 
ATOM     18  C   UNL     1       6.668   3.768  11.899  0.00  0.00    +0.000 A 
ATOM     19  C   UNL     1       7.626   4.713  12.241  0.00  0.00    +0.000 A 
ATOM     20  C   UNL     1       7.650   5.251  13.532  0.00  0.00    +0.000 A 
ENDBRANCH  14  15
ENDBRANCH  12  14
ENDBRANCH   1  12
TORSDOF 4
ENDMDL
MODEL 7
REMARK VINA RESULT:      -7.4      2.530      6.888
REMARK  Name = 
REMARK  5 active torsions:
REMARK  status: ('A' for Active; 'I' for Inactive)
REMARK    1  A    between atoms: C_1  and  N_2
REMARK    2  A    between atoms: N_2  and  C_3
REMARK    3  A    between atoms: N_2  and  C_15
REMARK    4  A    between atoms: C_3  and  C_4
REMARK    5  A    between atoms: C_7  and  C_8
REMARK                            x       y       z     vdW  Elec       q    Type
REMARK                         _______ _______ _______ _____ _____    ______ ____
ROOT
ATOM      1  C   UNL     1       4.016   4.690  17.816  0.00  0.00    +0.000 A 
ATOM      2  C   UNL     1       3.575   4.319  19.067  0.00  0.00    +0.000 A 
ATOM      3  O   UNL     1       2.912   5.370  19.615  0.00  0.00    +0.000 OA
ATOM      4  C   UNL     1       2.960   6.348  18.654  0.00  0.00    +0.000 A 
ATOM      5  N   UNL     1       3.624   5.994  17.567  0.00  0.00    +0.000 NA
ENDROOT
BRANCH   4   6
ATOM      6  C   UNL     1       2.228   7.581  18.942  0.00  0.00    +0.000 A 
ATOM      7  C   UNL     1       1.752   7.864  20.231  0.00  0.00    +0.000 A 
ATOM      8  C   UNL     1       0.997   9.014  20.481  0.00  0.00    +0.000 A 
ATOM      9  C   UNL     1       0.713   9.899  19.444  0.00  0.00    +0.000 A 
ATOM     10  C   UNL     1       1.196   9.645  18.162  0.00  0.00    +0.000 A 
ATOM     11  C   UNL     1       1.950   8.494  17.913  0.00  0.00    +0.000 A 
ENDBRANCH   4   6
BRANCH   1  12
ATOM     12  C   UNL     1       4.741   3.867  16.793  0.00  0.00    +0.000 C 
BRANCH  12  14
ATOM     13  C   UNL     1       6.435   4.091  14.923  0.00  0.00    +0.000 C 
ATOM     14  N   UNL     1       6.081   4.270  16.322  0.00  0.00    +0.000 N 
BRANCH  14  15
ATOM     15  C   UNL     1       6.780   5.194  17.102  0.00  0.00    +0.000 A 
ATOM     16  C   UNL     1       7.355   4.858  18.338  0.00  0.00    +0.000 A 
ATOM     17  C   UNL     1       8.049   5.801  19.108  0.00  0.00    +0.000 A 
ATOM     18  C   UNL     1       8.170   7.113  18.665  0.00  0.00    +0.000 A 
ATOM     19  C   UNL     1       7.599   7.479  17.453  0.00  0.00    +0.000 A 
ATOM     20  C   UNL     1       6.917   6.529  16.684  0.00  0.00    +0.000 A 
ENDBRANCH  14  15
ENDBRANCH  12  14
ENDBRANCH   1  12
TORSDOF 4
ENDMDL
MODEL 8
REMARK VINA RESULT:      -7.4      1.292      1.824
REMARK  Name = 
REMARK  5 active torsions:
REMARK  status: ('A' for Active; 'I' for Inactive)
REMARK    1  A    between atoms: C_1  and  N_2
REMARK    2  A    between atoms: N_2  and  C_3
REMARK    3  A    between atoms: N_2  and  C_15
REMARK    4  A    between atoms: C_3  and  C_4
REMARK    5  A    between atoms: C_7  and  C_8
REMARK                            x       y       z     vdW  Elec       q    Type
REMARK                         _______ _______ _______ _____ _____    ______ ____
ROOT
ATOM      1  C   UNL     1       5.219   5.761  17.653  0.00  0.00    +0.000 A 
ATOM      2  C   UNL     1       4.987   6.900  16.913  0.00  0.00    +0.000 A 
ATOM      3  O   UNL     1       5.400   6.673  15.640  0.00  0.00    +0.000 OA
ATOM      4  C   UNL     1       5.856   5.380  15.649  0.00  0.00    +0.000 A 
ATOM      5  N   UNL     1       5.784   4.798  16.834  0.00  0.00    +0.000 NA
ENDROOT
BRANCH   4   6
ATOM      6  C   UNL     1       6.280   4.828  14.362  0.00  0.00    +0.000 A 
ATOM      7  C   UNL     1       7.435   5.292  13.713  0.00  0.00    +0.000 A 
ATOM      8  C   UNL     1       7.794   4.805  12.453  0.00  0.00    +0.000 A 
ATOM      9  C   UNL     1       7.006   3.842  11.828  0.00  0.00    +0.000 A 
ATOM     10  C   UNL     1       5.868   3.355  12.467  0.00  0.00    +0.000 A 
ATOM     11  C   UNL     1       5.508   3.843  13.727  0.00  0.00    +0.000 A 
ENDBRANCH   4   6
BRANCH   1  12
ATOM     12  C   UNL     1       4.883   5.489  19.088  0.00  0.00    +0.000 C 
BRANCH  12  14
ATOM     13  C   UNL     1       2.687   6.603  19.682  0.00  0.00    +0.000 C 
ATOM     14  N   UNL     1       3.475   5.391  19.521  0.00  0.00    +0.000 N 
BRANCH  14  15
ATOM     15  C   UNL     1       2.831   4.167  19.328  0.00  0.00    +0.000 A 
ATOM     16  C   UNL     1       3.523   2.998  18.970  0.00  0.00    +0.000 A 
ATOM     17  C   UNL     1       2.859   1.780  18.777  0.00  0.00    +0.000 A 
ATOM     18  C   UNL     1       1.479   1.705  18.923  0.00  0.00    +0.000 A 
ATOM     19  C   UNL     1       0.766   2.847  19.263  0.00  0.00    +0.000 A 
ATOM     20  C   UNL     1       1.437   4.058  19.465  0.00  0.00    +0.000 A 
ENDBRANCH  14  15
ENDBRANCH  12  14
ENDBRANCH   1  12
TORSDOF 4
ENDMDL
MODEL 9
REMARK VINA RESULT:      -7.3      1.601      7.030
REMARK  Name = 
REMARK  5 active torsions:
REMARK  status: ('A' for Active; 'I' for Inactive)
REMARK    1  A    between atoms: C_1  and  N_2
REMARK    2  A    between atoms: N_2  and  C_3
REMARK    3  A    between atoms: N_2  and  C_15
REMARK    4  A    between atoms: C_3  and  C_4
REMARK    5  A    between atoms: C_7  and  C_8
REMARK                            x       y       z     vdW  Elec       q    Type
REMARK                         _______ _______ _______ _____ _____    ______ ____
ROOT
ATOM      1  C   UNL     1       4.631   6.428  16.994  0.00  0.00    +0.000 A 
ATOM      2  C   UNL     1       3.774   7.395  17.473  0.00  0.00    +0.000 A 
ATOM      3  O   UNL     1       2.848   6.792  18.262  0.00  0.00    +0.000 OA
ATOM      4  C   UNL     1       3.194   5.464  18.249  0.00  0.00    +0.000 A 
ATOM      5  N   UNL     1       4.243   5.195  17.491  0.00  0.00    +0.000 NA
ENDROOT
BRANCH   4   6
ATOM      6  C   UNL     1       2.411   4.577  19.108  0.00  0.00    +0.000 A 
ATOM      7  C   UNL     1       2.555   4.597  20.504  0.00  0.00    +0.000 A 
ATOM      8  C   UNL     1       1.850   3.700  21.311  0.00  0.00    +0.000 A 
ATOM      9  C   UNL     1       0.987   2.774  20.733  0.00  0.00    +0.000 A 
ATOM     10  C   UNL     1       0.815   2.753  19.351  0.00  0.00    +0.000 A 
ATOM     11  C   UNL     1       1.521   3.651  18.543  0.00  0.00    +0.000 A 
ENDBRANCH   4   6
BRANCH   1  12
ATOM     12  C   UNL     1       5.849   6.594  16.137  0.00  0.00    +0.000 C 
BRANCH  12  14
ATOM     13  C   UNL     1       7.275   4.679  16.983  0.00  0.00    +0.000 C 
ATOM     14  N   UNL     1       6.738   5.446  15.870  0.00  0.00    +0.000 N 
BRANCH  14  15
ATOM     15  C   UNL     1       6.675   4.872  14.599  0.00  0.00    +0.000 A 
ATOM     16  C   UNL     1       7.620   5.148  13.597  0.00  0.00    +0.000 A 
ATOM     17  C   UNL     1       7.537   4.565  12.326  0.00  0.00    +0.000 A 
ATOM     18  C   UNL     1       6.492   3.700  12.020  0.00  0.00    +0.000 A 
ATOM     19  C   UNL     1       5.534   3.420  12.986  0.00  0.00    +0.000 A 
ATOM     20  C   UNL     1       5.630   3.997  14.257  0.00  0.00    +0.000 A 
ENDBRANCH  14  15
ENDBRANCH  12  14
ENDBRANCH   1  12
TORSDOF 4
ENDMDL
