MODEL 1
REMARK VINA RESULT:      -7.8      0.000      0.000
REMARK  Name = 
REMARK  7 active torsions:
REMARK  status: ('A' for Active; 'I' for Inactive)
REMARK    1  A    between atoms: C_2  and  C_3
REMARK    2  A    between atoms: C_3  and  N_4
REMARK    3  A    between atoms: C_6  and  C_7
REMARK    4  A    between atoms: C_7  and  C_8
REMARK    5  A    between atoms: N_10  and  C_11
REMARK    6  A    between atoms: C_11  and  C_12
REMARK    7  A    between atoms: C_26  and  N_27
REMARK                            x       y       z     vdW  Elec       q    Type
REMARK                         _______ _______ _______ _____ _____    ______ ____
ROOT
ATOM      1  C   UNL     1      -1.646  12.325  20.794  0.00  0.00    +0.000 C 
ATOM      2  C   UNL     1      -1.966  12.621  22.345  0.00  0.00    +0.000 C 
ATOM      3  O   UNL     1      -2.222  13.656  22.939  0.00  0.00    +0.000 OA
ATOM      4  N   UNL     1      -1.680  11.494  23.087  0.00  0.00    +0.000 N 
ATOM      5  C   UNL     1      -0.683  10.831  22.386  0.00  0.00    +0.000 A 
ATOM      6  C   UNL     1       0.230  10.031  23.048  0.00  0.00    +0.000 A 
ATOM      7  C   UNL     1       1.030   9.218  22.280  0.00  0.00    +0.000 A 
ATOM      8  C   UNL     1       0.778   9.153  20.893  0.00  0.00    +0.000 A 
ATOM      9  C   UNL     1      -0.114  10.072  20.244  0.00  0.00    +0.000 A 
ATOM     10  C   UNL     1      -0.757  11.058  21.000  0.00  0.00    +0.000 A 
ATOM     11  H   UNL     1      -2.519  10.915  23.061  0.00  0.00    +0.000 HD
ENDROOT
BRANCH   1  14
ATOM     12  N   UNL     1      -0.314  15.664  19.693  0.00  0.00    +0.000 N 
ATOM     13  C   UNL     1      -1.292  14.926  20.332  0.00  0.00    +0.000 A 
ATOM     14  C   UNL     1      -0.940  13.584  20.285  0.00  0.00    +0.000 A 
ATOM     15  C   UNL     1       0.386  13.564  19.648  0.00  0.00    +0.000 A 
ATOM     16  C   UNL     1       1.327  12.542  19.332  0.00  0.00    +0.000 A 
ATOM     17  C   UNL     1       2.461  12.809  18.558  0.00  0.00    +0.000 A 
ATOM     18  C   UNL     1       2.730  14.105  18.152  0.00  0.00    +0.000 A 
ATOM     19  C   UNL     1       1.873  15.148  18.507  0.00  0.00    +0.000 A 
ATOM     20  C   UNL     1       0.703  14.851  19.241  0.00  0.00    +0.000 A 
BRANCH  12  21
ATOM     21  C   UNL     1      -0.352  17.106  19.491  0.00  0.00    +0.000 C 
BRANCH  21  23
ATOM     22  C   UNL     1      -0.318  18.095  17.184  0.00  0.00    +0.000 C 
ATOM     23  C   UNL     1      -0.965  17.462  18.170  0.00  0.00    +0.000 C 
ENDBRANCH  21  23
ENDBRANCH  12  21
ENDBRANCH   1  14
BRANCH   1  24
ATOM     24  C   UNL     1      -2.869  12.019  19.923  0.00  0.00    +0.000 A 
ATOM     25  C   UNL     1      -4.191  12.360  20.155  0.00  0.00    +0.000 A 
ATOM     26  N   UNL     1      -4.934  12.190  19.021  0.00  0.00    +0.000 N 
ATOM     27  C   UNL     1      -4.159  11.657  18.022  0.00  0.00    +0.000 A 
ATOM     28  C   UNL     1      -4.455  11.298  16.684  0.00  0.00    +0.000 A 
ATOM     29  C   UNL     1      -3.417  10.872  15.862  0.00  0.00    +0.000 A 
ATOM     30  C   UNL     1      -2.116  10.819  16.324  0.00  0.00    +0.000 A 
ATOM     31  C   UNL     1      -1.811  11.188  17.642  0.00  0.00    +0.000 A 
ATOM     32  C   UNL     1      -2.844  11.578  18.536  0.00  0.00    +0.000 A 
BRANCH  26  33
ATOM     33  C   UNL     1      -6.351  12.550  18.858  0.00  0.00    +0.000 C 
BRANCH  33  34
ATOM     34  C   UNL     1      -7.280  11.699  19.679  0.00  0.00    +0.000 C 
ATOM     35  C   UNL     1      -7.170  10.369  19.827  0.00  0.00    +0.000 C 
ENDBRANCH  33  34
ENDBRANCH  26  33
ENDBRANCH   1  24
BRANCH   8  36
ATOM     36  N   UNL     1       1.365   7.997  20.189  0.00  0.00    +0.000 N 
ATOM     37  O   UNL     1       1.363   6.909  20.772  0.00  0.00    +0.000 OA
ATOM     38  O   UNL     1       1.791   8.187  19.053  0.00  0.00    +0.000 OA
ENDBRANCH   8  36
TORSDOF 7
ENDMDL
MODEL 2
REMARK VINA RESULT:      -7.4      1.094      2.607
REMARK  Name = 
REMARK  7 active torsions:
REMARK  status: ('A' for Active; 'I' for Inactive)
REMARK    1  A    between atoms: C_2  and  C_3
REMARK    2  A    between atoms: C_3  and  N_4
REMARK    3  A    between atoms: C_6  and  C_7
REMARK    4  A    between atoms: C_7  and  C_8
REMARK    5  A    between atoms: N_10  and  C_11
REMARK    6  A    between atoms: C_11  and  C_12
REMARK    7  A    between atoms: C_26  and  N_27
REMARK                            x       y       z     vdW  Elec       q    Type
REMARK                         _______ _______ _______ _____ _____    ______ ____
ROOT
ATOM      1  C   UNL     1      -1.498  12.561  20.633  0.00  0.00    +0.000 C 
ATOM      2  C   UNL     1      -1.848  12.577  22.205  0.00  0.00    +0.000 C 
ATOM      3  O   UNL     1      -2.135  13.486  22.966  0.00  0.00    +0.000 OA
ATOM      4  N   UNL     1      -1.548  11.342  22.744  0.00  0.00    +0.000 N 
ATOM      5  C   UNL     1      -0.526  10.831  21.958  0.00  0.00    +0.000 A 
ATOM      6  C   UNL     1       0.394   9.945  22.487  0.00  0.00    +0.000 A 
ATOM      7  C   UNL     1       1.223   9.294  21.604  0.00  0.00    +0.000 A 
ATOM      8  C   UNL     1       0.993   9.468  20.222  0.00  0.00    +0.000 A 
ATOM      9  C   UNL     1       0.092  10.469  19.727  0.00  0.00    +0.000 A 
ATOM     10  C   UNL     1      -0.585  11.295  20.632  0.00  0.00    +0.000 A 
ATOM     11  H   UNL     1      -2.373  10.761  22.603  0.00  0.00    +0.000 HD
ENDROOT
BRANCH   1  14
ATOM     12  N   UNL     1      -0.260  16.022  19.835  0.00  0.00    +0.000 N 
ATOM     13  C   UNL     1      -1.314  15.136  19.970  0.00  0.00    +0.000 A 
ATOM     14  C   UNL     1      -0.812  13.904  20.364  0.00  0.00    +0.000 A 
ATOM     15  C   UNL     1       0.629  14.126  20.556  0.00  0.00    +0.000 A 
ATOM     16  C   UNL     1       1.717  13.313  20.988  0.00  0.00    +0.000 A 
ATOM     17  C   UNL     1       3.039  13.764  20.912  0.00  0.00    +0.000 A 
ATOM     18  C   UNL     1       3.305  15.054  20.487  0.00  0.00    +0.000 A 
ATOM     19  C   UNL     1       2.261  15.908  20.128  0.00  0.00    +0.000 A 
ATOM     20  C   UNL     1       0.936  15.418  20.158  0.00  0.00    +0.000 A 
BRANCH  12  21
ATOM     21  C   UNL     1      -0.379  17.402  19.387  0.00  0.00    +0.000 C 
BRANCH  21  23
ATOM     22  C   UNL     1       0.514  18.134  17.158  0.00  0.00    +0.000 C 
ATOM     23  C   UNL     1      -0.406  17.495  17.891  0.00  0.00    +0.000 C 
ENDBRANCH  21  23
ENDBRANCH  12  21
ENDBRANCH   1  14
BRANCH   1  24
ATOM     24  C   UNL     1      -2.701  12.390  19.700  0.00  0.00    +0.000 A 
ATOM     25  C   UNL     1      -2.715  11.908  18.401  0.00  0.00    +0.000 A 
ATOM     26  N   UNL     1      -3.992  11.616  18.013  0.00  0.00    +0.000 N 
ATOM     27  C   UNL     1      -4.878  11.966  19.000  0.00  0.00    +0.000 A 
ATOM     28  C   UNL     1      -6.289  11.871  19.082  0.00  0.00    +0.000 A 
ATOM     29  C   UNL     1      -6.914  12.216  20.276  0.00  0.00    +0.000 A 
ATOM     30  C   UNL     1      -6.180  12.622  21.374  0.00  0.00    +0.000 A 
ATOM     31  C   UNL     1      -4.781  12.703  21.308  0.00  0.00    +0.000 A 
ATOM     32  C   UNL     1      -4.102  12.414  20.094  0.00  0.00    +0.000 A 
BRANCH  26  33
ATOM     33  C   UNL     1      -4.383  10.987  16.742  0.00  0.00    +0.000 C 
BRANCH  33  34
ATOM     34  C   UNL     1      -3.227  10.374  16.001  0.00  0.00    +0.000 C 
ATOM     35  C   UNL     1      -3.185  10.182  14.673  0.00  0.00    +0.000 C 
ENDBRANCH  33  34
ENDBRANCH  26  33
ENDBRANCH   1  24
BRANCH   8  36
ATOM     36  N   UNL     1       1.616   8.463  19.339  0.00  0.00    +0.000 N 
ATOM     37  O   UNL     1       1.635   8.698  18.128  0.00  0.00    +0.000 OA
ATOM     38  O   UNL     1       2.106   7.472  19.873  0.00  0.00    +0.000 OA
ENDBRANCH   8  36
TORSDOF 7
ENDMDL
MODEL 3
REMARK VINA RESULT:      -7.3      2.443      4.246
REMARK  Name = 
REMARK  7 active torsions:
REMARK  status: ('A' for Active; 'I' for Inactive)
REMARK    1  A    between atoms: C_2  and  C_3
REMARK    2  A    between atoms: C_3  and  N_4
REMARK    3  A    between atoms: C_6  and  C_7
REMARK    4  A    between atoms: C_7  and  C_8
REMARK    5  A    between atoms: N_10  and  C_11
REMARK    6  A    between atoms: C_11  and  C_12
REMARK    7  A    between atoms: C_26  and  N_27
REMARK                            x       y       z     vdW  Elec       q    Type
REMARK                         _______ _______ _______ _____ _____    ______ ____
ROOT
ATOM      1  C   UNL     1      -1.276  13.073  20.237  0.00  0.00    +0.000 C 
ATOM      2  C   UNL     1      -0.242  12.150  21.058  0.00  0.00    +0.000 C 
ATOM      3  O   UNL     1       0.699  12.429  21.783  0.00  0.00    +0.000 OA
ATOM      4  N   UNL     1      -0.390  10.839  20.653  0.00  0.00    +0.000 N 
ATOM      5  C   UNL     1      -0.843  10.904  19.344  0.00  0.00    +0.000 A 
ATOM      6  C   UNL     1      -0.563   9.885  18.452  0.00  0.00    +0.000 A 
ATOM      7  C   UNL     1      -1.239   9.892  17.254  0.00  0.00    +0.000 A 
ATOM      8  C   UNL     1      -2.261  10.849  17.072  0.00  0.00    +0.000 A 
ATOM      9  C   UNL     1      -2.446  11.940  17.985  0.00  0.00    +0.000 A 
ATOM     10  C   UNL     1      -1.598  12.063  19.092  0.00  0.00    +0.000 A 
ATOM     11  H   UNL     1      -1.139  10.447  21.225  0.00  0.00    +0.000 HD
ENDROOT
BRANCH   1  14
ATOM     12  N   UNL     1       0.300  16.395  19.451  0.00  0.00    +0.000 N 
ATOM     13  C   UNL     1      -0.739  15.674  20.008  0.00  0.00    +0.000 A 
ATOM     14  C   UNL     1      -0.477  14.320  19.850  0.00  0.00    +0.000 A 
ATOM     15  C   UNL     1       0.859  14.263  19.236  0.00  0.00    +0.000 A 
ATOM     16  C   UNL     1       1.736  13.210  18.848  0.00  0.00    +0.000 A 
ATOM     17  C   UNL     1       2.902  13.464  18.119  0.00  0.00    +0.000 A 
ATOM     18  C   UNL     1       3.267  14.769  17.831  0.00  0.00    +0.000 A 
ATOM     19  C   UNL     1       2.473  15.834  18.260  0.00  0.00    +0.000 A 
ATOM     20  C   UNL     1       1.270  15.556  18.947  0.00  0.00    +0.000 A 
BRANCH  12  21
ATOM     21  C   UNL     1       0.363  17.848  19.374  0.00  0.00    +0.000 C 
BRANCH  21  23
ATOM     22  C   UNL     1      -0.186  18.232  16.955  0.00  0.00    +0.000 C 
ATOM     23  C   UNL     1      -0.479  18.378  18.253  0.00  0.00    +0.000 C 
ENDBRANCH  21  23
ENDBRANCH  12  21
ENDBRANCH   1  14
BRANCH   1  24
ATOM     24  C   UNL     1      -2.540  13.477  21.004  0.00  0.00    +0.000 A 
ATOM     25  C   UNL     1      -3.859  13.189  20.693  0.00  0.00    +0.000 A 
ATOM     26  N   UNL     1      -4.669  13.448  21.762  0.00  0.00    +0.000 N 
ATOM     27  C   UNL     1      -3.940  13.989  22.790  0.00  0.00    +0.000 A 
ATOM     28  C   UNL     1      -4.309  14.424  24.087  0.00  0.00    +0.000 A 
ATOM     29  C   UNL     1      -3.311  14.838  24.963  0.00  0.00    +0.000 A 
ATOM     30  C   UNL     1      -1.980  14.806  24.593  0.00  0.00    +0.000 A 
ATOM     31  C   UNL     1      -1.602  14.362  23.318  0.00  0.00    +0.000 A 
ATOM     32  C   UNL     1      -2.590  13.981  22.369  0.00  0.00    +0.000 A 
BRANCH  26  33
ATOM     33  C   UNL     1      -6.111  13.164  21.838  0.00  0.00    +0.000 C 
BRANCH  33  34
ATOM     34  C   UNL     1      -6.536  12.006  20.977  0.00  0.00    +0.000 C 
ATOM     35  C   UNL     1      -7.408  12.088  19.960  0.00  0.00    +0.000 C 
ENDBRANCH  33  34
ENDBRANCH  26  33
ENDBRANCH   1  24
BRANCH   8  36
ATOM     36  N   UNL     1      -3.210  10.569  15.977  0.00  0.00    +0.000 N 
ATOM     37  O   UNL     1      -4.383  10.918  16.132  0.00  0.00    +0.000 OA
ATOM     38  O   UNL     1      -2.762  10.034  14.966  0.00  0.00    +0.000 OA
ENDBRANCH   8  36
TORSDOF 7
ENDMDL
MODEL 4
REMARK VINA RESULT:      -7.3      1.749      3.023
REMARK  Name = 
REMARK  7 active torsions:
REMARK  status: ('A' for Active; 'I' for Inactive)
REMARK    1  A    between atoms: C_2  and  C_3
REMARK    2  A    between atoms: C_3  and  N_4
REMARK    3  A    between atoms: C_6  and  C_7
REMARK    4  A    between atoms: C_7  and  C_8
REMARK    5  A    between atoms: N_10  and  C_11
REMARK    6  A    between atoms: C_11  and  C_12
REMARK    7  A    between atoms: C_26  and  N_27
REMARK                            x       y       z     vdW  Elec       q    Type
REMARK                         _______ _______ _______ _____ _____    ______ ____
ROOT
ATOM      1  C   UNL     1      -0.627  11.689  20.858  0.00  0.00    +0.000 C 
ATOM      2  C   UNL     1      -0.965  11.211  22.359  0.00  0.00    +0.000 C 
ATOM      3  O   UNL     1      -1.172  11.838  23.385  0.00  0.00    +0.000 OA
ATOM      4  N   UNL     1      -0.763   9.849  22.453  0.00  0.00    +0.000 N 
ATOM      5  C   UNL     1       0.209   9.551  21.509  0.00  0.00    +0.000 A 
ATOM      6  C   UNL     1       1.057   8.474  21.688  0.00  0.00    +0.000 A 
ATOM      7  C   UNL     1       1.825   8.091  20.613  0.00  0.00    +0.000 A 
ATOM      8  C   UNL     1       1.600   8.727  19.374  0.00  0.00    +0.000 A 
ATOM      9  C   UNL     1       0.780   9.900  19.264  0.00  0.00    +0.000 A 
ATOM     10  C   UNL     1       0.179  10.429  20.411  0.00  0.00    +0.000 A 
ATOM     11  H   UNL     1      -1.634   9.410  22.156  0.00  0.00    +0.000 HD
ENDROOT
BRANCH   1  14
ATOM     12  N   UNL     1       1.063  14.945  21.681  0.00  0.00    +0.000 N 
ATOM     13  C   UNL     1       0.202  13.927  22.045  0.00  0.00    +0.000 A 
ATOM     14  C   UNL     1       0.163  12.990  21.022  0.00  0.00    +0.000 A 
ATOM     15  C   UNL     1       1.148  13.464  20.037  0.00  0.00    +0.000 A 
ATOM     16  C   UNL     1       1.635  12.969  18.793  0.00  0.00    +0.000 A 
ATOM     17  C   UNL     1       2.473  13.739  17.980  0.00  0.00    +0.000 A 
ATOM     18  C   UNL     1       2.912  14.977  18.418  0.00  0.00    +0.000 A 
ATOM     19  C   UNL     1       2.519  15.465  19.664  0.00  0.00    +0.000 A 
ATOM     20  C   UNL     1       1.627  14.698  20.448  0.00  0.00    +0.000 A 
BRANCH  12  21
ATOM     21  C   UNL     1       1.329  16.139  22.472  0.00  0.00    +0.000 C 
BRANCH  21  23
ATOM     22  C   UNL     1       0.408  18.166  21.314  0.00  0.00    +0.000 C 
ATOM     23  C   UNL     1       0.297  17.199  22.233  0.00  0.00    +0.000 C 
ENDBRANCH  21  23
ENDBRANCH  12  21
ENDBRANCH   1  14
BRANCH   1  24
ATOM     24  C   UNL     1      -1.846  11.925  19.960  0.00  0.00    +0.000 A 
ATOM     25  C   UNL     1      -2.112  11.377  18.716  0.00  0.00    +0.000 A 
ATOM     26  N   UNL     1      -3.419  11.580  18.374  0.00  0.00    +0.000 N 
ATOM     27  C   UNL     1      -4.048  12.334  19.331  0.00  0.00    +0.000 A 
ATOM     28  C   UNL     1      -5.378  12.811  19.439  0.00  0.00    +0.000 A 
ATOM     29  C   UNL     1      -5.758  13.475  20.600  0.00  0.00    +0.000 A 
ATOM     30  C   UNL     1      -4.870  13.652  21.644  0.00  0.00    +0.000 A 
ATOM     31  C   UNL     1      -3.556  13.170  21.554  0.00  0.00    +0.000 A 
ATOM     32  C   UNL     1      -3.105  12.533  20.366  0.00  0.00    +0.000 A 
BRANCH  26  33
ATOM     33  C   UNL     1      -4.087  11.048  17.176  0.00  0.00    +0.000 C 
BRANCH  33  34
ATOM     34  C   UNL     1      -3.212  10.138  16.360  0.00  0.00    +0.000 C 
ATOM     35  C   UNL     1      -2.895  10.334  15.070  0.00  0.00    +0.000 C 
ENDBRANCH  33  34
ENDBRANCH  26  33
ENDBRANCH   1  24
BRANCH   8  36
ATOM     36  N   UNL     1       2.134   8.026  18.190  0.00  0.00    +0.000 N 
ATOM     37  O   UNL     1       2.383   8.701  17.188  0.00  0.00    +0.000 OA
ATOM     38  O   UNL     1       2.326   6.817  18.291  0.00  0.00    +0.000 OA
ENDBRANCH   8  36
TORSDOF 7
ENDMDL
MODEL 5
REMARK VINA RESULT:      -7.3      1.245      3.337
REMARK  Name = 
REMARK  7 active torsions:
REMARK  status: ('A' for Active; 'I' for Inactive)
REMARK    1  A    between atoms: C_2  and  C_3
REMARK    2  A    between atoms: C_3  and  N_4
REMARK    3  A    between atoms: C_6  and  C_7
REMARK    4  A    between atoms: C_7  and  C_8
REMARK    5  A    between atoms: N_10  and  C_11
REMARK    6  A    between atoms: C_11  and  C_12
REMARK    7  A    between atoms: C_26  and  N_27
REMARK                            x       y       z     vdW  Elec       q    Type
REMARK                         _______ _______ _______ _____ _____    ______ ____
ROOT
ATOM      1  C   UNL     1      -1.124  12.410  20.946  0.00  0.00    +0.000 C 
ATOM      2  C   UNL     1      -1.516  12.483  22.506  0.00  0.00    +0.000 C 
ATOM      3  O   UNL     1      -1.738  13.428  23.245  0.00  0.00    +0.000 OA
ATOM      4  N   UNL     1      -1.350  11.235  23.071  0.00  0.00    +0.000 N 
ATOM      5  C   UNL     1      -0.359  10.618  22.322  0.00  0.00    +0.000 A 
ATOM      6  C   UNL     1       0.456   9.657  22.891  0.00  0.00    +0.000 A 
ATOM      7  C   UNL     1       1.246   8.917  22.042  0.00  0.00    +0.000 A 
ATOM      8  C   UNL     1       1.073   9.089  20.652  0.00  0.00    +0.000 A 
ATOM      9  C   UNL     1       0.285  10.163  20.116  0.00  0.00    +0.000 A 
ATOM     10  C   UNL     1      -0.336  11.063  20.989  0.00  0.00    +0.000 A 
ATOM     11  H   UNL     1      -2.223  10.732  22.912  0.00  0.00    +0.000 HD
ENDROOT
BRANCH   1  14
ATOM     12  N   UNL     1       1.279  15.228  20.294  0.00  0.00    +0.000 N 
ATOM     13  C   UNL     1       1.046  13.873  20.441  0.00  0.00    +0.000 A 
ATOM     14  C   UNL     1      -0.307  13.677  20.679  0.00  0.00    +0.000 A 
ATOM     15  C   UNL     1      -0.908  15.015  20.570  0.00  0.00    +0.000 A 
ATOM     16  C   UNL     1      -2.236  15.525  20.658  0.00  0.00    +0.000 A 
ATOM     17  C   UNL     1      -2.489  16.900  20.676  0.00  0.00    +0.000 A 
ATOM     18  C   UNL     1      -1.445  17.797  20.525  0.00  0.00    +0.000 A 
ATOM     19  C   UNL     1      -0.138  17.336  20.359  0.00  0.00    +0.000 A 
ATOM     20  C   UNL     1       0.107  15.945  20.399  0.00  0.00    +0.000 A 
BRANCH  12  21
ATOM     21  C   UNL     1       2.586  15.834  20.082  0.00  0.00    +0.000 C 
BRANCH  21  23
ATOM     22  C   UNL     1       3.556  15.233  17.847  0.00  0.00    +0.000 C 
ATOM     23  C   UNL     1       2.856  16.066  18.626  0.00  0.00    +0.000 C 
ENDBRANCH  21  23
ENDBRANCH  12  21
ENDBRANCH   1  14
BRANCH   1  24
ATOM     24  C   UNL     1      -2.311  12.337  19.978  0.00  0.00    +0.000 A 
ATOM     25  C   UNL     1      -2.319  11.897  18.665  0.00  0.00    +0.000 A 
ATOM     26  N   UNL     1      -3.600  11.692  18.238  0.00  0.00    +0.000 N 
ATOM     27  C   UNL     1      -4.490  12.062  19.213  0.00  0.00    +0.000 A 
ATOM     28  C   UNL     1      -5.906  12.047  19.259  0.00  0.00    +0.000 A 
ATOM     29  C   UNL     1      -6.540  12.391  20.448  0.00  0.00    +0.000 A 
ATOM     30  C   UNL     1      -5.813  12.719  21.576  0.00  0.00    +0.000 A 
ATOM     31  C   UNL     1      -4.411  12.721  21.546  0.00  0.00    +0.000 A 
ATOM     32  C   UNL     1      -3.718  12.430  20.339  0.00  0.00    +0.000 A 
BRANCH  26  33
ATOM     33  C   UNL     1      -3.994  11.126  16.938  0.00  0.00    +0.000 C 
BRANCH  33  34
ATOM     34  C   UNL     1      -2.943  10.237  16.333  0.00  0.00    +0.000 C 
ATOM     35  C   UNL     1      -2.799  10.007  15.018  0.00  0.00    +0.000 C 
ENDBRANCH  33  34
ENDBRANCH  26  33
ENDBRANCH   1  24
BRANCH   8  36
ATOM     36  N   UNL     1       1.623   8.016  19.801  0.00  0.00    +0.000 N 
ATOM     37  O   UNL     1       1.906   8.298  18.634  0.00  0.00    +0.000 OA
ATOM     38  O   UNL     1       1.794   6.917  20.322  0.00  0.00    +0.000 OA
ENDBRANCH   8  36
TORSDOF 7
ENDMDL
MODEL 6
REMARK VINA RESULT:      -7.2      1.473      3.436
REMARK  Name = 
REMARK  7 active torsions:
REMARK  status: ('A' for Active; 'I' for Inactive)
REMARK    1  A    between atoms: C_2  and  C_3
REMARK    2  A    between atoms: C_3  and  N_4
REMARK    3  A    between atoms: C_6  and  C_7
REMARK    4  A    between atoms: C_7  and  C_8
REMARK    5  A    between atoms: N_10  and  C_11
REMARK    6  A    between atoms: C_11  and  C_12
REMARK    7  A    between atoms: C_26  and  N_27
REMARK                            x       y       z     vdW  Elec       q    Type
REMARK                         _______ _______ _______ _____ _____    ______ ____
ROOT
ATOM      1  C   UNL     1      -0.189  11.952  20.143  0.00  0.00    +0.000 C 
ATOM      2  C   UNL     1      -0.494  12.452  21.644  0.00  0.00    +0.000 C 
ATOM      3  O   UNL     1      -0.540  13.567  22.135  0.00  0.00    +0.000 OA
ATOM      4  N   UNL     1      -0.487  11.363  22.491  0.00  0.00    +0.000 N 
ATOM      5  C   UNL     1       0.367  10.441  21.904  0.00  0.00    +0.000 A 
ATOM      6  C   UNL     1       1.059   9.529  22.680  0.00  0.00    +0.000 A 
ATOM      7  C   UNL     1       1.691   8.497  22.027  0.00  0.00    +0.000 A 
ATOM      8  C   UNL     1       1.482   8.359  20.638  0.00  0.00    +0.000 A 
ATOM      9  C   UNL     1       0.836   9.383  19.867  0.00  0.00    +0.000 A 
ATOM     10  C   UNL     1       0.395  10.549  20.502  0.00  0.00    +0.000 A 
ATOM     11  H   UNL     1      -1.430  10.976  22.466  0.00  0.00    +0.000 HD
ENDROOT
BRANCH   1  14
ATOM     12  N   UNL     1       2.562  14.120  18.776  0.00  0.00    +0.000 N 
ATOM     13  C   UNL     1       2.128  12.882  19.211  0.00  0.00    +0.000 A 
ATOM     14  C   UNL     1       0.792  12.979  19.572  0.00  0.00    +0.000 A 
ATOM     15  C   UNL     1       0.408  14.357  19.231  0.00  0.00    +0.000 A 
ATOM     16  C   UNL     1      -0.805  15.103  19.299  0.00  0.00    +0.000 A 
ATOM     17  C   UNL     1      -0.829  16.479  19.053  0.00  0.00    +0.000 A 
ATOM     18  C   UNL     1       0.327  17.130  18.655  0.00  0.00    +0.000 A 
ATOM     19  C   UNL     1       1.519  16.421  18.502  0.00  0.00    +0.000 A 
ATOM     20  C   UNL     1       1.538  15.042  18.809  0.00  0.00    +0.000 A 
BRANCH  12  21
ATOM     21  C   UNL     1       3.922  14.433  18.361  0.00  0.00    +0.000 C 
BRANCH  21  23
ATOM     22  C   UNL     1       6.037  15.263  19.428  0.00  0.00    +0.000 C 
ATOM     23  C   UNL     1       4.725  15.007  19.489  0.00  0.00    +0.000 C 
ENDBRANCH  21  23
ENDBRANCH  12  21
ENDBRANCH   1  14
BRANCH   1  24
ATOM     24  C   UNL     1      -1.416  11.835  19.233  0.00  0.00    +0.000 A 
ATOM     25  C   UNL     1      -1.548  11.104  18.064  0.00  0.00    +0.000 A 
ATOM     26  N   UNL     1      -2.864  11.002  17.711  0.00  0.00    +0.000 N 
ATOM     27  C   UNL     1      -3.645  11.723  18.578  0.00  0.00    +0.000 A 
ATOM     28  C   UNL     1      -5.045  11.935  18.639  0.00  0.00    +0.000 A 
ATOM     29  C   UNL     1      -5.567  12.642  19.717  0.00  0.00    +0.000 A 
ATOM     30  C   UNL     1      -4.748  13.112  20.726  0.00  0.00    +0.000 A 
ATOM     31  C   UNL     1      -3.364  12.893  20.683  0.00  0.00    +0.000 A 
ATOM     32  C   UNL     1      -2.777  12.224  19.575  0.00  0.00    +0.000 A 
BRANCH  26  33
ATOM     33  C   UNL     1      -3.395  10.213  16.588  0.00  0.00    +0.000 C 
BRANCH  33  34
ATOM     34  C   UNL     1      -2.787  10.577  15.263  0.00  0.00    +0.000 C 
ATOM     35  C   UNL     1      -3.226  10.139  14.072  0.00  0.00    +0.000 C 
ENDBRANCH  33  34
ENDBRANCH  26  33
ENDBRANCH   1  24
BRANCH   8  36
ATOM     36  N   UNL     1       1.830   7.044  20.066  0.00  0.00    +0.000 N 
ATOM     37  O   UNL     1       1.532   6.039  20.717  0.00  0.00    +0.000 OA
ATOM     38  O   UNL     1       2.366   7.035  18.961  0.00  0.00    +0.000 OA
ENDBRANCH   8  36
TORSDOF 7
ENDMDL
MODEL 7
REMARK VINA RESULT:      -7.1      1.419      2.941
REMARK  Name = 
REMARK  7 active torsions:
REMARK  status: ('A' for Active; 'I' for Inactive)
REMARK    1  A    between atoms: C_2  and  C_3
REMARK    2  A    between atoms: C_3  and  N_4
REMARK    3  A    between atoms: C_6  and  C_7
REMARK    4  A    between atoms: C_7  and  C_8
REMARK    5  A    between atoms: N_10  and  C_11
REMARK    6  A    between atoms: C_11  and  C_12
REMARK    7  A    between atoms: C_26  and  N_27
REMARK                            x       y       z     vdW  Elec       q    Type
REMARK                         _______ _______ _______ _____ _____    ______ ____
ROOT
ATOM      1  C   UNL     1      -1.128  12.384  21.155  0.00  0.00    +0.000 C 
ATOM      2  C   UNL     1      -1.568  12.367  22.704  0.00  0.00    +0.000 C 
ATOM      3  O   UNL     1      -1.815  13.267  23.490  0.00  0.00    +0.000 OA
ATOM      4  N   UNL     1      -1.416  11.088  23.200  0.00  0.00    +0.000 N 
ATOM      5  C   UNL     1      -0.401  10.516  22.448  0.00  0.00    +0.000 A 
ATOM      6  C   UNL     1       0.400   9.525  22.984  0.00  0.00    +0.000 A 
ATOM      7  C   UNL     1       1.217   8.836  22.119  0.00  0.00    +0.000 A 
ATOM      8  C   UNL     1       1.087   9.089  20.736  0.00  0.00    +0.000 A 
ATOM      9  C   UNL     1       0.313  10.191  20.240  0.00  0.00    +0.000 A 
ATOM     10  C   UNL     1      -0.337  11.039  21.144  0.00  0.00    +0.000 A 
ATOM     11  H   UNL     1      -2.282  10.594  22.986  0.00  0.00    +0.000 HD
ENDROOT
BRANCH   1  14
ATOM     12  N   UNL     1       0.606  15.721  21.104  0.00  0.00    +0.000 N 
ATOM     13  C   UNL     1      -0.318  14.869  21.680  0.00  0.00    +0.000 A 
ATOM     14  C   UNL     1      -0.307  13.666  20.988  0.00  0.00    +0.000 A 
ATOM     15  C   UNL     1       0.771  13.810  19.998  0.00  0.00    +0.000 A 
ATOM     16  C   UNL     1       1.340  12.956  19.009  0.00  0.00    +0.000 A 
ATOM     17  C   UNL     1       2.269  13.434  18.080  0.00  0.00    +0.000 A 
ATOM     18  C   UNL     1       2.715  14.743  18.160  0.00  0.00    +0.000 A 
ATOM     19  C   UNL     1       2.239  15.590  19.162  0.00  0.00    +0.000 A 
ATOM     20  C   UNL     1       1.260  15.106  20.058  0.00  0.00    +0.000 A 
BRANCH  12  21
ATOM     21  C   UNL     1       0.850  17.096  21.519  0.00  0.00    +0.000 C 
BRANCH  21  23
ATOM     22  C   UNL     1       2.676  16.787  23.212  0.00  0.00    +0.000 C 
ATOM     23  C   UNL     1       1.430  17.160  22.900  0.00  0.00    +0.000 C 
ENDBRANCH  21  23
ENDBRANCH  12  21
ENDBRANCH   1  14
BRANCH   1  24
ATOM     24  C   UNL     1      -2.284  12.367  20.149  0.00  0.00    +0.000 A 
ATOM     25  C   UNL     1      -2.260  11.964  18.824  0.00  0.00    +0.000 A 
ATOM     26  N   UNL     1      -3.531  11.802  18.351  0.00  0.00    +0.000 N 
ATOM     27  C   UNL     1      -4.443  12.166  19.309  0.00  0.00    +0.000 A 
ATOM     28  C   UNL     1      -5.860  12.184  19.309  0.00  0.00    +0.000 A 
ATOM     29  C   UNL     1      -6.524  12.509  20.487  0.00  0.00    +0.000 A 
ATOM     30  C   UNL     1      -5.826  12.789  21.646  0.00  0.00    +0.000 A 
ATOM     31  C   UNL     1      -4.424  12.758  21.660  0.00  0.00    +0.000 A 
ATOM     32  C   UNL     1      -3.699  12.484  20.468  0.00  0.00    +0.000 A 
BRANCH  26  33
ATOM     33  C   UNL     1      -3.896  11.281  17.024  0.00  0.00    +0.000 C 
BRANCH  33  34
ATOM     34  C   UNL     1      -2.728  10.716  16.264  0.00  0.00    +0.000 C 
ATOM     35  C   UNL     1      -2.823  10.015  15.124  0.00  0.00    +0.000 C 
ENDBRANCH  33  34
ENDBRANCH  26  33
ENDBRANCH   1  24
BRANCH   8  36
ATOM     36  N   UNL     1       1.666   8.068  19.842  0.00  0.00    +0.000 N 
ATOM     37  O   UNL     1       1.927   8.402  18.684  0.00  0.00    +0.000 OA
ATOM     38  O   UNL     1       1.880   6.957  20.321  0.00  0.00    +0.000 OA
ENDBRANCH   8  36
TORSDOF 7
ENDMDL
MODEL 8
REMARK VINA RESULT:      -7.1      2.516      4.449
REMARK  Name = 
REMARK  7 active torsions:
REMARK  status: ('A' for Active; 'I' for Inactive)
REMARK    1  A    between atoms: C_2  and  C_3
REMARK    2  A    between atoms: C_3  and  N_4
REMARK    3  A    between atoms: C_6  and  C_7
REMARK    4  A    between atoms: C_7  and  C_8
REMARK    5  A    between atoms: N_10  and  C_11
REMARK    6  A    between atoms: C_11  and  C_12
REMARK    7  A    between atoms: C_26  and  N_27
REMARK                            x       y       z     vdW  Elec       q    Type
REMARK                         _______ _______ _______ _____ _____    ______ ____
ROOT
ATOM      1  C   UNL     1      -1.857  13.124  20.348  0.00  0.00    +0.000 C 
ATOM      2  C   UNL     1      -0.867  12.303  21.317  0.00  0.00    +0.000 C 
ATOM      3  O   UNL     1      -0.063  12.670  22.158  0.00  0.00    +0.000 OA
ATOM      4  N   UNL     1      -0.839  10.983  20.917  0.00  0.00    +0.000 N 
ATOM      5  C   UNL     1      -1.112  11.001  19.557  0.00  0.00    +0.000 A 
ATOM      6  C   UNL     1      -0.622  10.009  18.728  0.00  0.00    +0.000 A 
ATOM      7  C   UNL     1      -1.125   9.950  17.450  0.00  0.00    +0.000 A 
ATOM      8  C   UNL     1      -2.194  10.808  17.114  0.00  0.00    +0.000 A 
ATOM      9  C   UNL     1      -2.600  11.881  17.977  0.00  0.00    +0.000 A 
ATOM     10  C   UNL     1      -1.927  12.085  19.186  0.00  0.00    +0.000 A 
ATOM     11  H   UNL     1      -1.620  10.526  21.388  0.00  0.00    +0.000 HD
ENDROOT
BRANCH   1  14
ATOM     12  N   UNL     1       0.075  16.139  19.200  0.00  0.00    +0.000 N 
ATOM     13  C   UNL     1      -0.417  14.873  18.944  0.00  0.00    +0.000 A 
ATOM     14  C   UNL     1      -1.128  14.438  20.053  0.00  0.00    +0.000 A 
ATOM     15  C   UNL     1      -1.119  15.581  20.980  0.00  0.00    +0.000 A 
ATOM     16  C   UNL     1      -1.687  15.832  22.263  0.00  0.00    +0.000 A 
ATOM     17  C   UNL     1      -1.363  16.981  22.990  0.00  0.00    +0.000 A 
ATOM     18  C   UNL     1      -0.538  17.943  22.432  0.00  0.00    +0.000 A 
ATOM     19  C   UNL     1      -0.023  17.771  21.146  0.00  0.00    +0.000 A 
ATOM     20  C   UNL     1      -0.316  16.578  20.447  0.00  0.00    +0.000 A 
BRANCH  12  21
ATOM     21  C   UNL     1       0.917  16.910  18.296  0.00  0.00    +0.000 C 
BRANCH  21  23
ATOM     22  C   UNL     1       0.569  18.489  16.376  0.00  0.00    +0.000 C 
ATOM     23  C   UNL     1       0.106  17.853  17.458  0.00  0.00    +0.000 C 
ENDBRANCH  21  23
ENDBRANCH  12  21
ENDBRANCH   1  14
BRANCH   1  24
ATOM     24  C   UNL     1      -3.245  13.414  20.930  0.00  0.00    +0.000 A 
ATOM     25  C   UNL     1      -4.395  13.791  20.255  0.00  0.00    +0.000 A 
ATOM     26  N   UNL     1      -5.489  13.655  21.061  0.00  0.00    +0.000 N 
ATOM     27  C   UNL     1      -5.105  13.263  22.318  0.00  0.00    +0.000 A 
ATOM     28  C   UNL     1      -5.849  12.993  23.494  0.00  0.00    +0.000 A 
ATOM     29  C   UNL     1      -5.179  12.502  24.610  0.00  0.00    +0.000 A 
ATOM     30  C   UNL     1      -3.820  12.255  24.575  0.00  0.00    +0.000 A 
ATOM     31  C   UNL     1      -3.078  12.503  23.411  0.00  0.00    +0.000 A 
ATOM     32  C   UNL     1      -3.708  13.057  22.263  0.00  0.00    +0.000 A 
BRANCH  26  33
ATOM     33  C   UNL     1      -6.888  13.859  20.654  0.00  0.00    +0.000 C 
BRANCH  33  34
ATOM     34  C   UNL     1      -7.475  12.682  19.927  0.00  0.00    +0.000 C 
ATOM     35  C   UNL     1      -7.250  11.396  20.243  0.00  0.00    +0.000 C 
ENDBRANCH  33  34
ENDBRANCH  26  33
ENDBRANCH   1  24
BRANCH   8  36
ATOM     36  N   UNL     1      -2.956  10.438  15.905  0.00  0.00    +0.000 N 
ATOM     37  O   UNL     1      -2.610   9.421  15.299  0.00  0.00    +0.000 OA
ATOM     38  O   UNL     1      -3.906  11.153  15.599  0.00  0.00    +0.000 OA
ENDBRANCH   8  36
TORSDOF 7
ENDMDL
MODEL 9
REMARK VINA RESULT:      -7.1      2.412      4.092
REMARK  Name = 
REMARK  7 active torsions:
REMARK  status: ('A' for Active; 'I' for Inactive)
REMARK    1  A    between atoms: C_2  and  C_3
REMARK    2  A    between atoms: C_3  and  N_4
REMARK    3  A    between atoms: C_6  and  C_7
REMARK    4  A    between atoms: C_7  and  C_8
REMARK    5  A    between atoms: N_10  and  C_11
REMARK    6  A    between atoms: C_11  and  C_12
REMARK    7  A    between atoms: C_26  and  N_27
REMARK                            x       y       z     vdW  Elec       q    Type
REMARK                         _______ _______ _______ _____ _____    ______ ____
ROOT
ATOM      1  C   UNL     1      -1.929  12.733  20.340  0.00  0.00    +0.000 C 
ATOM      2  C   UNL     1      -0.970  11.854  21.289  0.00  0.00    +0.000 C 
ATOM      3  O   UNL     1      -0.222  12.164  22.201  0.00  0.00    +0.000 OA
ATOM      4  N   UNL     1      -0.886  10.574  20.780  0.00  0.00    +0.000 N 
ATOM      5  C   UNL     1      -1.086  10.703  19.414  0.00  0.00    +0.000 A 
ATOM      6  C   UNL     1      -0.527   9.797  18.532  0.00  0.00    +0.000 A 
ATOM      7  C   UNL     1      -0.960   9.837  17.227  0.00  0.00    +0.000 A 
ATOM      8  C   UNL     1      -2.032  10.697  16.907  0.00  0.00    +0.000 A 
ATOM      9  C   UNL     1      -2.511  11.683  17.834  0.00  0.00    +0.000 A 
ATOM     10  C   UNL     1      -1.909  11.797  19.092  0.00  0.00    +0.000 A 
ATOM     11  H   UNL     1      -1.679  10.061  21.166  0.00  0.00    +0.000 HD
ENDROOT
BRANCH   1  14
ATOM     12  N   UNL     1      -0.589  16.245  20.205  0.00  0.00    +0.000 N 
ATOM     13  C   UNL     1      -1.569  15.360  20.616  0.00  0.00    +0.000 A 
ATOM     14  C   UNL     1      -1.220  14.083  20.198  0.00  0.00    +0.000 A 
ATOM     15  C   UNL     1       0.105  14.237  19.580  0.00  0.00    +0.000 A 
ATOM     16  C   UNL     1       1.044  13.340  18.991  0.00  0.00    +0.000 A 
ATOM     17  C   UNL     1       2.178  13.809  18.321  0.00  0.00    +0.000 A 
ATOM     18  C   UNL     1       2.450  15.166  18.290  0.00  0.00    +0.000 A 
ATOM     19  C   UNL     1       1.596  16.072  18.920  0.00  0.00    +0.000 A 
ATOM     20  C   UNL     1       0.425  15.586  19.545  0.00  0.00    +0.000 A 
BRANCH  12  21
ATOM     21  C   UNL     1      -0.623  17.686  20.411  0.00  0.00    +0.000 C 
BRANCH  21  23
ATOM     22  C   UNL     1       1.294  18.505  21.808  0.00  0.00    +0.000 C 
ATOM     23  C   UNL     1       0.032  18.074  21.702  0.00  0.00    +0.000 C 
ENDBRANCH  21  23
ENDBRANCH  12  21
ENDBRANCH   1  14
BRANCH   1  24
ATOM     24  C   UNL     1      -3.353  12.941  20.866  0.00  0.00    +0.000 A 
ATOM     25  C   UNL     1      -4.536  12.967  20.146  0.00  0.00    +0.000 A 
ATOM     26  N   UNL     1      -5.609  12.865  20.986  0.00  0.00    +0.000 N 
ATOM     27  C   UNL     1      -5.189  12.850  22.292  0.00  0.00    +0.000 A 
ATOM     28  C   UNL     1      -5.900  12.763  23.514  0.00  0.00    +0.000 A 
ATOM     29  C   UNL     1      -5.180  12.662  24.700  0.00  0.00    +0.000 A 
ATOM     30  C   UNL     1      -3.799  12.622  24.695  0.00  0.00    +0.000 A 
ATOM     31  C   UNL     1      -3.086  12.691  23.489  0.00  0.00    +0.000 A 
ATOM     32  C   UNL     1      -3.775  12.850  22.256  0.00  0.00    +0.000 A 
BRANCH  26  33
ATOM     33  C   UNL     1      -7.017  12.752  20.574  0.00  0.00    +0.000 C 
BRANCH  33  34
ATOM     34  C   UNL     1      -7.525  11.337  20.571  0.00  0.00    +0.000 C 
ATOM     35  C   UNL     1      -7.101  10.373  19.739  0.00  0.00    +0.000 C 
ENDBRANCH  33  34
ENDBRANCH  26  33
ENDBRANCH   1  24
BRANCH   8  36
ATOM     36  N   UNL     1      -2.717  10.417  15.631  0.00  0.00    +0.000 N 
ATOM     37  O   UNL     1      -3.372  11.329  15.120  0.00  0.00    +0.000 OA
ATOM     38  O   UNL     1      -2.564   9.300  15.144  0.00  0.00    +0.000 OA
ENDBRANCH   8  36
TORSDOF 7
ENDMDL
