MODEL 1
REMARK VINA RESULT:      -7.0      0.000      0.000
REMARK  Name = 
REMARK  5 active torsions:
REMARK  status: ('A' for Active; 'I' for Inactive)
REMARK    1  A    between atoms: C_5  and  S_6
REMARK    2  A    between atoms: S_6  and  C_7
REMARK    3  A    between atoms: C_7  and  C_8
REMARK    4  A    between atoms: C_8  and  C_10
REMARK    5  A    between atoms: C_13  and  N_14
REMARK                            x       y       z     vdW  Elec       q    Type
REMARK                         _______ _______ _______ _____ _____    ______ ____
ROOT
ATOM      1  C   UNL     1       4.910   6.400  17.489  0.00  0.00    +0.000 C 
ATOM      2  O   UNL     1       4.548   7.043  16.505  0.00  0.00    +0.000 OA
ENDROOT
BRANCH   1   3
ATOM      3  C   UNL     1       3.909   5.528  18.166  0.00  0.00    +0.000 A 
ATOM      4  C   UNL     1       3.245   4.564  17.393  0.00  0.00    +0.000 A 
ATOM      5  C   UNL     1       2.295   3.722  17.977  0.00  0.00    +0.000 A 
ATOM      6  C   UNL     1       2.018   3.840  19.343  0.00  0.00    +0.000 A 
ATOM      7  C   UNL     1       2.690   4.789  20.128  0.00  0.00    +0.000 A 
ATOM      8  C   UNL     1       3.637   5.634  19.535  0.00  0.00    +0.000 A 
BRANCH   6   9
ATOM      9  N   UNL     1       1.017   2.958  19.961  0.00  0.00    +0.000 N 
ATOM     10  O   UNL     1       0.183   2.423  19.219  0.00  0.00    +0.000 OA
ATOM     11  O   UNL     1       1.069   2.805  21.189  0.00  0.00    +0.000 OA
ENDBRANCH   6   9
ENDBRANCH   1   3
BRANCH   1  12
ATOM     12  C   UNL     1       6.323   6.425  18.042  0.00  0.00    +0.000 C 
BRANCH  12  13
ATOM     13  S   UNL     1       7.203   4.866  17.735  0.00  0.00    +0.000 S 
BRANCH  13  18
ATOM     14  N   UNL     1       5.968   3.644  12.617  0.00  0.00    +0.000 N 
ATOM     15  C   UNL     1       6.445   4.164  13.763  0.00  0.00    +0.000 A 
ATOM     16  N   UNL     1       7.301   5.160  13.838  0.00  0.00    +0.000 NA
ATOM     17  N   UNL     1       7.620   5.486  15.144  0.00  0.00    +0.000 NA
ATOM     18  C   UNL     1       6.993   4.715  16.004  0.00  0.00    +0.000 A 
ATOM     19  S   UNL     1       5.979   3.535  15.293  0.00  0.00    +0.000 S 
ATOM     20  H   UNL     1       6.477   3.863  11.766  0.00  0.00    +0.000 HD
ATOM     21  H   UNL     1       5.554   2.719  12.636  0.00  0.00    +0.000 HD
ENDBRANCH  13  18
ENDBRANCH  12  13
ENDBRANCH   1  12
TORSDOF 5
ENDMDL
MODEL 2
REMARK VINA RESULT:      -6.9      3.154      5.693
REMARK  Name = 
REMARK  5 active torsions:
REMARK  status: ('A' for Active; 'I' for Inactive)
REMARK    1  A    between atoms: C_5  and  S_6
REMARK    2  A    between atoms: S_6  and  C_7
REMARK    3  A    between atoms: C_7  and  C_8
REMARK    4  A    between atoms: C_8  and  C_10
REMARK    5  A    between atoms: C_13  and  N_14
REMARK                            x       y       z     vdW  Elec       q    Type
REMARK                         _______ _______ _______ _____ _____    ______ ____
ROOT
ATOM      1  C   UNL     1       2.562   6.375  19.044  0.00  0.00    +0.000 C 
ATOM      2  O   UNL     1       1.903   7.184  18.392  0.00  0.00    +0.000 OA
ENDROOT
BRANCH   1   3
ATOM      3  C   UNL     1       3.854   5.900  18.474  0.00  0.00    +0.000 A 
ATOM      4  C   UNL     1       4.900   5.615  19.363  0.00  0.00    +0.000 A 
ATOM      5  C   UNL     1       6.134   5.169  18.882  0.00  0.00    +0.000 A 
ATOM      6  C   UNL     1       6.315   4.994  17.505  0.00  0.00    +0.000 A 
ATOM      7  C   UNL     1       5.268   5.260  16.610  0.00  0.00    +0.000 A 
ATOM      8  C   UNL     1       4.035   5.713  17.098  0.00  0.00    +0.000 A 
BRANCH   6   9
ATOM      9  N   UNL     1       7.611   4.528  16.996  0.00  0.00    +0.000 N 
ATOM     10  O   UNL     1       8.422   4.070  17.812  0.00  0.00    +0.000 OA
ATOM     11  O   UNL     1       7.815   4.621  15.777  0.00  0.00    +0.000 OA
ENDBRANCH   6   9
ENDBRANCH   1   3
BRANCH   1  12
ATOM     12  C   UNL     1       2.147   5.850  20.406  0.00  0.00    +0.000 C 
BRANCH  12  13
ATOM     13  S   UNL     1       0.906   4.530  20.278  0.00  0.00    +0.000 S 
BRANCH  13  18
ATOM     14  N   UNL     1       4.146   0.803  18.082  0.00  0.00    +0.000 N 
ATOM     15  C   UNL     1       3.209   1.729  18.355  0.00  0.00    +0.000 A 
ATOM     16  N   UNL     1       2.326   2.184  17.492  0.00  0.00    +0.000 NA
ATOM     17  N   UNL     1       1.487   3.135  18.045  0.00  0.00    +0.000 NA
ATOM     18  C   UNL     1       1.777   3.363  19.307  0.00  0.00    +0.000 A 
ATOM     19  S   UNL     1       3.091   2.449  19.911  0.00  0.00    +0.000 S 
ATOM     20  H   UNL     1       4.343   0.623  17.103  0.00  0.00    +0.000 HD
ATOM     21  H   UNL     1       4.947   0.724  18.697  0.00  0.00    +0.000 HD
ENDBRANCH  13  18
ENDBRANCH  12  13
ENDBRANCH   1  12
TORSDOF 5
ENDMDL
MODEL 3
REMARK VINA RESULT:      -6.9      0.111      1.112
REMARK  Name = 
REMARK  5 active torsions:
REMARK  status: ('A' for Active; 'I' for Inactive)
REMARK    1  A    between atoms: C_5  and  S_6
REMARK    2  A    between atoms: S_6  and  C_7
REMARK    3  A    between atoms: C_7  and  C_8
REMARK    4  A    between atoms: C_8  and  C_10
REMARK    5  A    between atoms: C_13  and  N_14
REMARK                            x       y       z     vdW  Elec       q    Type
REMARK                         _______ _______ _______ _____ _____    ______ ____
ROOT
ATOM      1  C   UNL     1       4.925   6.357  17.487  0.00  0.00    +0.000 C 
ATOM      2  O   UNL     1       4.591   7.027  16.511  0.00  0.00    +0.000 OA
ENDROOT
BRANCH   1   3
ATOM      3  C   UNL     1       3.908   5.462  18.107  0.00  0.00    +0.000 A 
ATOM      4  C   UNL     1       3.790   5.468  19.505  0.00  0.00    +0.000 A 
ATOM      5  C   UNL     1       2.855   4.646  20.139  0.00  0.00    +0.000 A 
ATOM      6  C   UNL     1       2.025   3.824  19.367  0.00  0.00    +0.000 A 
ATOM      7  C   UNL     1       2.124   3.825  17.968  0.00  0.00    +0.000 A 
ATOM      8  C   UNL     1       3.068   4.647  17.339  0.00  0.00    +0.000 A 
BRANCH   6   9
ATOM      9  N   UNL     1       1.042   2.957  20.030  0.00  0.00    +0.000 N 
ATOM     10  O   UNL     1       0.219   2.367  19.317  0.00  0.00    +0.000 OA
ATOM     11  O   UNL     1       1.096   2.868  21.265  0.00  0.00    +0.000 OA
ENDBRANCH   6   9
ENDBRANCH   1   3
BRANCH   1  12
ATOM     12  C   UNL     1       6.321   6.371  18.084  0.00  0.00    +0.000 C 
BRANCH  12  13
ATOM     13  S   UNL     1       7.218   4.826  17.755  0.00  0.00    +0.000 S 
BRANCH  13  18
ATOM     14  N   UNL     1       5.964   3.650  12.631  0.00  0.00    +0.000 N 
ATOM     15  C   UNL     1       6.444   4.160  13.780  0.00  0.00    +0.000 A 
ATOM     16  N   UNL     1       7.299   5.157  13.860  0.00  0.00    +0.000 NA
ATOM     17  N   UNL     1       7.623   5.471  15.168  0.00  0.00    +0.000 NA
ATOM     18  C   UNL     1       7.001   4.691  16.024  0.00  0.00    +0.000 A 
ATOM     19  S   UNL     1       5.986   3.516  15.305  0.00  0.00    +0.000 S 
ATOM     20  H   UNL     1       6.468   3.878  11.780  0.00  0.00    +0.000 HD
ATOM     21  H   UNL     1       5.551   2.724  12.644  0.00  0.00    +0.000 HD
ENDBRANCH  13  18
ENDBRANCH  12  13
ENDBRANCH   1  12
TORSDOF 5
ENDMDL
MODEL 4
REMARK VINA RESULT:      -6.7      1.374      1.839
REMARK  Name = 
REMARK  5 active torsions:
REMARK  status: ('A' for Active; 'I' for Inactive)
REMARK    1  A    between atoms: C_5  and  S_6
REMARK    2  A    between atoms: S_6  and  C_7
REMARK    3  A    between atoms: C_7  and  C_8
REMARK    4  A    between atoms: C_8  and  C_10
REMARK    5  A    between atoms: C_13  and  N_14
REMARK                            x       y       z     vdW  Elec       q    Type
REMARK                         _______ _______ _______ _____ _____    ______ ____
ROOT
ATOM      1  C   UNL     1       3.058   7.526  17.958  0.00  0.00    +0.000 C 
ATOM      2  O   UNL     1       2.419   8.546  18.209  0.00  0.00    +0.000 OA
ENDROOT
BRANCH   1   3
ATOM      3  C   UNL     1       2.601   6.243  18.564  0.00  0.00    +0.000 A 
ATOM      4  C   UNL     1       2.542   6.160  19.962  0.00  0.00    +0.000 A 
ATOM      5  C   UNL     1       2.124   4.980  20.583  0.00  0.00    +0.000 A 
ATOM      6  C   UNL     1       1.752   3.883  19.797  0.00  0.00    +0.000 A 
ATOM      7  C   UNL     1       1.792   3.963  18.397  0.00  0.00    +0.000 A 
ATOM      8  C   UNL     1       2.217   5.147  17.781  0.00  0.00    +0.000 A 
BRANCH   6   9
ATOM      9  N   UNL     1       1.314   2.639  20.445  0.00  0.00    +0.000 N 
ATOM     10  O   UNL     1       1.116   1.651  19.725  0.00  0.00    +0.000 OA
ATOM     11  O   UNL     1       1.168   2.655  21.676  0.00  0.00    +0.000 OA
ENDBRANCH   6   9
ENDBRANCH   1   3
BRANCH   1  12
ATOM     12  C   UNL     1       4.272   7.491  17.048  0.00  0.00    +0.000 C 
BRANCH  12  13
ATOM     13  S   UNL     1       5.600   6.452  17.723  0.00  0.00    +0.000 S 
BRANCH  13  18
ATOM     14  N   UNL     1       6.462   3.410  13.340  0.00  0.00    +0.000 N 
ATOM     15  C   UNL     1       6.510   4.296  14.351  0.00  0.00    +0.000 A 
ATOM     16  N   UNL     1       7.491   5.148  14.558  0.00  0.00    +0.000 NA
ATOM     17  N   UNL     1       7.278   5.937  15.676  0.00  0.00    +0.000 NA
ATOM     18  C   UNL     1       6.143   5.642  16.270  0.00  0.00    +0.000 A 
ATOM     19  S   UNL     1       5.257   4.382  15.524  0.00  0.00    +0.000 S 
ATOM     20  H   UNL     1       7.333   3.218  12.855  0.00  0.00    +0.000 HD
ATOM     21  H   UNL     1       5.836   2.616  13.416  0.00  0.00    +0.000 HD
ENDBRANCH  13  18
ENDBRANCH  12  13
ENDBRANCH   1  12
TORSDOF 5
ENDMDL
MODEL 5
REMARK VINA RESULT:      -6.6      2.955      7.045
REMARK  Name = 
REMARK  5 active torsions:
REMARK  status: ('A' for Active; 'I' for Inactive)
REMARK    1  A    between atoms: C_5  and  S_6
REMARK    2  A    between atoms: S_6  and  C_7
REMARK    3  A    between atoms: C_7  and  C_8
REMARK    4  A    between atoms: C_8  and  C_10
REMARK    5  A    between atoms: C_13  and  N_14
REMARK                            x       y       z     vdW  Elec       q    Type
REMARK                         _______ _______ _______ _____ _____    ______ ____
ROOT
ATOM      1  C   UNL     1       5.173   4.743  18.431  0.00  0.00    +0.000 C 
ATOM      2  O   UNL     1       5.477   3.808  19.169  0.00  0.00    +0.000 OA
ENDROOT
BRANCH   1   3
ATOM      3  C   UNL     1       5.678   4.725  17.028  0.00  0.00    +0.000 A 
ATOM      4  C   UNL     1       6.968   5.218  16.786  0.00  0.00    +0.000 A 
ATOM      5  C   UNL     1       7.490   5.227  15.490  0.00  0.00    +0.000 A 
ATOM      6  C   UNL     1       6.718   4.728  14.434  0.00  0.00    +0.000 A 
ATOM      7  C   UNL     1       5.433   4.217  14.670  0.00  0.00    +0.000 A 
ATOM      8  C   UNL     1       4.914   4.216  15.971  0.00  0.00    +0.000 A 
BRANCH   6   9
ATOM      9  N   UNL     1       7.262   4.738  13.069  0.00  0.00    +0.000 N 
ATOM     10  O   UNL     1       8.121   5.587  12.796  0.00  0.00    +0.000 OA
ATOM     11  O   UNL     1       6.825   3.896  12.272  0.00  0.00    +0.000 OA
ENDBRANCH   6   9
ENDBRANCH   1   3
BRANCH   1  12
ATOM     12  C   UNL     1       4.295   5.906  18.857  0.00  0.00    +0.000 C 
BRANCH  12  13
ATOM     13  S   UNL     1       2.581   5.708  18.290  0.00  0.00    +0.000 S 
BRANCH  13  18
ATOM     14  N   UNL     1       1.285   2.292  22.272  0.00  0.00    +0.000 N 
ATOM     15  C   UNL     1       1.480   2.932  21.104  0.00  0.00    +0.000 A 
ATOM     16  N   UNL     1       1.148   2.458  19.922  0.00  0.00    +0.000 NA
ATOM     17  N   UNL     1       1.470   3.327  18.895  0.00  0.00    +0.000 NA
ATOM     18  C   UNL     1       2.039   4.423  19.346  0.00  0.00    +0.000 A 
ATOM     19  S   UNL     1       2.234   4.475  21.045  0.00  0.00    +0.000 S 
ATOM     20  H   UNL     1       1.097   1.296  22.225  0.00  0.00    +0.000 HD
ATOM     21  H   UNL     1       1.816   2.585  23.083  0.00  0.00    +0.000 HD
ENDBRANCH  13  18
ENDBRANCH  12  13
ENDBRANCH   1  12
TORSDOF 5
ENDMDL
MODEL 6
REMARK VINA RESULT:      -6.6      1.380      1.475
REMARK  Name = 
REMARK  5 active torsions:
REMARK  status: ('A' for Active; 'I' for Inactive)
REMARK    1  A    between atoms: C_5  and  S_6
REMARK    2  A    between atoms: S_6  and  C_7
REMARK    3  A    between atoms: C_7  and  C_8
REMARK    4  A    between atoms: C_8  and  C_10
REMARK    5  A    between atoms: C_13  and  N_14
REMARK                            x       y       z     vdW  Elec       q    Type
REMARK                         _______ _______ _______ _____ _____    ______ ____
ROOT
ATOM      1  C   UNL     1       3.044   7.583  17.956  0.00  0.00    +0.000 C 
ATOM      2  O   UNL     1       2.442   8.632  18.180  0.00  0.00    +0.000 OA
ENDROOT
BRANCH   1   3
ATOM      3  C   UNL     1       2.559   6.339  18.618  0.00  0.00    +0.000 A 
ATOM      4  C   UNL     1       2.243   5.241  17.806  0.00  0.00    +0.000 A 
ATOM      5  C   UNL     1       1.781   4.051  18.374  0.00  0.00    +0.000 A 
ATOM      6  C   UNL     1       1.648   3.958  19.764  0.00  0.00    +0.000 A 
ATOM      7  C   UNL     1       1.979   5.046  20.586  0.00  0.00    +0.000 A 
ATOM      8  C   UNL     1       2.436   6.238  20.010  0.00  0.00    +0.000 A 
BRANCH   6   9
ATOM      9  N   UNL     1       1.160   2.709  20.366  0.00  0.00    +0.000 N 
ATOM     10  O   UNL     1       0.787   1.808  19.603  0.00  0.00    +0.000 OA
ATOM     11  O   UNL     1       1.151   2.635  21.603  0.00  0.00    +0.000 OA
ENDBRANCH   6   9
ENDBRANCH   1   3
BRANCH   1  12
ATOM     12  C   UNL     1       4.239   7.476  17.027  0.00  0.00    +0.000 C 
BRANCH  12  13
ATOM     13  S   UNL     1       5.555   6.436  17.725  0.00  0.00    +0.000 S 
BRANCH  13  18
ATOM     14  N   UNL     1       6.511   3.440  13.329  0.00  0.00    +0.000 N 
ATOM     15  C   UNL     1       6.540   4.311  14.355  0.00  0.00    +0.000 A 
ATOM     16  N   UNL     1       7.529   5.142  14.608  0.00  0.00    +0.000 NA
ATOM     17  N   UNL     1       7.292   5.918  15.729  0.00  0.00    +0.000 NA
ATOM     18  C   UNL     1       6.132   5.636  16.280  0.00  0.00    +0.000 A 
ATOM     19  S   UNL     1       5.250   4.404  15.485  0.00  0.00    +0.000 S 
ATOM     20  H   UNL     1       7.394   3.239  12.871  0.00  0.00    +0.000 HD
ATOM     21  H   UNL     1       5.868   2.658  13.372  0.00  0.00    +0.000 HD
ENDBRANCH  13  18
ENDBRANCH  12  13
ENDBRANCH   1  12
TORSDOF 5
ENDMDL
MODEL 7
REMARK VINA RESULT:      -6.6      3.991      4.792
REMARK  Name = 
REMARK  5 active torsions:
REMARK  status: ('A' for Active; 'I' for Inactive)
REMARK    1  A    between atoms: C_5  and  S_6
REMARK    2  A    between atoms: S_6  and  C_7
REMARK    3  A    between atoms: C_7  and  C_8
REMARK    4  A    between atoms: C_8  and  C_10
REMARK    5  A    between atoms: C_13  and  N_14
REMARK                            x       y       z     vdW  Elec       q    Type
REMARK                         _______ _______ _______ _____ _____    ______ ____
ROOT
ATOM      1  C   UNL     1       2.754   5.929  18.740  0.00  0.00    +0.000 C 
ATOM      2  O   UNL     1       2.244   5.309  17.809  0.00  0.00    +0.000 OA
ENDROOT
BRANCH   1   3
ATOM      3  C   UNL     1       2.176   7.254  19.103  0.00  0.00    +0.000 A 
ATOM      4  C   UNL     1       1.772   7.455  20.430  0.00  0.00    +0.000 A 
ATOM      5  C   UNL     1       1.221   8.678  20.824  0.00  0.00    +0.000 A 
ATOM      6  C   UNL     1       1.085   9.706  19.884  0.00  0.00    +0.000 A 
ATOM      7  C   UNL     1       1.503   9.520  18.558  0.00  0.00    +0.000 A 
ATOM      8  C   UNL     1       2.049   8.290  18.169  0.00  0.00    +0.000 A 
BRANCH   6   9
ATOM      9  N   UNL     1       0.504  10.992  20.293  0.00  0.00    +0.000 N 
ATOM     10  O   UNL     1      -0.529  11.366  19.722  0.00  0.00    +0.000 OA
ATOM     11  O   UNL     1       1.085  11.626  21.186  0.00  0.00    +0.000 OA
ENDBRANCH   6   9
ENDBRANCH   1   3
BRANCH   1  12
ATOM     12  C   UNL     1       3.924   5.415  19.559  0.00  0.00    +0.000 C 
BRANCH  12  13
ATOM     13  S   UNL     1       4.491   3.786  18.990  0.00  0.00    +0.000 S 
BRANCH  13  18
ATOM     14  N   UNL     1       7.520   5.192  14.741  0.00  0.00    +0.000 N 
ATOM     15  C   UNL     1       7.026   4.870  15.951  0.00  0.00    +0.000 A 
ATOM     16  N   UNL     1       7.737   4.787  17.055  0.00  0.00    +0.000 NA
ATOM     17  N   UNL     1       6.970   4.432  18.151  0.00  0.00    +0.000 NA
ATOM     18  C   UNL     1       5.708   4.258  17.826  0.00  0.00    +0.000 A 
ATOM     19  S   UNL     1       5.362   4.501  16.168  0.00  0.00    +0.000 S 
ATOM     20  H   UNL     1       8.526   5.128  14.623  0.00  0.00    +0.000 HD
ATOM     21  H   UNL     1       6.981   4.956  13.916  0.00  0.00    +0.000 HD
ENDBRANCH  13  18
ENDBRANCH  12  13
ENDBRANCH   1  12
TORSDOF 5
ENDMDL
MODEL 8
REMARK VINA RESULT:      -6.5      3.150      5.684
REMARK  Name = 
REMARK  5 active torsions:
REMARK  status: ('A' for Active; 'I' for Inactive)
REMARK    1  A    between atoms: C_5  and  S_6
REMARK    2  A    between atoms: S_6  and  C_7
REMARK    3  A    between atoms: C_7  and  C_8
REMARK    4  A    between atoms: C_8  and  C_10
REMARK    5  A    between atoms: C_13  and  N_14
REMARK                            x       y       z     vdW  Elec       q    Type
REMARK                         _______ _______ _______ _____ _____    ______ ____
ROOT
ATOM      1  C   UNL     1       2.496   6.595  19.812  0.00  0.00    +0.000 C 
ATOM      2  O   UNL     1       1.923   7.681  19.746  0.00  0.00    +0.000 OA
ENDROOT
BRANCH   1   3
ATOM      3  C   UNL     1       3.602   6.324  18.850  0.00  0.00    +0.000 A 
ATOM      4  C   UNL     1       4.660   5.509  19.276  0.00  0.00    +0.000 A 
ATOM      5  C   UNL     1       5.724   5.225  18.416  0.00  0.00    +0.000 A 
ATOM      6  C   UNL     1       5.720   5.751  17.118  0.00  0.00    +0.000 A 
ATOM      7  C   UNL     1       4.656   6.553  16.678  0.00  0.00    +0.000 A 
ATOM      8  C   UNL     1       3.596   6.838  17.548  0.00  0.00    +0.000 A 
BRANCH   6   9
ATOM      9  N   UNL     1       6.837   5.456  16.211  0.00  0.00    +0.000 N 
ATOM     10  O   UNL     1       6.837   4.363  15.630  0.00  0.00    +0.000 OA
ATOM     11  O   UNL     1       7.715   6.322  16.083  0.00  0.00    +0.000 OA
ENDBRANCH   6   9
ENDBRANCH   1   3
BRANCH   1  12
ATOM     12  C   UNL     1       2.160   5.522  20.832  0.00  0.00    +0.000 C 
BRANCH  12  13
ATOM     13  S   UNL     1       0.832   4.426  20.255  0.00  0.00    +0.000 S 
BRANCH  13  18
ATOM     14  N   UNL     1       4.168   0.803  18.028  0.00  0.00    +0.000 N 
ATOM     15  C   UNL     1       3.220   1.717  18.303  0.00  0.00    +0.000 A 
ATOM     16  N   UNL     1       2.378   2.217  17.423  0.00  0.00    +0.000 NA
ATOM     17  N   UNL     1       1.515   3.142  17.984  0.00  0.00    +0.000 NA
ATOM     18  C   UNL     1       1.746   3.307  19.268  0.00  0.00    +0.000 A 
ATOM     19  S   UNL     1       3.030   2.360  19.886  0.00  0.00    +0.000 S 
ATOM     20  H   UNL     1       4.410   0.671  17.051  0.00  0.00    +0.000 HD
ATOM     21  H   UNL     1       4.940   0.691  18.674  0.00  0.00    +0.000 HD
ENDBRANCH  13  18
ENDBRANCH  12  13
ENDBRANCH   1  12
TORSDOF 5
ENDMDL
MODEL 9
REMARK VINA RESULT:      -6.5      2.821      5.860
REMARK  Name = 
REMARK  5 active torsions:
REMARK  status: ('A' for Active; 'I' for Inactive)
REMARK    1  A    between atoms: C_5  and  S_6
REMARK    2  A    between atoms: S_6  and  C_7
REMARK    3  A    between atoms: C_7  and  C_8
REMARK    4  A    between atoms: C_8  and  C_10
REMARK    5  A    between atoms: C_13  and  N_14
REMARK                            x       y       z     vdW  Elec       q    Type
REMARK                         _______ _______ _______ _____ _____    ______ ____
ROOT
ATOM      1  C   UNL     1       2.932   6.635  18.570  0.00  0.00    +0.000 C 
ATOM      2  O   UNL     1       2.100   7.458  18.192  0.00  0.00    +0.000 OA
ENDROOT
BRANCH   1   3
ATOM      3  C   UNL     1       3.921   6.127  17.577  0.00  0.00    +0.000 A 
ATOM      4  C   UNL     1       4.978   6.971  17.209  0.00  0.00    +0.000 A 
ATOM      5  C   UNL     1       5.932   6.547  16.280  0.00  0.00    +0.000 A 
ATOM      6  C   UNL     1       5.831   5.265  15.727  0.00  0.00    +0.000 A 
ATOM      7  C   UNL     1       4.787   4.407  16.102  0.00  0.00    +0.000 A 
ATOM      8  C   UNL     1       3.831   4.841  17.030  0.00  0.00    +0.000 A 
BRANCH   6   9
ATOM      9  N   UNL     1       6.830   4.816  14.748  0.00  0.00    +0.000 N 
ATOM     10  O   UNL     1       6.572   3.804  14.082  0.00  0.00    +0.000 OA
ATOM     11  O   UNL     1       7.874   5.476  14.650  0.00  0.00    +0.000 OA
ENDBRANCH   6   9
ENDBRANCH   1   3
BRANCH   1  12
ATOM     12  C   UNL     1       3.026   6.121  19.995  0.00  0.00    +0.000 C 
BRANCH  12  13
ATOM     13  S   UNL     1       1.664   4.991  20.404  0.00  0.00    +0.000 S 
BRANCH  13  18
ATOM     14  N   UNL     1       4.127   0.606  18.428  0.00  0.00    +0.000 N 
ATOM     15  C   UNL     1       3.293   1.617  18.729  0.00  0.00    +0.000 A 
ATOM     16  N   UNL     1       2.123   1.822  18.161  0.00  0.00    +0.000 NA
ATOM     17  N   UNL     1       1.481   2.940  18.664  0.00  0.00    +0.000 NA
ATOM     18  C   UNL     1       2.197   3.537  19.590  0.00  0.00    +0.000 A 
ATOM     19  S   UNL     1       3.704   2.794  19.912  0.00  0.00    +0.000 S 
ATOM     20  H   UNL     1       3.962   0.118  17.553  0.00  0.00    +0.000 HD
ATOM     21  H   UNL     1       5.103   0.683  18.692  0.00  0.00    +0.000 HD
ENDBRANCH  13  18
ENDBRANCH  12  13
ENDBRANCH   1  12
TORSDOF 5
ENDMDL
