MODEL 1
REMARK VINA RESULT:      -7.9      0.000      0.000
REMARK  Name = 
REMARK  4 active torsions:
REMARK  status: ('A' for Active; 'I' for Inactive)
REMARK    1  A    between atoms: C_2  and  C_3
REMARK    2  A    between atoms: C_5  and  C_6
REMARK    3  A    between atoms: C_6  and  C_8
REMARK    4  A    between atoms: C_11  and  N_12
REMARK                            x       y       z     vdW  Elec       q    Type
REMARK                         _______ _______ _______ _____ _____    ______ ____
ROOT
ATOM      1  C   UNL     1       3.202   7.455  18.061  0.00  0.00    +0.000 A 
ATOM      2  C   UNL     1       4.375   6.979  17.466  0.00  0.00    +0.000 A 
ATOM      3  C   UNL     1       4.670   5.713  17.973  0.00  0.00    +0.000 A 
ATOM      4  N   UNL     1       3.692   5.422  18.948  0.00  0.00    +0.000 N 
ATOM      5  C   UNL     1       2.790   6.505  18.964  0.00  0.00    +0.000 A 
ATOM      6  C   UNL     1       1.666   6.495  19.830  0.00  0.00    +0.000 A 
ATOM      7  C   UNL     1       1.440   5.462  20.644  0.00  0.00    +0.000 A 
ATOM      8  C   UNL     1       2.350   4.320  20.657  0.00  0.00    +0.000 A 
ATOM      9  C   UNL     1       2.065   3.260  21.530  0.00  0.00    +0.000 A 
ATOM     10  C   UNL     1       2.901   2.152  21.577  0.00  0.00    +0.000 A 
ATOM     11  C   UNL     1       4.015   2.103  20.745  0.00  0.00    +0.000 A 
ATOM     12  C   UNL     1       4.301   3.154  19.858  0.00  0.00    +0.000 A 
ATOM     13  C   UNL     1       3.481   4.282  19.809  0.00  0.00    +0.000 A 
ENDROOT
BRANCH   1  15
ATOM     14  N   UNL     1       2.013   9.699  17.559  0.00  0.00    +0.000 NA
ATOM     15  C   UNL     1       2.552   8.699  17.782  0.00  0.00    +0.000 C 
ENDBRANCH   1  15
BRANCH   3  16
ATOM     16  C   UNL     1       5.845   4.955  17.556  0.00  0.00    +0.000 C 
ATOM     17  O   UNL     1       6.751   4.629  18.319  0.00  0.00    +0.000 OA
BRANCH  16  18
ATOM     18  C   UNL     1       6.046   4.654  16.091  0.00  0.00    +0.000 A 
ATOM     19  C   UNL     1       5.088   3.983  15.318  0.00  0.00    +0.000 A 
ATOM     20  C   UNL     1       5.322   3.732  13.959  0.00  0.00    +0.000 A 
ATOM     21  C   UNL     1       6.537   4.078  13.363  0.00  0.00    +0.000 A 
ATOM     22  C   UNL     1       7.460   4.807  14.114  0.00  0.00    +0.000 A 
ATOM     23  C   UNL     1       7.232   5.074  15.472  0.00  0.00    +0.000 A 
BRANCH  21  24
ATOM     24  N   UNL     1       6.726   3.893  11.989  0.00  0.00    +0.000 N 
ATOM     25  H   UNL     1       5.862   3.763  11.472  0.00  0.00    +0.000 HD
ATOM     26  H   UNL     1       7.410   3.176  11.764  0.00  0.00    +0.000 HD
ENDBRANCH  21  24
ENDBRANCH  16  18
ENDBRANCH   3  16
TORSDOF 4
ENDMDL
MODEL 2
REMARK VINA RESULT:      -7.5      2.818      7.399
REMARK  Name = 
REMARK  4 active torsions:
REMARK  status: ('A' for Active; 'I' for Inactive)
REMARK    1  A    between atoms: C_2  and  C_3
REMARK    2  A    between atoms: C_5  and  C_6
REMARK    3  A    between atoms: C_6  and  C_8
REMARK    4  A    between atoms: C_11  and  N_12
REMARK                            x       y       z     vdW  Elec       q    Type
REMARK                         _______ _______ _______ _____ _____    ______ ____
ROOT
ATOM      1  C   UNL     1       2.127   4.359  20.565  0.00  0.00    +0.000 A 
ATOM      2  C   UNL     1       1.747   5.703  20.599  0.00  0.00    +0.000 A 
ATOM      3  C   UNL     1       2.325   6.375  19.521  0.00  0.00    +0.000 A 
ATOM      4  N   UNL     1       3.131   5.439  18.837  0.00  0.00    +0.000 N 
ATOM      5  C   UNL     1       2.971   4.201  19.492  0.00  0.00    +0.000 A 
ATOM      6  C   UNL     1       3.638   3.042  19.016  0.00  0.00    +0.000 A 
ATOM      7  C   UNL     1       4.427   3.101  17.942  0.00  0.00    +0.000 A 
ATOM      8  C   UNL     1       4.618   4.364  17.234  0.00  0.00    +0.000 A 
ATOM      9  C   UNL     1       5.455   4.369  16.109  0.00  0.00    +0.000 A 
ATOM     10  C   UNL     1       5.666   5.547  15.403  0.00  0.00    +0.000 A 
ATOM     11  C   UNL     1       5.033   6.713  15.818  0.00  0.00    +0.000 A 
ATOM     12  C   UNL     1       4.181   6.714  16.936  0.00  0.00    +0.000 A 
ATOM     13  C   UNL     1       3.970   5.544  17.667  0.00  0.00    +0.000 A 
ENDROOT
BRANCH   1  15
ATOM     14  N   UNL     1       1.396   2.508  22.221  0.00  0.00    +0.000 NA
ATOM     15  C   UNL     1       1.716   3.336  21.477  0.00  0.00    +0.000 C 
ENDBRANCH   1  15
BRANCH   3  16
ATOM     16  C   UNL     1       2.128   7.802  19.287  0.00  0.00    +0.000 C 
ATOM     17  O   UNL     1       2.662   8.423  18.373  0.00  0.00    +0.000 OA
BRANCH  16  18
ATOM     18  C   UNL     1       1.330   8.607  20.284  0.00  0.00    +0.000 A 
ATOM     19  C   UNL     1       1.499   8.480  21.669  0.00  0.00    +0.000 A 
ATOM     20  C   UNL     1       0.735   9.256  22.553  0.00  0.00    +0.000 A 
ATOM     21  C   UNL     1      -0.256  10.117  22.078  0.00  0.00    +0.000 A 
ATOM     22  C   UNL     1      -0.377  10.295  20.699  0.00  0.00    +0.000 A 
ATOM     23  C   UNL     1       0.390   9.532  19.806  0.00  0.00    +0.000 A 
BRANCH  21  24
ATOM     24  N   UNL     1      -0.956  10.943  22.964  0.00  0.00    +0.000 N 
ATOM     25  H   UNL     1      -1.951  11.001  22.770  0.00  0.00    +0.000 HD
ATOM     26  H   UNL     1      -0.541  11.864  23.077  0.00  0.00    +0.000 HD
ENDBRANCH  21  24
ENDBRANCH  16  18
ENDBRANCH   3  16
TORSDOF 4
ENDMDL
MODEL 3
REMARK VINA RESULT:      -6.9      1.482      3.983
REMARK  Name = 
REMARK  4 active torsions:
REMARK  status: ('A' for Active; 'I' for Inactive)
REMARK    1  A    between atoms: C_2  and  C_3
REMARK    2  A    between atoms: C_5  and  C_6
REMARK    3  A    between atoms: C_6  and  C_8
REMARK    4  A    between atoms: C_11  and  N_12
REMARK                            x       y       z     vdW  Elec       q    Type
REMARK                         _______ _______ _______ _____ _____    ______ ____
ROOT
ATOM      1  C   UNL     1       4.621   3.756  19.328  0.00  0.00    +0.000 A 
ATOM      2  C   UNL     1       5.400   4.121  18.227  0.00  0.00    +0.000 A 
ATOM      3  C   UNL     1       5.003   5.382  17.777  0.00  0.00    +0.000 A 
ATOM      4  N   UNL     1       3.914   5.781  18.581  0.00  0.00    +0.000 N 
ATOM      5  C   UNL     1       3.716   4.768  19.541  0.00  0.00    +0.000 A 
ATOM      6  C   UNL     1       2.699   4.893  20.523  0.00  0.00    +0.000 A 
ATOM      7  C   UNL     1       1.913   5.971  20.559  0.00  0.00    +0.000 A 
ATOM      8  C   UNL     1       2.087   7.043  19.583  0.00  0.00    +0.000 A 
ATOM      9  C   UNL     1       1.236   8.155  19.667  0.00  0.00    +0.000 A 
ATOM     10  C   UNL     1       1.364   9.201  18.762  0.00  0.00    +0.000 A 
ATOM     11  C   UNL     1       2.348   9.136  17.781  0.00  0.00    +0.000 A 
ATOM     12  C   UNL     1       3.214   8.033  17.698  0.00  0.00    +0.000 A 
ATOM     13  C   UNL     1       3.090   6.966  18.589  0.00  0.00    +0.000 A 
ENDROOT
BRANCH   1  15
ATOM     14  N   UNL     1       4.849   1.573  20.702  0.00  0.00    +0.000 NA
ATOM     15  C   UNL     1       4.742   2.553  20.093  0.00  0.00    +0.000 C 
ENDBRANCH   1  15
BRANCH   3  16
ATOM     16  C   UNL     1       5.621   6.035  16.628  0.00  0.00    +0.000 C 
ATOM     17  O   UNL     1       5.865   7.238  16.579  0.00  0.00    +0.000 OA
BRANCH  16  18
ATOM     18  C   UNL     1       5.865   5.237  15.370  0.00  0.00    +0.000 A 
ATOM     19  C   UNL     1       4.868   4.465  14.758  0.00  0.00    +0.000 A 
ATOM     20  C   UNL     1       5.146   3.746  13.587  0.00  0.00    +0.000 A 
ATOM     21  C   UNL     1       6.433   3.724  13.047  0.00  0.00    +0.000 A 
ATOM     22  C   UNL     1       7.406   4.547  13.615  0.00  0.00    +0.000 A 
ATOM     23  C   UNL     1       7.136   5.280  14.780  0.00  0.00    +0.000 A 
BRANCH  21  24
ATOM     24  N   UNL     1       6.678   3.068  11.836  0.00  0.00    +0.000 N 
ATOM     25  H   UNL     1       6.245   3.515  11.034  0.00  0.00    +0.000 HD
ATOM     26  H   UNL     1       6.477   2.072  11.864  0.00  0.00    +0.000 HD
ENDBRANCH  21  24
ENDBRANCH  16  18
ENDBRANCH   3  16
TORSDOF 4
ENDMDL
MODEL 4
REMARK VINA RESULT:      -6.9      6.180      9.311
REMARK  Name = 
REMARK  4 active torsions:
REMARK  status: ('A' for Active; 'I' for Inactive)
REMARK    1  A    between atoms: C_2  and  C_3
REMARK    2  A    between atoms: C_5  and  C_6
REMARK    3  A    between atoms: C_6  and  C_8
REMARK    4  A    between atoms: C_11  and  N_12
REMARK                            x       y       z     vdW  Elec       q    Type
REMARK                         _______ _______ _______ _____ _____    ______ ____
ROOT
ATOM      1  C   UNL     1      -2.767  10.779  16.702  0.00  0.00    +0.000 A 
ATOM      2  C   UNL     1      -1.428  10.671  17.087  0.00  0.00    +0.000 A 
ATOM      3  C   UNL     1      -1.279  11.159  18.386  0.00  0.00    +0.000 A 
ATOM      4  N   UNL     1      -2.544  11.634  18.794  0.00  0.00    +0.000 N 
ATOM      5  C   UNL     1      -3.444  11.366  17.743  0.00  0.00    +0.000 A 
ATOM      6  C   UNL     1      -4.817  11.705  17.865  0.00  0.00    +0.000 A 
ATOM      7  C   UNL     1      -5.283  12.280  18.975  0.00  0.00    +0.000 A 
ATOM      8  C   UNL     1      -4.384  12.572  20.088  0.00  0.00    +0.000 A 
ATOM      9  C   UNL     1      -4.925  13.175  21.233  0.00  0.00    +0.000 A 
ATOM     10  C   UNL     1      -4.109  13.471  22.317  0.00  0.00    +0.000 A 
ATOM     11  C   UNL     1      -2.755  13.156  22.257  0.00  0.00    +0.000 A 
ATOM     12  C   UNL     1      -2.207  12.540  21.120  0.00  0.00    +0.000 A 
ATOM     13  C   UNL     1      -3.009  12.249  20.015  0.00  0.00    +0.000 A 
ENDROOT
BRANCH   1  15
ATOM     14  N   UNL     1      -3.794  10.025  14.448  0.00  0.00    +0.000 NA
ATOM     15  C   UNL     1      -3.330  10.356  15.456  0.00  0.00    +0.000 C 
ENDBRANCH   1  15
BRANCH   3  16
ATOM     16  C   UNL     1       0.009  11.194  19.069  0.00  0.00    +0.000 C 
ATOM     17  O   UNL     1       0.587  12.232  19.381  0.00  0.00    +0.000 OA
BRANCH  16  18
ATOM     18  C   UNL     1       0.755   9.903  19.302  0.00  0.00    +0.000 A 
ATOM     19  C   UNL     1       1.538   9.292  18.312  0.00  0.00    +0.000 A 
ATOM     20  C   UNL     1       2.215   8.093  18.581  0.00  0.00    +0.000 A 
ATOM     21  C   UNL     1       2.069   7.447  19.810  0.00  0.00    +0.000 A 
ATOM     22  C   UNL     1       1.348   8.091  20.817  0.00  0.00    +0.000 A 
ATOM     23  C   UNL     1       0.676   9.295  20.563  0.00  0.00    +0.000 A 
BRANCH  21  24
ATOM     24  N   UNL     1       2.812   6.296  20.093  0.00  0.00    +0.000 N 
ATOM     25  H   UNL     1       2.610   5.518  19.474  0.00  0.00    +0.000 HD
ATOM     26  H   UNL     1       2.775   6.017  21.070  0.00  0.00    +0.000 HD
ENDBRANCH  21  24
ENDBRANCH  16  18
ENDBRANCH   3  16
TORSDOF 4
ENDMDL
MODEL 5
REMARK VINA RESULT:      -6.9      6.465      9.611
REMARK  Name = 
REMARK  4 active torsions:
REMARK  status: ('A' for Active; 'I' for Inactive)
REMARK    1  A    between atoms: C_2  and  C_3
REMARK    2  A    between atoms: C_5  and  C_6
REMARK    3  A    between atoms: C_6  and  C_8
REMARK    4  A    between atoms: C_11  and  N_12
REMARK                            x       y       z     vdW  Elec       q    Type
REMARK                         _______ _______ _______ _____ _____    ______ ____
ROOT
ATOM      1  C   UNL     1      -3.050  10.856  16.443  0.00  0.00    +0.000 A 
ATOM      2  C   UNL     1      -1.714  10.842  16.854  0.00  0.00    +0.000 A 
ATOM      3  C   UNL     1      -1.627  11.323  18.161  0.00  0.00    +0.000 A 
ATOM      4  N   UNL     1      -2.931  11.699  18.549  0.00  0.00    +0.000 N 
ATOM      5  C   UNL     1      -3.789  11.379  17.477  0.00  0.00    +0.000 A 
ATOM      6  C   UNL     1      -5.185  11.614  17.575  0.00  0.00    +0.000 A 
ATOM      7  C   UNL     1      -5.713  12.140  18.682  0.00  0.00    +0.000 A 
ATOM      8  C   UNL     1      -4.859  12.483  19.815  0.00  0.00    +0.000 A 
ATOM      9  C   UNL     1      -5.466  13.031  20.956  0.00  0.00    +0.000 A 
ATOM     10  C   UNL     1      -4.694  13.373  22.059  0.00  0.00    +0.000 A 
ATOM     11  C   UNL     1      -3.321  13.159  22.023  0.00  0.00    +0.000 A 
ATOM     12  C   UNL     1      -2.706  12.598  20.891  0.00  0.00    +0.000 A 
ATOM     13  C   UNL     1      -3.463  12.263  19.767  0.00  0.00    +0.000 A 
ENDROOT
BRANCH   1  15
ATOM     14  N   UNL     1      -3.974  10.037  14.167  0.00  0.00    +0.000 NA
ATOM     15  C   UNL     1      -3.556  10.408  15.181  0.00  0.00    +0.000 C 
ENDBRANCH   1  15
BRANCH   3  16
ATOM     16  C   UNL     1      -0.358  11.445  18.870  0.00  0.00    +0.000 C 
ATOM     17  O   UNL     1       0.201  12.517  19.087  0.00  0.00    +0.000 OA
BRANCH  16  18
ATOM     18  C   UNL     1       0.393  10.194  19.256  0.00  0.00    +0.000 A 
ATOM     19  C   UNL     1       0.289   9.609  20.526  0.00  0.00    +0.000 A 
ATOM     20  C   UNL     1       1.005   8.444  20.832  0.00  0.00    +0.000 A 
ATOM     21  C   UNL     1       1.889   7.881  19.909  0.00  0.00    +0.000 A 
ATOM     22  C   UNL     1       1.940   8.422  18.624  0.00  0.00    +0.000 A 
ATOM     23  C   UNL     1       1.219   9.581  18.303  0.00  0.00    +0.000 A 
BRANCH  21  24
ATOM     24  N   UNL     1       2.536   6.675  20.199  0.00  0.00    +0.000 N 
ATOM     25  H   UNL     1       2.274   6.276  21.095  0.00  0.00    +0.000 HD
ATOM     26  H   UNL     1       3.545   6.716  20.086  0.00  0.00    +0.000 HD
ENDBRANCH  21  24
ENDBRANCH  16  18
ENDBRANCH   3  16
TORSDOF 4
ENDMDL
MODEL 6
REMARK VINA RESULT:      -6.8      6.151      9.428
REMARK  Name = 
REMARK  4 active torsions:
REMARK  status: ('A' for Active; 'I' for Inactive)
REMARK    1  A    between atoms: C_2  and  C_3
REMARK    2  A    between atoms: C_5  and  C_6
REMARK    3  A    between atoms: C_6  and  C_8
REMARK    4  A    between atoms: C_11  and  N_12
REMARK                            x       y       z     vdW  Elec       q    Type
REMARK                         _______ _______ _______ _____ _____    ______ ____
ROOT
ATOM      1  C   UNL     1      -2.176  12.982  21.607  0.00  0.00    +0.000 A 
ATOM      2  C   UNL     1      -0.852  12.668  21.289  0.00  0.00    +0.000 A 
ATOM      3  C   UNL     1      -0.799  12.141  19.998  0.00  0.00    +0.000 A 
ATOM      4  N   UNL     1      -2.128  12.071  19.527  0.00  0.00    +0.000 N 
ATOM      5  C   UNL     1      -2.951  12.616  20.533  0.00  0.00    +0.000 A 
ATOM      6  C   UNL     1      -4.354  12.714  20.342  0.00  0.00    +0.000 A 
ATOM      7  C   UNL     1      -4.920  12.294  19.209  0.00  0.00    +0.000 A 
ATOM      8  C   UNL     1      -4.102  11.725  18.142  0.00  0.00    +0.000 A 
ATOM      9  C   UNL     1      -4.748  11.302  16.971  0.00  0.00    +0.000 A 
ATOM     10  C   UNL     1      -4.011  10.756  15.928  0.00  0.00    +0.000 A 
ATOM     11  C   UNL     1      -2.631  10.641  16.055  0.00  0.00    +0.000 A 
ATOM     12  C   UNL     1      -1.974  11.075  17.219  0.00  0.00    +0.000 A 
ATOM     13  C   UNL     1      -2.700  11.612  18.283  0.00  0.00    +0.000 A 
ENDROOT
BRANCH   1  15
ATOM     14  N   UNL     1      -3.004  14.049  23.816  0.00  0.00    +0.000 NA
ATOM     15  C   UNL     1      -2.641  13.573  22.825  0.00  0.00    +0.000 C 
ENDBRANCH   1  15
BRANCH   3  16
ATOM     16  C   UNL     1       0.448  11.703  19.379  0.00  0.00    +0.000 C 
ATOM     17  O   UNL     1       1.086  12.380  18.578  0.00  0.00    +0.000 OA
BRANCH  16  18
ATOM     18  C   UNL     1       0.935  10.295  19.622  0.00  0.00    +0.000 A 
ATOM     19  C   UNL     1       0.822   9.658  20.865  0.00  0.00    +0.000 A 
ATOM     20  C   UNL     1       1.287   8.347  21.036  0.00  0.00    +0.000 A 
ATOM     21  C   UNL     1       1.934   7.673  19.998  0.00  0.00    +0.000 A 
ATOM     22  C   UNL     1       1.984   8.280  18.742  0.00  0.00    +0.000 A 
ATOM     23  C   UNL     1       1.511   9.587  18.557  0.00  0.00    +0.000 A 
BRANCH  21  24
ATOM     24  N   UNL     1       2.321   6.338  20.158  0.00  0.00    +0.000 N 
ATOM     25  H   UNL     1       3.142   6.084  19.618  0.00  0.00    +0.000 HD
ATOM     26  H   UNL     1       1.563   5.675  20.024  0.00  0.00    +0.000 HD
ENDBRANCH  21  24
ENDBRANCH  16  18
ENDBRANCH   3  16
TORSDOF 4
ENDMDL
MODEL 7
REMARK VINA RESULT:      -6.8      2.361      6.849
REMARK  Name = 
REMARK  4 active torsions:
REMARK  status: ('A' for Active; 'I' for Inactive)
REMARK    1  A    between atoms: C_2  and  C_3
REMARK    2  A    between atoms: C_5  and  C_6
REMARK    3  A    between atoms: C_6  and  C_8
REMARK    4  A    between atoms: C_11  and  N_12
REMARK                            x       y       z     vdW  Elec       q    Type
REMARK                         _______ _______ _______ _____ _____    ______ ____
ROOT
ATOM      1  C   UNL     1       2.271   4.460  20.115  0.00  0.00    +0.000 A 
ATOM      2  C   UNL     1       2.083   5.840  19.995  0.00  0.00    +0.000 A 
ATOM      3  C   UNL     1       2.758   6.302  18.864  0.00  0.00    +0.000 A 
ATOM      4  N   UNL     1       3.429   5.194  18.304  0.00  0.00    +0.000 N 
ATOM      5  C   UNL     1       3.092   4.069  19.085  0.00  0.00    +0.000 A 
ATOM      6  C   UNL     1       3.594   2.784  18.752  0.00  0.00    +0.000 A 
ATOM      7  C   UNL     1       4.391   2.614  17.696  0.00  0.00    +0.000 A 
ATOM      8  C   UNL     1       4.762   3.753  16.861  0.00  0.00    +0.000 A 
ATOM      9  C   UNL     1       5.601   3.519  15.761  0.00  0.00    +0.000 A 
ATOM     10  C   UNL     1       5.980   4.571  14.937  0.00  0.00    +0.000 A 
ATOM     11  C   UNL     1       5.513   5.852  15.210  0.00  0.00    +0.000 A 
ATOM     12  C   UNL     1       4.662   6.094  16.301  0.00  0.00    +0.000 A 
ATOM     13  C   UNL     1       4.283   5.052  17.149  0.00  0.00    +0.000 A 
ENDROOT
BRANCH   1  15
ATOM     14  N   UNL     1       1.273   2.914  21.937  0.00  0.00    +0.000 NA
ATOM     15  C   UNL     1       1.713   3.610  21.122  0.00  0.00    +0.000 C 
ENDBRANCH   1  15
BRANCH   3  16
ATOM     16  C   UNL     1       2.764   7.708  18.474  0.00  0.00    +0.000 C 
ATOM     17  O   UNL     1       3.678   8.237  17.848  0.00  0.00    +0.000 OA
BRANCH  16  18
ATOM     18  C   UNL     1       1.660   8.613  18.964  0.00  0.00    +0.000 A 
ATOM     19  C   UNL     1       1.333   8.742  20.321  0.00  0.00    +0.000 A 
ATOM     20  C   UNL     1       0.300   9.601  20.724  0.00  0.00    +0.000 A 
ATOM     21  C   UNL     1      -0.469  10.289  19.784  0.00  0.00    +0.000 A 
ATOM     22  C   UNL     1      -0.099  10.215  18.440  0.00  0.00    +0.000 A 
ATOM     23  C   UNL     1       0.940   9.368  18.027  0.00  0.00    +0.000 A 
BRANCH  21  24
ATOM     24  N   UNL     1      -1.443  11.202  20.203  0.00  0.00    +0.000 N 
ATOM     25  H   UNL     1      -2.216  11.302  19.552  0.00  0.00    +0.000 HD
ATOM     26  H   UNL     1      -1.064  12.105  20.477  0.00  0.00    +0.000 HD
ENDBRANCH  21  24
ENDBRANCH  16  18
ENDBRANCH   3  16
TORSDOF 4
ENDMDL
MODEL 8
REMARK VINA RESULT:      -6.8      5.032      8.244
REMARK  Name = 
REMARK  4 active torsions:
REMARK  status: ('A' for Active; 'I' for Inactive)
REMARK    1  A    between atoms: C_2  and  C_3
REMARK    2  A    between atoms: C_5  and  C_6
REMARK    3  A    between atoms: C_6  and  C_8
REMARK    4  A    between atoms: C_11  and  N_12
REMARK                            x       y       z     vdW  Elec       q    Type
REMARK                         _______ _______ _______ _____ _____    ______ ____
ROOT
ATOM      1  C   UNL     1      -0.362  12.311  21.153  0.00  0.00    +0.000 A 
ATOM      2  C   UNL     1       0.752  11.644  20.638  0.00  0.00    +0.000 A 
ATOM      3  C   UNL     1       0.410  11.039  19.427  0.00  0.00    +0.000 A 
ATOM      4  N   UNL     1      -0.964  11.288  19.217  0.00  0.00    +0.000 N 
ATOM      5  C   UNL     1      -1.406  12.092  20.287  0.00  0.00    +0.000 A 
ATOM      6  C   UNL     1      -2.752  12.539  20.345  0.00  0.00    +0.000 A 
ATOM      7  C   UNL     1      -3.623  12.209  19.390  0.00  0.00    +0.000 A 
ATOM      8  C   UNL     1      -3.204  11.379  18.264  0.00  0.00    +0.000 A 
ATOM      9  C   UNL     1      -4.159  11.064  17.286  0.00  0.00    +0.000 A 
ATOM     10  C   UNL     1      -3.806  10.278  16.196  0.00  0.00    +0.000 A 
ATOM     11  C   UNL     1      -2.499   9.817  16.082  0.00  0.00    +0.000 A 
ATOM     12  C   UNL     1      -1.533  10.139  17.049  0.00  0.00    +0.000 A 
ATOM     13  C   UNL     1      -1.872  10.914  18.159  0.00  0.00    +0.000 A 
ENDROOT
BRANCH   1  15
ATOM     14  N   UNL     1      -0.438  13.712  23.330  0.00  0.00    +0.000 NA
ATOM     15  C   UNL     1      -0.410  13.081  22.359  0.00  0.00    +0.000 C 
ENDBRANCH   1  15
BRANCH   3  16
ATOM     16  C   UNL     1       1.359  10.252  18.647  0.00  0.00    +0.000 C 
ATOM     17  O   UNL     1       1.856  10.636  17.592  0.00  0.00    +0.000 OA
BRANCH  16  18
ATOM     18  C   UNL     1       1.666   8.836  19.070  0.00  0.00    +0.000 A 
ATOM     19  C   UNL     1       1.371   8.348  20.351  0.00  0.00    +0.000 A 
ATOM     20  C   UNL     1       1.673   7.022  20.693  0.00  0.00    +0.000 A 
ATOM     21  C   UNL     1       2.335   6.183  19.795  0.00  0.00    +0.000 A 
ATOM     22  C   UNL     1       2.565   6.646  18.498  0.00  0.00    +0.000 A 
ATOM     23  C   UNL     1       2.257   7.967  18.142  0.00  0.00    +0.000 A 
BRANCH  21  24
ATOM     24  N   UNL     1       2.558   4.840  20.119  0.00  0.00    +0.000 N 
ATOM     25  H   UNL     1       3.373   4.692  20.705  0.00  0.00    +0.000 HD
ATOM     26  H   UNL     1       2.557   4.220  19.314  0.00  0.00    +0.000 HD
ENDBRANCH  21  24
ENDBRANCH  16  18
ENDBRANCH   3  16
TORSDOF 4
ENDMDL
MODEL 9
REMARK VINA RESULT:      -6.8      5.222      8.514
REMARK  Name = 
REMARK  4 active torsions:
REMARK  status: ('A' for Active; 'I' for Inactive)
REMARK    1  A    between atoms: C_2  and  C_3
REMARK    2  A    between atoms: C_5  and  C_6
REMARK    3  A    between atoms: C_6  and  C_8
REMARK    4  A    between atoms: C_11  and  N_12
REMARK                            x       y       z     vdW  Elec       q    Type
REMARK                         _______ _______ _______ _____ _____    ______ ____
ROOT
ATOM      1  C   UNL     1      -0.584  12.430  21.373  0.00  0.00    +0.000 A 
ATOM      2  C   UNL     1       0.552  11.771  20.894  0.00  0.00    +0.000 A 
ATOM      3  C   UNL     1       0.258  11.174  19.667  0.00  0.00    +0.000 A 
ATOM      4  N   UNL     1      -1.107  11.419  19.408  0.00  0.00    +0.000 N 
ATOM      5  C   UNL     1      -1.593  12.213  20.466  0.00  0.00    +0.000 A 
ATOM      6  C   UNL     1      -2.942  12.654  20.477  0.00  0.00    +0.000 A 
ATOM      7  C   UNL     1      -3.775  12.328  19.487  0.00  0.00    +0.000 A 
ATOM      8  C   UNL     1      -3.311  11.508  18.372  0.00  0.00    +0.000 A 
ATOM      9  C   UNL     1      -4.227  11.196  17.356  0.00  0.00    +0.000 A 
ATOM     10  C   UNL     1      -3.830  10.420  16.274  0.00  0.00    +0.000 A 
ATOM     11  C   UNL     1      -2.518   9.965  16.206  0.00  0.00    +0.000 A 
ATOM     12  C   UNL     1      -1.590  10.283  17.212  0.00  0.00    +0.000 A 
ATOM     13  C   UNL     1      -1.974  11.049  18.314  0.00  0.00    +0.000 A 
ENDROOT
BRANCH   1  15
ATOM     14  N   UNL     1      -0.770  13.800  23.562  0.00  0.00    +0.000 NA
ATOM     15  C   UNL     1      -0.680  13.191  22.581  0.00  0.00    +0.000 C 
ENDBRANCH   1  15
BRANCH   3  16
ATOM     16  C   UNL     1       1.239  10.397  18.918  0.00  0.00    +0.000 C 
ATOM     17  O   UNL     1       1.759  10.782  17.874  0.00  0.00    +0.000 OA
BRANCH  16  18
ATOM     18  C   UNL     1       1.555   8.988  19.357  0.00  0.00    +0.000 A 
ATOM     19  C   UNL     1       2.258   8.083  18.551  0.00  0.00    +0.000 A 
ATOM     20  C   UNL     1       2.530   6.786  19.009  0.00  0.00    +0.000 A 
ATOM     21  C   UNL     1       2.047   6.345  20.243  0.00  0.00    +0.000 A 
ATOM     22  C   UNL     1       1.408   7.266  21.074  0.00  0.00    +0.000 A 
ATOM     23  C   UNL     1       1.141   8.570  20.630  0.00  0.00    +0.000 A 
BRANCH  21  24
ATOM     24  N   UNL     1       2.391   5.076  20.722  0.00  0.00    +0.000 N 
ATOM     25  H   UNL     1       2.269   4.971  21.724  0.00  0.00    +0.000 HD
ATOM     26  H   UNL     1       3.310   4.763  20.421  0.00  0.00    +0.000 HD
ENDBRANCH  21  24
ENDBRANCH  16  18
ENDBRANCH   3  16
TORSDOF 4
ENDMDL
