MODEL 1
REMARK VINA RESULT:      -7.9      0.000      0.000
REMARK  Name = 
REMARK  4 active torsions:
REMARK  status: ('A' for Active; 'I' for Inactive)
REMARK    1  A    between atoms: C_1  and  S_2
REMARK    2  A    between atoms: S_2  and  C_3
REMARK    3  A    between atoms: C_6  and  C_7
REMARK    4  A    between atoms: C_8  and  C_9
REMARK                            x       y       z     vdW  Elec       q    Type
REMARK                         _______ _______ _______ _____ _____    ______ ____
ROOT
ATOM      1  C   UNL     1       3.304   6.279  17.867  0.00  0.00    +0.000 C 
ATOM      2  C   UNL     1       3.315   4.943  18.083  0.00  0.00    +0.000 C 
ATOM      3  C   UNL     1       4.316   4.078  17.369  0.00  0.00    +0.000 C 
ATOM      4  O   UNL     1       4.316   2.858  17.487  0.00  0.00    +0.000 OA
ATOM      5  N   UNL     1       5.316   4.764  16.734  0.00  0.00    +0.000 N 
ATOM      6  C   UNL     1       6.590   4.169  16.410  0.00  0.00    +0.000 C 
ATOM      7  C   UNL     1       7.482   5.348  16.029  0.00  0.00    +0.000 C 
ATOM      8  C   UNL     1       6.614   6.600  16.205  0.00  0.00    +0.000 C 
ATOM      9  C   UNL     1       5.180   6.076  16.152  0.00  0.00    +0.000 C 
ATOM     10  C   UNL     1       4.149   6.975  16.827  0.00  0.00    +0.000 C 
ENDROOT
BRANCH   1  14
ATOM     11  C   UNL     1       0.996   8.977  20.263  0.00  0.00    +0.000 A 
ATOM     12  C   UNL     1       1.203   9.236  18.907  0.00  0.00    +0.000 A 
ATOM     13  C   UNL     1       1.961   8.355  18.133  0.00  0.00    +0.000 A 
ATOM     14  C   UNL     1       2.527   7.210  18.709  0.00  0.00    +0.000 A 
ATOM     15  C   UNL     1       2.344   6.965  20.071  0.00  0.00    +0.000 A 
ATOM     16  C   UNL     1       1.586   7.848  20.843  0.00  0.00    +0.000 A 
BRANCH  11  18
ATOM     17  C   UNL     1       0.279   9.398  22.876  0.00  0.00    +0.000 C 
ATOM     18  S   UNL     1      -0.000  10.098  21.227  0.00  0.00    +0.000 S 
ENDBRANCH  11  18
ENDBRANCH   1  14
BRANCH   2  19
ATOM     19  C   UNL     1       2.485   4.314  19.132  0.00  0.00    +0.000 A 
ATOM     20  C   UNL     1       2.959   4.168  20.435  0.00  0.00    +0.000 A 
ATOM     21  C   UNL     1       2.145   3.530  21.358  0.00  0.00    +0.000 A 
ATOM     22  N   UNL     1       0.918   3.044  21.074  0.00  0.00    +0.000 NA
ATOM     23  C   UNL     1       0.478   3.216  19.806  0.00  0.00    +0.000 A 
ATOM     24  C   UNL     1       1.211   3.838  18.818  0.00  0.00    +0.000 A 
ENDBRANCH   2  19
TORSDOF 3
ENDMDL
MODEL 2
REMARK VINA RESULT:      -7.7      0.300      1.029
REMARK  Name = 
REMARK  4 active torsions:
REMARK  status: ('A' for Active; 'I' for Inactive)
REMARK    1  A    between atoms: C_1  and  S_2
REMARK    2  A    between atoms: S_2  and  C_3
REMARK    3  A    between atoms: C_6  and  C_7
REMARK    4  A    between atoms: C_8  and  C_9
REMARK                            x       y       z     vdW  Elec       q    Type
REMARK                         _______ _______ _______ _____ _____    ______ ____
ROOT
ATOM      1  C   UNL     1       3.364   6.441  17.957  0.00  0.00    +0.000 C 
ATOM      2  C   UNL     1       3.398   5.105  18.171  0.00  0.00    +0.000 C 
ATOM      3  C   UNL     1       4.489   4.276  17.552  0.00  0.00    +0.000 C 
ATOM      4  O   UNL     1       4.516   3.056  17.668  0.00  0.00    +0.000 OA
ATOM      5  N   UNL     1       5.521   4.996  17.016  0.00  0.00    +0.000 N 
ATOM      6  C   UNL     1       6.838   4.443  16.812  0.00  0.00    +0.000 C 
ATOM      7  C   UNL     1       7.724   5.652  16.519  0.00  0.00    +0.000 C 
ATOM      8  C   UNL     1       6.804   6.874  16.614  0.00  0.00    +0.000 C 
ATOM      9  C   UNL     1       5.398   6.306  16.426  0.00  0.00    +0.000 C 
ATOM     10  C   UNL     1       4.280   7.169  17.003  0.00  0.00    +0.000 C 
ENDROOT
BRANCH   1  14
ATOM     11  C   UNL     1       0.858   9.067  20.231  0.00  0.00    +0.000 A 
ATOM     12  C   UNL     1       1.496   7.990  20.848  0.00  0.00    +0.000 A 
ATOM     13  C   UNL     1       2.307   7.133  20.099  0.00  0.00    +0.000 A 
ATOM     14  C   UNL     1       2.482   7.343  18.724  0.00  0.00    +0.000 A 
ATOM     15  C   UNL     1       1.822   8.404  18.102  0.00  0.00    +0.000 A 
ATOM     16  C   UNL     1       1.010   9.257  18.853  0.00  0.00    +0.000 A 
BRANCH  11  18
ATOM     17  C   UNL     1       0.047   9.379  22.831  0.00  0.00    +0.000 C 
ATOM     18  S   UNL     1      -0.149  10.165  21.210  0.00  0.00    +0.000 S 
ENDBRANCH  11  18
ENDBRANCH   1  14
BRANCH   2  19
ATOM     19  C   UNL     1       2.493   4.446  19.136  0.00  0.00    +0.000 A 
ATOM     20  C   UNL     1       2.844   4.315  20.479  0.00  0.00    +0.000 A 
ATOM     21  C   UNL     1       1.968   3.647  21.320  0.00  0.00    +0.000 A 
ATOM     22  N   UNL     1       0.792   3.117  20.920  0.00  0.00    +0.000 NA
ATOM     23  C   UNL     1       0.471   3.275  19.615  0.00  0.00    +0.000 A 
ATOM     24  C   UNL     1       1.273   3.924  18.701  0.00  0.00    +0.000 A 
ENDBRANCH   2  19
TORSDOF 3
ENDMDL
MODEL 3
REMARK VINA RESULT:      -7.5      0.633      1.169
REMARK  Name = 
REMARK  4 active torsions:
REMARK  status: ('A' for Active; 'I' for Inactive)
REMARK    1  A    between atoms: C_1  and  S_2
REMARK    2  A    between atoms: S_2  and  C_3
REMARK    3  A    between atoms: C_6  and  C_7
REMARK    4  A    between atoms: C_8  and  C_9
REMARK                            x       y       z     vdW  Elec       q    Type
REMARK                         _______ _______ _______ _____ _____    ______ ____
ROOT
ATOM      1  C   UNL     1       3.362   6.299  17.702  0.00  0.00    +0.000 C 
ATOM      2  C   UNL     1       3.371   4.966  17.935  0.00  0.00    +0.000 C 
ATOM      3  C   UNL     1       4.385   4.093  17.249  0.00  0.00    +0.000 C 
ATOM      4  O   UNL     1       4.383   2.874  17.383  0.00  0.00    +0.000 OA
ATOM      5  N   UNL     1       5.395   4.771  16.624  0.00  0.00    +0.000 N 
ATOM      6  C   UNL     1       6.675   4.174  16.330  0.00  0.00    +0.000 C 
ATOM      7  C   UNL     1       7.573   5.349  15.949  0.00  0.00    +0.000 C 
ATOM      8  C   UNL     1       6.701   6.601  16.094  0.00  0.00    +0.000 C 
ATOM      9  C   UNL     1       5.268   6.076  16.023  0.00  0.00    +0.000 C 
ATOM     10  C   UNL     1       4.225   6.983  16.668  0.00  0.00    +0.000 C 
ENDROOT
BRANCH   1  14
ATOM     11  C   UNL     1       1.010   9.022  20.025  0.00  0.00    +0.000 A 
ATOM     12  C   UNL     1       1.190   9.233  18.657  0.00  0.00    +0.000 A 
ATOM     13  C   UNL     1       1.963   8.345  17.906  0.00  0.00    +0.000 A 
ATOM     14  C   UNL     1       2.570   7.240  18.519  0.00  0.00    +0.000 A 
ATOM     15  C   UNL     1       2.413   7.043  19.892  0.00  0.00    +0.000 A 
ATOM     16  C   UNL     1       1.640   7.935  20.640  0.00  0.00    +0.000 A 
BRANCH  11  18
ATOM     17  C   UNL     1       1.001  11.651  20.805  0.00  0.00    +0.000 C 
ATOM     18  S   UNL     1      -0.006  10.151  20.959  0.00  0.00    +0.000 S 
ENDBRANCH  11  18
ENDBRANCH   1  14
BRANCH   2  19
ATOM     19  C   UNL     1       2.523   4.350  18.977  0.00  0.00    +0.000 A 
ATOM     20  C   UNL     1       1.255   3.854  18.676  0.00  0.00    +0.000 A 
ATOM     21  C   UNL     1       0.497   3.328  19.711  0.00  0.00    +0.000 A 
ATOM     22  N   UNL     1       0.912   3.263  20.994  0.00  0.00    +0.000 NA
ATOM     23  C   UNL     1       2.153   3.736  21.252  0.00  0.00    +0.000 A 
ATOM     24  C   UNL     1       2.984   4.275  20.293  0.00  0.00    +0.000 A 
ENDBRANCH   2  19
TORSDOF 3
ENDMDL
MODEL 4
REMARK VINA RESULT:      -7.5      0.594      1.545
REMARK  Name = 
REMARK  4 active torsions:
REMARK  status: ('A' for Active; 'I' for Inactive)
REMARK    1  A    between atoms: C_1  and  S_2
REMARK    2  A    between atoms: S_2  and  C_3
REMARK    3  A    between atoms: C_6  and  C_7
REMARK    4  A    between atoms: C_8  and  C_9
REMARK                            x       y       z     vdW  Elec       q    Type
REMARK                         _______ _______ _______ _____ _____    ______ ____
ROOT
ATOM      1  C   UNL     1       3.347   6.360  17.954  0.00  0.00    +0.000 C 
ATOM      2  C   UNL     1       3.375   5.015  18.106  0.00  0.00    +0.000 C 
ATOM      3  C   UNL     1       4.438   4.207  17.415  0.00  0.00    +0.000 C 
ATOM      4  O   UNL     1       4.457   2.982  17.474  0.00  0.00    +0.000 OA
ATOM      5  N   UNL     1       5.459   4.942  16.879  0.00  0.00    +0.000 N 
ATOM      6  C   UNL     1       6.764   4.389  16.608  0.00  0.00    +0.000 C 
ATOM      7  C   UNL     1       7.652   5.603  16.342  0.00  0.00    +0.000 C 
ATOM      8  C   UNL     1       6.746   6.827  16.522  0.00  0.00    +0.000 C 
ATOM      9  C   UNL     1       5.330   6.278  16.354  0.00  0.00    +0.000 C 
ATOM     10  C   UNL     1       4.239   7.123  17.005  0.00  0.00    +0.000 C 
ENDROOT
BRANCH   1  14
ATOM     11  C   UNL     1       0.938   8.896  20.426  0.00  0.00    +0.000 A 
ATOM     12  C   UNL     1       1.551   7.762  20.962  0.00  0.00    +0.000 A 
ATOM     13  C   UNL     1       2.330   6.936  20.149  0.00  0.00    +0.000 A 
ATOM     14  C   UNL     1       2.498   7.232  18.790  0.00  0.00    +0.000 A 
ATOM     15  C   UNL     1       1.863   8.351  18.247  0.00  0.00    +0.000 A 
ATOM     16  C   UNL     1       1.084   9.174  19.062  0.00  0.00    +0.000 A 
BRANCH  11  18
ATOM     17  C   UNL     1      -0.706  11.083  20.241  0.00  0.00    +0.000 C 
ATOM     18  S   UNL     1      -0.028   9.954  21.487  0.00  0.00    +0.000 S 
ENDBRANCH  11  18
ENDBRANCH   1  14
BRANCH   2  19
ATOM     19  C   UNL     1       2.496   4.319  19.069  0.00  0.00    +0.000 A 
ATOM     20  C   UNL     1       1.224   3.884  18.700  0.00  0.00    +0.000 A 
ATOM     21  C   UNL     1       0.436   3.276  19.665  0.00  0.00    +0.000 A 
ATOM     22  N   UNL     1       0.826   3.077  20.943  0.00  0.00    +0.000 NA
ATOM     23  C   UNL     1       2.072   3.494  21.266  0.00  0.00    +0.000 A 
ATOM     24  C   UNL     1       2.931   4.107  20.378  0.00  0.00    +0.000 A 
ENDBRANCH   2  19
TORSDOF 3
ENDMDL
MODEL 5
REMARK VINA RESULT:      -7.0      6.461      8.647
REMARK  Name = 
REMARK  4 active torsions:
REMARK  status: ('A' for Active; 'I' for Inactive)
REMARK    1  A    between atoms: C_1  and  S_2
REMARK    2  A    between atoms: S_2  and  C_3
REMARK    3  A    between atoms: C_6  and  C_7
REMARK    4  A    between atoms: C_8  and  C_9
REMARK                            x       y       z     vdW  Elec       q    Type
REMARK                         _______ _______ _______ _____ _____    ______ ____
ROOT
ATOM      1  C   UNL     1      -0.547  12.955  19.293  0.00  0.00    +0.000 C 
ATOM      2  C   UNL     1       0.305  12.454  20.218  0.00  0.00    +0.000 C 
ATOM      3  C   UNL     1       1.576  13.191  20.541  0.00  0.00    +0.000 C 
ATOM      4  O   UNL     1       2.403  12.737  21.324  0.00  0.00    +0.000 OA
ATOM      5  N   UNL     1       1.644  14.462  20.041  0.00  0.00    +0.000 N 
ATOM      6  C   UNL     1       2.505  15.478  20.597  0.00  0.00    +0.000 C 
ATOM      7  C   UNL     1       2.024  16.782  19.964  0.00  0.00    +0.000 C 
ATOM      8  C   UNL     1       0.840  16.398  19.070  0.00  0.00    +0.000 C 
ATOM      9  C   UNL     1       1.027  14.903  18.814  0.00  0.00    +0.000 C 
ATOM     10  C   UNL     1      -0.248  14.159  18.431  0.00  0.00    +0.000 C 
ENDROOT
BRANCH   1  14
ATOM     11  C   UNL     1      -4.533  11.488  18.753  0.00  0.00    +0.000 A 
ATOM     12  C   UNL     1      -4.246  12.390  19.779  0.00  0.00    +0.000 A 
ATOM     13  C   UNL     1      -2.942  12.860  19.953  0.00  0.00    +0.000 A 
ATOM     14  C   UNL     1      -1.912  12.426  19.107  0.00  0.00    +0.000 A 
ATOM     15  C   UNL     1      -2.194  11.504  18.099  0.00  0.00    +0.000 A 
ATOM     16  C   UNL     1      -3.499  11.034  17.928  0.00  0.00    +0.000 A 
BRANCH  11  18
ATOM     17  C   UNL     1      -6.859  11.257  20.188  0.00  0.00    +0.000 C 
ATOM     18  S   UNL     1      -6.210  10.923  18.528  0.00  0.00    +0.000 S 
ENDBRANCH  11  18
ENDBRANCH   1  14
BRANCH   2  19
ATOM     19  C   UNL     1      -0.047  11.288  21.054  0.00  0.00    +0.000 A 
ATOM     20  C   UNL     1      -0.607  11.450  22.320  0.00  0.00    +0.000 A 
ATOM     21  C   UNL     1      -0.873  10.314  23.068  0.00  0.00    +0.000 A 
ATOM     22  N   UNL     1      -0.626   9.055  22.643  0.00  0.00    +0.000 NA
ATOM     23  C   UNL     1      -0.099   8.929  21.403  0.00  0.00    +0.000 A 
ATOM     24  C   UNL     1       0.199   9.996  20.583  0.00  0.00    +0.000 A 
ENDBRANCH   2  19
TORSDOF 3
ENDMDL
MODEL 6
REMARK VINA RESULT:      -6.9      8.556     10.236
REMARK  Name = 
REMARK  4 active torsions:
REMARK  status: ('A' for Active; 'I' for Inactive)
REMARK    1  A    between atoms: C_1  and  S_2
REMARK    2  A    between atoms: S_2  and  C_3
REMARK    3  A    between atoms: C_6  and  C_7
REMARK    4  A    between atoms: C_8  and  C_9
REMARK                            x       y       z     vdW  Elec       q    Type
REMARK                         _______ _______ _______ _____ _____    ______ ____
ROOT
ATOM      1  C   UNL     1       8.465  12.507  22.268  0.00  0.00    +0.000 C 
ATOM      2  C   UNL     1       8.300  13.667  21.589  0.00  0.00    +0.000 C 
ATOM      3  C   UNL     1       8.795  13.781  20.174  0.00  0.00    +0.000 C 
ATOM      4  O   UNL     1       8.724  14.834  19.549  0.00  0.00    +0.000 OA
ATOM      5  N   UNL     1       9.156  12.595  19.595  0.00  0.00    +0.000 N 
ATOM      6  C   UNL     1       9.199  12.402  18.166  0.00  0.00    +0.000 C 
ATOM      7  C   UNL     1       9.321  10.891  17.983  0.00  0.00    +0.000 C 
ATOM      8  C   UNL     1       9.306  10.299  19.397  0.00  0.00    +0.000 C 
ATOM      9  C   UNL     1       9.706  11.465  20.300  0.00  0.00    +0.000 C 
ATOM     10  C   UNL     1       9.256  11.329  21.751  0.00  0.00    +0.000 C 
ENDROOT
BRANCH   1  14
ATOM     11  C   UNL     1       6.499  11.669  25.979  0.00  0.00    +0.000 A 
ATOM     12  C   UNL     1       5.873  11.377  24.767  0.00  0.00    +0.000 A 
ATOM     13  C   UNL     1       6.517  11.658  23.559  0.00  0.00    +0.000 A 
ATOM     14  C   UNL     1       7.791  12.242  23.554  0.00  0.00    +0.000 A 
ATOM     15  C   UNL     1       8.406  12.560  24.766  0.00  0.00    +0.000 A 
ATOM     16  C   UNL     1       7.759  12.278  25.972  0.00  0.00    +0.000 A 
BRANCH  11  18
ATOM     17  C   UNL     1       4.319  10.259  26.860  0.00  0.00    +0.000 C 
ATOM     18  S   UNL     1       5.672  11.275  27.509  0.00  0.00    +0.000 S 
ENDBRANCH  11  18
ENDBRANCH   1  14
BRANCH   2  19
ATOM     19  C   UNL     1       7.494  14.781  22.130  0.00  0.00    +0.000 A 
ATOM     20  C   UNL     1       6.128  14.877  21.867  0.00  0.00    +0.000 A 
ATOM     21  C   UNL     1       5.442  15.971  22.370  0.00  0.00    +0.000 A 
ATOM     22  N   UNL     1       6.015  16.951  23.103  0.00  0.00    +0.000 NA
ATOM     23  C   UNL     1       7.337  16.821  23.356  0.00  0.00    +0.000 A 
ATOM     24  C   UNL     1       8.106  15.770  22.903  0.00  0.00    +0.000 A 
ENDBRANCH   2  19
TORSDOF 3
ENDMDL
MODEL 7
REMARK VINA RESULT:      -6.8      6.500      8.818
REMARK  Name = 
REMARK  4 active torsions:
REMARK  status: ('A' for Active; 'I' for Inactive)
REMARK    1  A    between atoms: C_1  and  S_2
REMARK    2  A    between atoms: S_2  and  C_3
REMARK    3  A    between atoms: C_6  and  C_7
REMARK    4  A    between atoms: C_8  and  C_9
REMARK                            x       y       z     vdW  Elec       q    Type
REMARK                         _______ _______ _______ _____ _____    ______ ____
ROOT
ATOM      1  C   UNL     1      -0.481  13.161  19.379  0.00  0.00    +0.000 C 
ATOM      2  C   UNL     1       0.386  12.634  20.275  0.00  0.00    +0.000 C 
ATOM      3  C   UNL     1       1.653  13.370  20.611  0.00  0.00    +0.000 C 
ATOM      4  O   UNL     1       2.495  12.895  21.366  0.00  0.00    +0.000 OA
ATOM      5  N   UNL     1       1.704  14.660  20.158  0.00  0.00    +0.000 N 
ATOM      6  C   UNL     1       2.561  15.662  20.743  0.00  0.00    +0.000 C 
ATOM      7  C   UNL     1       2.062  16.985  20.166  0.00  0.00    +0.000 C 
ATOM      8  C   UNL     1       0.870  16.623  19.271  0.00  0.00    +0.000 C 
ATOM      9  C   UNL     1       1.069  15.141  18.957  0.00  0.00    +0.000 C 
ATOM     10  C   UNL     1      -0.204  14.399  18.560  0.00  0.00    +0.000 C 
ENDROOT
BRANCH   1  14
ATOM     11  C   UNL     1      -4.407  11.542  18.825  0.00  0.00    +0.000 A 
ATOM     12  C   UNL     1      -3.372  11.198  17.955  0.00  0.00    +0.000 A 
ATOM     13  C   UNL     1      -2.095  11.734  18.138  0.00  0.00    +0.000 A 
ATOM     14  C   UNL     1      -1.844  12.626  19.189  0.00  0.00    +0.000 A 
ATOM     15  C   UNL     1      -2.886  12.992  20.043  0.00  0.00    +0.000 A 
ATOM     16  C   UNL     1      -4.162  12.455  19.857  0.00  0.00    +0.000 A 
BRANCH  11  18
ATOM     17  C   UNL     1      -6.866  12.233  17.825  0.00  0.00    +0.000 C 
ATOM     18  S   UNL     1      -6.022  10.823  18.593  0.00  0.00    +0.000 S 
ENDBRANCH  11  18
ENDBRANCH   1  14
BRANCH   2  19
ATOM     19  C   UNL     1       0.055  11.433  21.070  0.00  0.00    +0.000 A 
ATOM     20  C   UNL     1       0.308  10.152  20.581  0.00  0.00    +0.000 A 
ATOM     21  C   UNL     1      -0.068   9.069  21.361  0.00  0.00    +0.000 A 
ATOM     22  N   UNL     1      -0.662   9.179  22.569  0.00  0.00    +0.000 NA
ATOM     23  C   UNL     1      -0.879  10.435  23.025  0.00  0.00    +0.000 A 
ATOM     24  C   UNL     1      -0.540  11.573  22.325  0.00  0.00    +0.000 A 
ENDBRANCH   2  19
TORSDOF 3
ENDMDL
MODEL 8
REMARK VINA RESULT:      -6.8      6.977      8.765
REMARK  Name = 
REMARK  4 active torsions:
REMARK  status: ('A' for Active; 'I' for Inactive)
REMARK    1  A    between atoms: C_1  and  S_2
REMARK    2  A    between atoms: S_2  and  C_3
REMARK    3  A    between atoms: C_6  and  C_7
REMARK    4  A    between atoms: C_8  and  C_9
REMARK                            x       y       z     vdW  Elec       q    Type
REMARK                         _______ _______ _______ _____ _____    ______ ____
ROOT
ATOM      1  C   UNL     1       1.220  12.740  19.338  0.00  0.00    +0.000 C 
ATOM      2  C   UNL     1       1.124  13.177  20.615  0.00  0.00    +0.000 C 
ATOM      3  C   UNL     1       2.108  14.189  21.135  0.00  0.00    +0.000 C 
ATOM      4  O   UNL     1       2.095  14.560  22.303  0.00  0.00    +0.000 OA
ATOM      5  N   UNL     1       2.883  14.780  20.175  0.00  0.00    +0.000 N 
ATOM      6  C   UNL     1       3.523  16.059  20.363  0.00  0.00    +0.000 C 
ATOM      7  C   UNL     1       3.987  16.469  18.967  0.00  0.00    +0.000 C 
ATOM      8  C   UNL     1       3.524  15.348  18.030  0.00  0.00    +0.000 C 
ATOM      9  C   UNL     1       3.310  14.148  18.951  0.00  0.00    +0.000 C 
ATOM     10  C   UNL     1       2.355  13.090  18.406  0.00  0.00    +0.000 C 
ENDROOT
BRANCH   1  14
ATOM     11  C   UNL     1      -1.869  10.489  17.406  0.00  0.00    +0.000 A 
ATOM     12  C   UNL     1      -2.001  11.868  17.576  0.00  0.00    +0.000 A 
ATOM     13  C   UNL     1      -0.993  12.595  18.213  0.00  0.00    +0.000 A 
ATOM     14  C   UNL     1       0.155  11.948  18.691  0.00  0.00    +0.000 A 
ATOM     15  C   UNL     1       0.275  10.565  18.546  0.00  0.00    +0.000 A 
ATOM     16  C   UNL     1      -0.736   9.840  17.911  0.00  0.00    +0.000 A 
BRANCH  11  18
ATOM     17  C   UNL     1      -3.046  10.364  14.932  0.00  0.00    +0.000 C 
ATOM     18  S   UNL     1      -3.154   9.583  16.565  0.00  0.00    +0.000 S 
ENDBRANCH  11  18
ENDBRANCH   1  14
BRANCH   2  19
ATOM     19  C   UNL     1      -0.023  12.824  21.478  0.00  0.00    +0.000 A 
ATOM     20  C   UNL     1      -1.039  13.742  21.737  0.00  0.00    +0.000 A 
ATOM     21  C   UNL     1      -2.063  13.359  22.590  0.00  0.00    +0.000 A 
ATOM     22  N   UNL     1      -2.138  12.149  23.184  0.00  0.00    +0.000 NA
ATOM     23  C   UNL     1      -1.146  11.273  22.899  0.00  0.00    +0.000 A 
ATOM     24  C   UNL     1      -0.088  11.559  22.064  0.00  0.00    +0.000 A 
ENDBRANCH   2  19
TORSDOF 3
ENDMDL
MODEL 9
REMARK VINA RESULT:      -6.7      8.850     10.454
REMARK  Name = 
REMARK  4 active torsions:
REMARK  status: ('A' for Active; 'I' for Inactive)
REMARK    1  A    between atoms: C_1  and  S_2
REMARK    2  A    between atoms: S_2  and  C_3
REMARK    3  A    between atoms: C_6  and  C_7
REMARK    4  A    between atoms: C_8  and  C_9
REMARK                            x       y       z     vdW  Elec       q    Type
REMARK                         _______ _______ _______ _____ _____    ______ ____
ROOT
ATOM      1  C   UNL     1       8.737  12.445  22.344  0.00  0.00    +0.000 C 
ATOM      2  C   UNL     1       8.867  13.665  21.771  0.00  0.00    +0.000 C 
ATOM      3  C   UNL     1       9.463  13.785  20.396  0.00  0.00    +0.000 C 
ATOM      4  O   UNL     1       9.658  14.876  19.871  0.00  0.00    +0.000 OA
ATOM      5  N   UNL     1       9.597  12.601  19.724  0.00  0.00    +0.000 N 
ATOM      6  C   UNL     1       9.686  12.523  18.286  0.00  0.00    +0.000 C 
ATOM      7  C   UNL     1       9.492  11.042  17.966  0.00  0.00    +0.000 C 
ATOM      8  C   UNL     1       9.262  10.353  19.316  0.00  0.00    +0.000 C 
ATOM      9  C   UNL     1       9.846  11.323  20.341  0.00  0.00    +0.000 C 
ATOM     10  C   UNL     1       9.287  11.169  21.753  0.00  0.00    +0.000 C 
ENDROOT
BRANCH   1  14
ATOM     11  C   UNL     1       6.417  11.749  25.876  0.00  0.00    +0.000 A 
ATOM     12  C   UNL     1       5.859  11.544  24.613  0.00  0.00    +0.000 A 
ATOM     13  C   UNL     1       6.619  11.779  23.465  0.00  0.00    +0.000 A 
ATOM     14  C   UNL     1       7.943  12.228  23.570  0.00  0.00    +0.000 A 
ATOM     15  C   UNL     1       8.492  12.459  24.832  0.00  0.00    +0.000 A 
ATOM     16  C   UNL     1       7.729  12.225  25.978  0.00  0.00    +0.000 A 
BRANCH  11  18
ATOM     17  C   UNL     1       4.289  10.197  26.638  0.00  0.00    +0.000 C 
ATOM     18  S   UNL     1       5.440  11.415  27.330  0.00  0.00    +0.000 S 
ENDBRANCH  11  18
ENDBRANCH   1  14
BRANCH   2  19
ATOM     19  C   UNL     1       8.287  14.880  22.380  0.00  0.00    +0.000 A 
ATOM     20  C   UNL     1       9.032  15.679  23.246  0.00  0.00    +0.000 A 
ATOM     21  C   UNL     1       8.412  16.780  23.816  0.00  0.00    +0.000 A 
ATOM     22  N   UNL     1       7.128  17.129  23.581  0.00  0.00    +0.000 NA
ATOM     23  C   UNL     1       6.436  16.345  22.722  0.00  0.00    +0.000 A 
ATOM     24  C   UNL     1       6.964  15.231  22.105  0.00  0.00    +0.000 A 
ENDBRANCH   2  19
TORSDOF 3
ENDMDL
