MODEL 1
REMARK VINA RESULT:      -8.7      0.000      0.000
REMARK  Name = 
REMARK  5 active torsions:
REMARK  status: ('A' for Active; 'I' for Inactive)
REMARK    1  A    between atoms: C_1  and  C_2
REMARK    2  A    between atoms: C_2  and  C_3
REMARK    3  A    between atoms: C_2  and  N_9
REMARK    4  A    between atoms: C_13  and  C_14
REMARK    5  A    between atoms: C_14  and  C_15
REMARK                            x       y       z     vdW  Elec       q    Type
REMARK                         _______ _______ _______ _____ _____    ______ ____
ROOT
ATOM      1  N   UNL     1       6.216   5.258  17.030  0.00  0.00    +0.000 N 
ATOM      2  C   UNL     1       7.404   4.567  17.139  0.00  0.00    +0.000 A 
ATOM      3  N   UNL     1       7.755   4.463  18.407  0.00  0.00    +0.000 NA
ATOM      4  N   UNL     1       6.784   5.064  19.135  0.00  0.00    +0.000 NA
ATOM      5  C   UNL     1       5.842   5.531  18.316  0.00  0.00    +0.000 A 
ENDROOT
BRANCH   1   7
ATOM      6  C   UNL     1       4.960   6.772  15.553  0.00  0.00    +0.000 C 
ATOM      7  C   UNL     1       5.515   5.365  15.746  0.00  0.00    +0.000 C 
BRANCH   7   8
ATOM      8  C   UNL     1       6.183   4.749  14.502  0.00  0.00    +0.000 A 
ATOM      9  C   UNL     1       7.322   5.336  13.921  0.00  0.00    +0.000 A 
ATOM     10  C   UNL     1       7.761   4.969  12.645  0.00  0.00    +0.000 A 
ATOM     11  C   UNL     1       7.086   3.993  11.928  0.00  0.00    +0.000 A 
ATOM     12  C   UNL     1       5.990   3.353  12.505  0.00  0.00    +0.000 A 
ATOM     13  C   UNL     1       5.544   3.724  13.785  0.00  0.00    +0.000 A 
ENDBRANCH   7   8
ENDBRANCH   1   7
BRANCH   5  14
ATOM     14  C   UNL     1       4.721   6.378  18.765  0.00  0.00    +0.000 C 
BRANCH  14  15
ATOM     15  C   UNL     1       3.391   5.759  19.019  0.00  0.00    +0.000 A 
ATOM     16  C   UNL     1       2.426   6.403  19.778  0.00  0.00    +0.000 A 
ATOM     17  N   UNL     1       1.776   5.397  20.439  0.00  0.00    +0.000 N 
ATOM     18  C   UNL     1       1.763   4.292  19.633  0.00  0.00    +0.000 A 
ATOM     19  C   UNL     1       0.931   3.164  19.680  0.00  0.00    +0.000 A 
ATOM     20  C   UNL     1       1.163   2.175  18.727  0.00  0.00    +0.000 A 
ATOM     21  C   UNL     1       2.233   2.266  17.852  0.00  0.00    +0.000 A 
ATOM     22  C   UNL     1       3.114   3.372  17.878  0.00  0.00    +0.000 A 
ATOM     23  C   UNL     1       2.833   4.452  18.740  0.00  0.00    +0.000 A 
ATOM     24  H   UNL     1       1.360   5.468  21.356  0.00  0.00    +0.000 HD
ENDBRANCH  14  15
ENDBRANCH   5  14
TORSDOF 4
ENDMDL
MODEL 2
REMARK VINA RESULT:      -8.7      1.929      3.747
REMARK  Name = 
REMARK  5 active torsions:
REMARK  status: ('A' for Active; 'I' for Inactive)
REMARK    1  A    between atoms: C_1  and  C_2
REMARK    2  A    between atoms: C_2  and  C_3
REMARK    3  A    between atoms: C_2  and  N_9
REMARK    4  A    between atoms: C_13  and  C_14
REMARK    5  A    between atoms: C_14  and  C_15
REMARK                            x       y       z     vdW  Elec       q    Type
REMARK                         _______ _______ _______ _____ _____    ______ ____
ROOT
ATOM      1  N   UNL     1       5.568   5.722  16.599  0.00  0.00    +0.000 N 
ATOM      2  C   UNL     1       6.922   5.981  16.620  0.00  0.00    +0.000 A 
ATOM      3  N   UNL     1       7.146   7.198  17.079  0.00  0.00    +0.000 NA
ATOM      4  N   UNL     1       5.939   7.731  17.384  0.00  0.00    +0.000 NA
ATOM      5  C   UNL     1       4.982   6.844  17.115  0.00  0.00    +0.000 A 
ENDROOT
BRANCH   1   7
ATOM      6  C   UNL     1       5.768   3.797  15.080  0.00  0.00    +0.000 C 
ATOM      7  C   UNL     1       5.056   4.382  16.295  0.00  0.00    +0.000 C 
BRANCH   7   8
ATOM      8  C   UNL     1       4.849   3.403  17.466  0.00  0.00    +0.000 A 
ATOM      9  C   UNL     1       4.157   2.190  17.288  0.00  0.00    +0.000 A 
ATOM     10  C   UNL     1       3.710   1.439  18.380  0.00  0.00    +0.000 A 
ATOM     11  C   UNL     1       3.962   1.868  19.674  0.00  0.00    +0.000 A 
ATOM     12  C   UNL     1       4.698   3.035  19.878  0.00  0.00    +0.000 A 
ATOM     13  C   UNL     1       5.143   3.795  18.783  0.00  0.00    +0.000 A 
ENDBRANCH   7   8
ENDBRANCH   1   7
BRANCH   5  14
ATOM     14  C   UNL     1       3.541   7.156  17.181  0.00  0.00    +0.000 C 
BRANCH  14  15
ATOM     15  C   UNL     1       2.732   6.638  18.317  0.00  0.00    +0.000 A 
ATOM     16  C   UNL     1       2.647   7.325  19.518  0.00  0.00    +0.000 A 
ATOM     17  N   UNL     1       2.567   6.348  20.472  0.00  0.00    +0.000 N 
ATOM     18  C   UNL     1       1.889   5.285  19.943  0.00  0.00    +0.000 A 
ATOM     19  C   UNL     1       1.237   4.228  20.594  0.00  0.00    +0.000 A 
ATOM     20  C   UNL     1       0.638   3.267  19.784  0.00  0.00    +0.000 A 
ATOM     21  C   UNL     1       0.780   3.307  18.407  0.00  0.00    +0.000 A 
ATOM     22  C   UNL     1       1.516   4.335  17.772  0.00  0.00    +0.000 A 
ATOM     23  C   UNL     1       2.025   5.395  18.550  0.00  0.00    +0.000 A 
ATOM     24  H   UNL     1       2.928   6.413  21.413  0.00  0.00    +0.000 HD
ENDBRANCH  14  15
ENDBRANCH   5  14
TORSDOF 4
ENDMDL
MODEL 3
REMARK VINA RESULT:      -8.6      1.940      6.484
REMARK  Name = 
REMARK  5 active torsions:
REMARK  status: ('A' for Active; 'I' for Inactive)
REMARK    1  A    between atoms: C_1  and  C_2
REMARK    2  A    between atoms: C_2  and  C_3
REMARK    3  A    between atoms: C_2  and  N_9
REMARK    4  A    between atoms: C_13  and  C_14
REMARK    5  A    between atoms: C_14  and  C_15
REMARK                            x       y       z     vdW  Elec       q    Type
REMARK                         _______ _______ _______ _____ _____    ______ ____
ROOT
ATOM      1  N   UNL     1       3.897   3.811  18.888  0.00  0.00    +0.000 N 
ATOM      2  C   UNL     1       3.692   2.707  19.687  0.00  0.00    +0.000 A 
ATOM      3  N   UNL     1       3.642   1.614  18.950  0.00  0.00    +0.000 NA
ATOM      4  N   UNL     1       3.839   1.996  17.666  0.00  0.00    +0.000 NA
ATOM      5  C   UNL     1       4.012   3.316  17.619  0.00  0.00    +0.000 A 
ENDROOT
BRANCH   1   7
ATOM      6  C   UNL     1       5.645   5.475  19.364  0.00  0.00    +0.000 C 
ATOM      7  C   UNL     1       4.163   5.131  19.469  0.00  0.00    +0.000 C 
BRANCH   7   8
ATOM      8  C   UNL     1       3.198   6.282  19.125  0.00  0.00    +0.000 A 
ATOM      9  C   UNL     1       3.339   7.019  17.934  0.00  0.00    +0.000 A 
ATOM     10  C   UNL     1       2.671   8.233  17.744  0.00  0.00    +0.000 A 
ATOM     11  C   UNL     1       1.831   8.729  18.729  0.00  0.00    +0.000 A 
ATOM     12  C   UNL     1       1.627   7.988  19.893  0.00  0.00    +0.000 A 
ATOM     13  C   UNL     1       2.301   6.772  20.089  0.00  0.00    +0.000 A 
ENDBRANCH   7   8
ENDBRANCH   1   7
BRANCH   5  14
ATOM     14  C   UNL     1       4.092   4.082  16.360  0.00  0.00    +0.000 C 
BRANCH  14  15
ATOM     15  C   UNL     1       5.405   4.223  15.672  0.00  0.00    +0.000 A 
ATOM     16  C   UNL     1       6.529   4.678  16.343  0.00  0.00    +0.000 A 
ATOM     17  N   UNL     1       7.223   5.397  15.409  0.00  0.00    +0.000 N 
ATOM     18  C   UNL     1       7.023   4.819  14.187  0.00  0.00    +0.000 A 
ATOM     19  C   UNL     1       7.778   4.935  13.010  0.00  0.00    +0.000 A 
ATOM     20  C   UNL     1       7.318   4.233  11.899  0.00  0.00    +0.000 A 
ATOM     21  C   UNL     1       6.116   3.546  11.937  0.00  0.00    +0.000 A 
ATOM     22  C   UNL     1       5.324   3.512  13.110  0.00  0.00    +0.000 A 
ATOM     23  C   UNL     1       5.822   4.101  14.290  0.00  0.00    +0.000 A 
ATOM     24  H   UNL     1       7.801   6.204  15.597  0.00  0.00    +0.000 HD
ENDBRANCH  14  15
ENDBRANCH   5  14
TORSDOF 4
ENDMDL
MODEL 4
REMARK VINA RESULT:      -8.6      2.371      4.530
REMARK  Name = 
REMARK  5 active torsions:
REMARK  status: ('A' for Active; 'I' for Inactive)
REMARK    1  A    between atoms: C_1  and  C_2
REMARK    2  A    between atoms: C_2  and  C_3
REMARK    3  A    between atoms: C_2  and  N_9
REMARK    4  A    between atoms: C_13  and  C_14
REMARK    5  A    between atoms: C_14  and  C_15
REMARK                            x       y       z     vdW  Elec       q    Type
REMARK                         _______ _______ _______ _____ _____    ______ ____
ROOT
ATOM      1  N   UNL     1       5.716   5.842  17.855  0.00  0.00    +0.000 N 
ATOM      2  C   UNL     1       6.806   6.147  18.642  0.00  0.00    +0.000 A 
ATOM      3  N   UNL     1       7.471   5.047  18.944  0.00  0.00    +0.000 NA
ATOM      4  N   UNL     1       6.831   4.021  18.334  0.00  0.00    +0.000 NA
ATOM      5  C   UNL     1       5.782   4.491  17.661  0.00  0.00    +0.000 A 
ENDROOT
BRANCH   1   7
ATOM      6  C   UNL     1       4.834   6.704  15.726  0.00  0.00    +0.000 C 
ATOM      7  C   UNL     1       4.907   6.898  17.237  0.00  0.00    +0.000 C 
BRANCH   7   8
ATOM      8  C   UNL     1       3.576   7.279  17.912  0.00  0.00    +0.000 A 
ATOM      9  C   UNL     1       2.776   8.322  17.408  0.00  0.00    +0.000 A 
ATOM     10  C   UNL     1       1.732   8.869  18.161  0.00  0.00    +0.000 A 
ATOM     11  C   UNL     1       1.449   8.375  19.425  0.00  0.00    +0.000 A 
ATOM     12  C   UNL     1       2.188   7.303  19.924  0.00  0.00    +0.000 A 
ATOM     13  C   UNL     1       3.241   6.755  19.172  0.00  0.00    +0.000 A 
ENDBRANCH   7   8
ENDBRANCH   1   7
BRANCH   5  14
ATOM     14  C   UNL     1       4.777   3.626  17.013  0.00  0.00    +0.000 C 
BRANCH  14  15
ATOM     15  C   UNL     1       3.454   3.428  17.664  0.00  0.00    +0.000 A 
ATOM     16  C   UNL     1       2.271   3.571  16.956  0.00  0.00    +0.000 A 
ATOM     17  N   UNL     1       1.387   4.093  17.860  0.00  0.00    +0.000 N 
ATOM     18  C   UNL     1       1.693   3.597  19.096  0.00  0.00    +0.000 A 
ATOM     19  C   UNL     1       0.900   3.524  20.251  0.00  0.00    +0.000 A 
ATOM     20  C   UNL     1       1.492   2.975  21.385  0.00  0.00    +0.000 A 
ATOM     21  C   UNL     1       2.832   2.622  21.388  0.00  0.00    +0.000 A 
ATOM     22  C   UNL     1       3.639   2.784  20.238  0.00  0.00    +0.000 A 
ATOM     23  C   UNL     1       3.042   3.214  19.036  0.00  0.00    +0.000 A 
ATOM     24  H   UNL     1       0.625   4.721  17.644  0.00  0.00    +0.000 HD
ENDBRANCH  14  15
ENDBRANCH   5  14
TORSDOF 4
ENDMDL
MODEL 5
REMARK VINA RESULT:      -8.5      1.892      6.168
REMARK  Name = 
REMARK  5 active torsions:
REMARK  status: ('A' for Active; 'I' for Inactive)
REMARK    1  A    between atoms: C_1  and  C_2
REMARK    2  A    between atoms: C_2  and  C_3
REMARK    3  A    between atoms: C_2  and  N_9
REMARK    4  A    between atoms: C_13  and  C_14
REMARK    5  A    between atoms: C_14  and  C_15
REMARK                            x       y       z     vdW  Elec       q    Type
REMARK                         _______ _______ _______ _____ _____    ______ ____
ROOT
ATOM      1  N   UNL     1       3.495   3.836  18.717  0.00  0.00    +0.000 N 
ATOM      2  C   UNL     1       3.076   2.559  19.024  0.00  0.00    +0.000 A 
ATOM      3  N   UNL     1       3.997   1.937  19.736  0.00  0.00    +0.000 NA
ATOM      4  N   UNL     1       5.012   2.815  19.920  0.00  0.00    +0.000 NA
ATOM      5  C   UNL     1       4.712   3.969  19.325  0.00  0.00    +0.000 A 
ENDROOT
BRANCH   1   7
ATOM      6  C   UNL     1       1.288   4.122  17.667  0.00  0.00    +0.000 C 
ATOM      7  C   UNL     1       2.590   4.799  18.080  0.00  0.00    +0.000 C 
BRANCH   7   8
ATOM      8  C   UNL     1       2.428   6.184  18.736  0.00  0.00    +0.000 A 
ATOM      9  C   UNL     1       2.038   6.310  20.083  0.00  0.00    +0.000 A 
ATOM     10  C   UNL     1       1.607   7.533  20.605  0.00  0.00    +0.000 A 
ATOM     11  C   UNL     1       1.575   8.663  19.802  0.00  0.00    +0.000 A 
ATOM     12  C   UNL     1       2.013   8.579  18.481  0.00  0.00    +0.000 A 
ATOM     13  C   UNL     1       2.441   7.349  17.952  0.00  0.00    +0.000 A 
ENDBRANCH   7   8
ENDBRANCH   1   7
BRANCH   5  14
ATOM     14  C   UNL     1       5.664   5.089  19.195  0.00  0.00    +0.000 C 
BRANCH  14  15
ATOM     15  C   UNL     1       6.468   5.224  17.950  0.00  0.00    +0.000 A 
ATOM     16  C   UNL     1       7.563   6.072  17.885  0.00  0.00    +0.000 A 
ATOM     17  N   UNL     1       7.556   6.550  16.603  0.00  0.00    +0.000 N 
ATOM     18  C   UNL     1       7.070   5.570  15.782  0.00  0.00    +0.000 A 
ATOM     19  C   UNL     1       7.205   5.420  14.394  0.00  0.00    +0.000 A 
ATOM     20  C   UNL     1       6.579   4.317  13.819  0.00  0.00    +0.000 A 
ATOM     21  C   UNL     1       5.777   3.479  14.576  0.00  0.00    +0.000 A 
ATOM     22  C   UNL     1       5.582   3.697  15.960  0.00  0.00    +0.000 A 
ATOM     23  C   UNL     1       6.304   4.725  16.600  0.00  0.00    +0.000 A 
ATOM     24  H   UNL     1       7.877   7.462  16.313  0.00  0.00    +0.000 HD
ENDBRANCH  14  15
ENDBRANCH   5  14
TORSDOF 4
ENDMDL
MODEL 6
REMARK VINA RESULT:      -8.4      0.973      1.554
REMARK  Name = 
REMARK  5 active torsions:
REMARK  status: ('A' for Active; 'I' for Inactive)
REMARK    1  A    between atoms: C_1  and  C_2
REMARK    2  A    between atoms: C_2  and  C_3
REMARK    3  A    between atoms: C_2  and  N_9
REMARK    4  A    between atoms: C_13  and  C_14
REMARK    5  A    between atoms: C_14  and  C_15
REMARK                            x       y       z     vdW  Elec       q    Type
REMARK                         _______ _______ _______ _____ _____    ______ ____
ROOT
ATOM      1  N   UNL     1       6.464   4.673  17.000  0.00  0.00    +0.000 N 
ATOM      2  C   UNL     1       7.673   4.558  17.653  0.00  0.00    +0.000 A 
ATOM      3  N   UNL     1       7.702   5.361  18.701  0.00  0.00    +0.000 NA
ATOM      4  N   UNL     1       6.501   5.985  18.752  0.00  0.00    +0.000 NA
ATOM      5  C   UNL     1       5.741   5.565  17.742  0.00  0.00    +0.000 A 
ENDROOT
BRANCH   1   7
ATOM      6  C   UNL     1       4.708   3.191  16.121  0.00  0.00    +0.000 C 
ATOM      7  C   UNL     1       6.103   3.767  15.905  0.00  0.00    +0.000 C 
BRANCH   7   8
ATOM      8  C   UNL     1       6.411   4.215  14.464  0.00  0.00    +0.000 A 
ATOM      9  C   UNL     1       5.876   3.529  13.357  0.00  0.00    +0.000 A 
ATOM     10  C   UNL     1       6.368   3.733  12.065  0.00  0.00    +0.000 A 
ATOM     11  C   UNL     1       7.390   4.643  11.842  0.00  0.00    +0.000 A 
ATOM     12  C   UNL     1       7.897   5.380  12.912  0.00  0.00    +0.000 A 
ATOM     13  C   UNL     1       7.409   5.172  14.213  0.00  0.00    +0.000 A 
ENDBRANCH   7   8
ENDBRANCH   1   7
BRANCH   5  14
ATOM     14  C   UNL     1       4.431   6.157  17.408  0.00  0.00    +0.000 C 
BRANCH  14  15
ATOM     15  C   UNL     1       3.276   5.941  18.321  0.00  0.00    +0.000 A 
ATOM     16  C   UNL     1       2.875   6.912  19.225  0.00  0.00    +0.000 A 
ATOM     17  N   UNL     1       2.435   6.213  20.314  0.00  0.00    +0.000 N 
ATOM     18  C   UNL     1       1.879   5.042  19.878  0.00  0.00    +0.000 A 
ATOM     19  C   UNL     1       0.983   4.182  20.529  0.00  0.00    +0.000 A 
ATOM     20  C   UNL     1       0.595   3.038  19.835  0.00  0.00    +0.000 A 
ATOM     21  C   UNL     1       1.157   2.725  18.609  0.00  0.00    +0.000 A 
ATOM     22  C   UNL     1       2.125   3.563  18.006  0.00  0.00    +0.000 A 
ATOM     23  C   UNL     1       2.444   4.792  18.618  0.00  0.00    +0.000 A 
ATOM     24  H   UNL     1       2.492   6.520  21.275  0.00  0.00    +0.000 HD
ENDBRANCH  14  15
ENDBRANCH   5  14
TORSDOF 4
ENDMDL
MODEL 7
REMARK VINA RESULT:      -8.4      2.793      5.204
REMARK  Name = 
REMARK  5 active torsions:
REMARK  status: ('A' for Active; 'I' for Inactive)
REMARK    1  A    between atoms: C_1  and  C_2
REMARK    2  A    between atoms: C_2  and  C_3
REMARK    3  A    between atoms: C_2  and  N_9
REMARK    4  A    between atoms: C_13  and  C_14
REMARK    5  A    between atoms: C_14  and  C_15
REMARK                            x       y       z     vdW  Elec       q    Type
REMARK                         _______ _______ _______ _____ _____    ______ ____
ROOT
ATOM      1  N   UNL     1       3.758   4.536  17.375  0.00  0.00    +0.000 N 
ATOM      2  C   UNL     1       2.969   3.449  17.061  0.00  0.00    +0.000 A 
ATOM      3  N   UNL     1       1.728   3.659  17.459  0.00  0.00    +0.000 NA
ATOM      4  N   UNL     1       1.695   4.894  18.012  0.00  0.00    +0.000 NA
ATOM      5  C   UNL     1       2.909   5.439  17.951  0.00  0.00    +0.000 A 
ENDROOT
BRANCH   1   7
ATOM      6  C   UNL     1       5.171   4.714  15.370  0.00  0.00    +0.000 C 
ATOM      7  C   UNL     1       5.139   4.636  16.892  0.00  0.00    +0.000 C 
BRANCH   7   8
ATOM      8  C   UNL     1       6.091   5.605  17.618  0.00  0.00    +0.000 A 
ATOM      9  C   UNL     1       6.483   6.821  17.026  0.00  0.00    +0.000 A 
ATOM     10  C   UNL     1       7.556   7.564  17.528  0.00  0.00    +0.000 A 
ATOM     11  C   UNL     1       8.250   7.122  18.645  0.00  0.00    +0.000 A 
ATOM     12  C   UNL     1       7.844   5.952  19.285  0.00  0.00    +0.000 A 
ATOM     13  C   UNL     1       6.771   5.200  18.779  0.00  0.00    +0.000 A 
ENDBRANCH   7   8
ENDBRANCH   1   7
BRANCH   5  14
ATOM     14  C   UNL     1       3.262   6.714  18.604  0.00  0.00    +0.000 C 
BRANCH  14  15
ATOM     15  C   UNL     1       2.254   7.807  18.670  0.00  0.00    +0.000 A 
ATOM     16  C   UNL     1       1.930   8.561  17.553  0.00  0.00    +0.000 A 
ATOM     17  N   UNL     1       1.678   9.814  18.041  0.00  0.00    +0.000 N 
ATOM     18  C   UNL     1       1.129   9.687  19.286  0.00  0.00    +0.000 A 
ATOM     19  C   UNL     1       0.375  10.609  20.028  0.00  0.00    +0.000 A 
ATOM     20  C   UNL     1      -0.044  10.203  21.292  0.00  0.00    +0.000 A 
ATOM     21  C   UNL     1       0.362   8.989  21.821  0.00  0.00    +0.000 A 
ATOM     22  C   UNL     1       1.195   8.109  21.091  0.00  0.00    +0.000 A 
ATOM     23  C   UNL     1       1.530   8.428  19.760  0.00  0.00    +0.000 A 
ATOM     24  H   UNL     1       1.850  10.681  17.553  0.00  0.00    +0.000 HD
ENDBRANCH  14  15
ENDBRANCH   5  14
TORSDOF 4
ENDMDL
MODEL 8
REMARK VINA RESULT:      -8.3      1.440      2.836
REMARK  Name = 
REMARK  5 active torsions:
REMARK  status: ('A' for Active; 'I' for Inactive)
REMARK    1  A    between atoms: C_1  and  C_2
REMARK    2  A    between atoms: C_2  and  C_3
REMARK    3  A    between atoms: C_2  and  N_9
REMARK    4  A    between atoms: C_13  and  C_14
REMARK    5  A    between atoms: C_14  and  C_15
REMARK                            x       y       z     vdW  Elec       q    Type
REMARK                         _______ _______ _______ _____ _____    ______ ____
ROOT
ATOM      1  N   UNL     1       5.762   5.018  16.902  0.00  0.00    +0.000 N 
ATOM      2  C   UNL     1       7.095   4.849  17.209  0.00  0.00    +0.000 A 
ATOM      3  N   UNL     1       7.223   4.375  18.434  0.00  0.00    +0.000 NA
ATOM      4  N   UNL     1       5.972   4.207  18.924  0.00  0.00    +0.000 NA
ATOM      5  C   UNL     1       5.083   4.576  18.002  0.00  0.00    +0.000 A 
ENDROOT
BRANCH   1   7
ATOM      6  C   UNL     1       5.104   6.873  15.425  0.00  0.00    +0.000 C 
ATOM      7  C   UNL     1       5.334   5.370  15.544  0.00  0.00    +0.000 C 
BRANCH   7   8
ATOM      8  C   UNL     1       6.080   4.727  14.360  0.00  0.00    +0.000 A 
ATOM      9  C   UNL     1       7.267   5.291  13.854  0.00  0.00    +0.000 A 
ATOM     10  C   UNL     1       7.791   4.900  12.618  0.00  0.00    +0.000 A 
ATOM     11  C   UNL     1       7.155   3.922  11.867  0.00  0.00    +0.000 A 
ATOM     12  C   UNL     1       6.011   3.305  12.373  0.00  0.00    +0.000 A 
ATOM     13  C   UNL     1       5.480   3.701  13.612  0.00  0.00    +0.000 A 
ENDBRANCH   7   8
ENDBRANCH   1   7
BRANCH   5  14
ATOM     14  C   UNL     1       3.633   4.671  18.262  0.00  0.00    +0.000 C 
BRANCH  14  15
ATOM     15  C   UNL     1       3.114   5.771  19.119  0.00  0.00    +0.000 A 
ATOM     16  C   UNL     1       2.915   5.596  20.480  0.00  0.00    +0.000 A 
ATOM     17  N   UNL     1       1.815   6.354  20.770  0.00  0.00    +0.000 N 
ATOM     18  C   UNL     1       1.818   7.448  19.949  0.00  0.00    +0.000 A 
ATOM     19  C   UNL     1       1.149   8.672  20.090  0.00  0.00    +0.000 A 
ATOM     20  C   UNL     1       1.330   9.606  19.073  0.00  0.00    +0.000 A 
ATOM     21  C   UNL     1       2.050   9.288  17.934  0.00  0.00    +0.000 A 
ATOM     22  C   UNL     1       2.646   8.015  17.771  0.00  0.00    +0.000 A 
ATOM     23  C   UNL     1       2.594   7.092  18.835  0.00  0.00    +0.000 A 
ATOM     24  H   UNL     1       1.130   6.151  21.484  0.00  0.00    +0.000 HD
ENDBRANCH  14  15
ENDBRANCH   5  14
TORSDOF 4
ENDMDL
MODEL 9
REMARK VINA RESULT:      -8.2      2.108      6.536
REMARK  Name = 
REMARK  5 active torsions:
REMARK  status: ('A' for Active; 'I' for Inactive)
REMARK    1  A    between atoms: C_1  and  C_2
REMARK    2  A    between atoms: C_2  and  C_3
REMARK    3  A    between atoms: C_2  and  N_9
REMARK    4  A    between atoms: C_13  and  C_14
REMARK    5  A    between atoms: C_14  and  C_15
REMARK                            x       y       z     vdW  Elec       q    Type
REMARK                         _______ _______ _______ _____ _____    ______ ____
ROOT
ATOM      1  N   UNL     1       3.007   5.253  18.117  0.00  0.00    +0.000 N 
ATOM      2  C   UNL     1       1.730   4.867  17.767  0.00  0.00    +0.000 A 
ATOM      3  N   UNL     1       1.612   3.556  17.854  0.00  0.00    +0.000 NA
ATOM      4  N   UNL     1       2.804   3.080  18.285  0.00  0.00    +0.000 NA
ATOM      5  C   UNL     1       3.647   4.096  18.464  0.00  0.00    +0.000 A 
ENDROOT
BRANCH   1   7
ATOM      6  C   UNL     1       4.165   7.157  17.075  0.00  0.00    +0.000 C 
ATOM      7  C   UNL     1       3.357   6.669  18.272  0.00  0.00    +0.000 C 
BRANCH   7   8
ATOM      8  C   UNL     1       2.262   7.636  18.761  0.00  0.00    +0.000 A 
ATOM      9  C   UNL     1       1.765   8.655  17.926  0.00  0.00    +0.000 A 
ATOM     10  C   UNL     1       0.999   9.707  18.437  0.00  0.00    +0.000 A 
ATOM     11  C   UNL     1       0.694   9.757  19.789  0.00  0.00    +0.000 A 
ATOM     12  C   UNL     1       1.123   8.729  20.627  0.00  0.00    +0.000 A 
ATOM     13  C   UNL     1       1.898   7.673  20.117  0.00  0.00    +0.000 A 
ENDBRANCH   7   8
ENDBRANCH   1   7
BRANCH   5  14
ATOM     14  C   UNL     1       5.078   3.920  18.777  0.00  0.00    +0.000 C 
BRANCH  14  15
ATOM     15  C   UNL     1       6.099   4.263  17.750  0.00  0.00    +0.000 A 
ATOM     16  C   UNL     1       7.296   4.872  18.094  0.00  0.00    +0.000 A 
ATOM     17  N   UNL     1       7.581   5.697  17.041  0.00  0.00    +0.000 N 
ATOM     18  C   UNL     1       7.114   5.111  15.898  0.00  0.00    +0.000 A 
ATOM     19  C   UNL     1       7.468   5.353  14.562  0.00  0.00    +0.000 A 
ATOM     20  C   UNL     1       6.805   4.604  13.593  0.00  0.00    +0.000 A 
ATOM     21  C   UNL     1       5.774   3.746  13.938  0.00  0.00    +0.000 A 
ATOM     22  C   UNL     1       5.372   3.580  15.284  0.00  0.00    +0.000 A 
ATOM     23  C   UNL     1       6.107   4.222  16.302  0.00  0.00    +0.000 A 
ATOM     24  H   UNL     1       8.071   6.578  17.099  0.00  0.00    +0.000 HD
ENDBRANCH  14  15
ENDBRANCH   5  14
TORSDOF 4
ENDMDL
