MODEL 1
REMARK VINA RESULT:      -6.8      0.000      0.000
REMARK  Name = 
REMARK  16 active torsions:
REMARK  status: ('A' for Active; 'I' for Inactive)
REMARK    1  A    between atoms: C_1  and  C_2
REMARK    2  A    between atoms: C_2  and  C_3
REMARK    3  A    between atoms: C_3  and  C_4
REMARK    4  A    between atoms: C_4  and  C_5
REMARK    5  A    between atoms: C_5  and  C_6
REMARK    6  A    between atoms: C_6  and  C_7
REMARK    7  A    between atoms: C_7  and  C_8
REMARK    8  A    between atoms: C_8  and  O_9
REMARK    9  A    between atoms: O_9  and  C_10
REMARK   10  A    between atoms: C_13  and  S_14
REMARK   11  A    between atoms: S_14  and  C_16
REMARK   12  A    between atoms: C_16  and  C_17
REMARK   13  A    between atoms: C_21  and  S_22
REMARK   14  A    between atoms: S_22  and  C_23
REMARK   15  A    between atoms: C_23  and  C_24
REMARK   16  A    between atoms: C_25  and  C_26
REMARK                            x       y       z     vdW  Elec       q    Type
REMARK                         _______ _______ _______ _____ _____    ______ ____
ROOT
ATOM      1  C   UNL     1       3.616   5.303  17.516  0.00  0.00    +0.000 C 
ATOM      2  O   UNL     1       3.657   4.310  16.767  0.00  0.00    +0.000 OA
ATOM      3  N   UNL     1       2.880   5.272  18.692  0.00  0.00    +0.000 N 
ATOM      4  C   UNL     1       2.359   6.321  19.458  0.00  0.00    +0.000 A 
ATOM      5  N   UNL     1       1.779   5.875  20.553  0.00  0.00    +0.000 NA
ATOM      6  C   UNL     1       1.949   4.524  20.547  0.00  0.00    +0.000 A 
ATOM      7  C   UNL     1       1.562   3.592  21.518  0.00  0.00    +0.000 A 
ATOM      8  C   UNL     1       1.890   2.246  21.332  0.00  0.00    +0.000 A 
ATOM      9  C   UNL     1       2.592   1.837  20.199  0.00  0.00    +0.000 A 
ATOM     10  C   UNL     1       2.973   2.753  19.211  0.00  0.00    +0.000 A 
ATOM     11  C   UNL     1       2.620   4.103  19.410  0.00  0.00    +0.000 A 
ENDROOT
BRANCH   4  12
ATOM     12  S   UNL     1       2.274   8.016  19.036  0.00  0.00    +0.000 S 
ATOM     13  O   UNL     1       1.548   8.071  17.636  0.00  0.00    +0.000 OA
BRANCH  12  14
ATOM     14  C   UNL     1       1.047   8.620  20.258  0.00  0.00    +0.000 C 
BRANCH  14  15
ATOM     15  C   UNL     1       0.848  10.118  20.400  0.00  0.00    +0.000 A 
ATOM     16  N   UNL     1       1.163  10.878  19.332  0.00  0.00    +0.000 NA
ATOM     17  C   UNL     1       0.782  12.161  19.368  0.00  0.00    +0.000 A 
ATOM     18  C   UNL     1       0.063  12.713  20.409  0.00  0.00    +0.000 A 
ATOM     19  C   UNL     1      -0.162  11.973  21.581  0.00  0.00    +0.000 A 
ATOM     20  C   UNL     1       0.259  10.631  21.594  0.00  0.00    +0.000 A 
ATOM     21  C   UNL     1       0.189   9.663  22.753  0.00  0.00    +0.000 C 
BRANCH  19  22
ATOM     22  S   UNL     1      -1.075  12.908  22.818  0.00  0.00    +0.000 S 
BRANCH  22  23
ATOM     23  C   UNL     1      -2.788  12.281  22.753  0.00  0.00    +0.000 C 
ATOM     24  C   UNL     1      -3.635  12.767  21.599  0.00  0.00    +0.000 C 
ENDBRANCH  22  23
ENDBRANCH  19  22
ENDBRANCH  14  15
ENDBRANCH  12  14
ENDBRANCH   4  12
BRANCH   1  25
ATOM     25  O   UNL     1       4.418   6.387  17.480  0.00  0.00    +0.000 OA
BRANCH  25  26
ATOM     26  C   UNL     1       5.706   6.169  18.078  0.00  0.00    +0.000 C 
BRANCH  26  27
ATOM     27  C   UNL     1       6.818   6.331  17.056  0.00  0.00    +0.000 C 
BRANCH  27  28
ATOM     28  C   UNL     1       6.970   5.077  16.201  0.00  0.00    +0.000 C 
BRANCH  28  29
ATOM     29  C   UNL     1       6.798   5.410  14.721  0.00  0.00    +0.000 C 
BRANCH  29  30
ATOM     30  C   UNL     1       6.804   4.147  13.862  0.00  0.00    +0.000 C 
BRANCH  30  31
ATOM     31  C   UNL     1       5.394   3.815  13.378  0.00  0.00    +0.000 C 
BRANCH  31  33
ATOM     32  C   UNL     1       4.079   3.234  11.318  0.00  0.00    +0.000 C 
ATOM     33  C   UNL     1       5.422   3.116  12.020  0.00  0.00    +0.000 C 
ENDBRANCH  31  33
ENDBRANCH  30  31
ENDBRANCH  29  30
ENDBRANCH  28  29
ENDBRANCH  27  28
ENDBRANCH  26  27
ENDBRANCH  25  26
ENDBRANCH   1  25
TORSDOF 13
ENDMDL
MODEL 2
REMARK VINA RESULT:      -6.8      2.612      9.530
REMARK  Name = 
REMARK  16 active torsions:
REMARK  status: ('A' for Active; 'I' for Inactive)
REMARK    1  A    between atoms: C_1  and  C_2
REMARK    2  A    between atoms: C_2  and  C_3
REMARK    3  A    between atoms: C_3  and  C_4
REMARK    4  A    between atoms: C_4  and  C_5
REMARK    5  A    between atoms: C_5  and  C_6
REMARK    6  A    between atoms: C_6  and  C_7
REMARK    7  A    between atoms: C_7  and  C_8
REMARK    8  A    between atoms: C_8  and  O_9
REMARK    9  A    between atoms: O_9  and  C_10
REMARK   10  A    between atoms: C_13  and  S_14
REMARK   11  A    between atoms: S_14  and  C_16
REMARK   12  A    between atoms: C_16  and  C_17
REMARK   13  A    between atoms: C_21  and  S_22
REMARK   14  A    between atoms: S_22  and  C_23
REMARK   15  A    between atoms: C_23  and  C_24
REMARK   16  A    between atoms: C_25  and  C_26
REMARK                            x       y       z     vdW  Elec       q    Type
REMARK                         _______ _______ _______ _____ _____    ______ ____
ROOT
ATOM      1  C   UNL     1       2.690   7.143  18.949  0.00  0.00    +0.000 C 
ATOM      2  O   UNL     1       2.182   7.459  20.040  0.00  0.00    +0.000 OA
ATOM      3  N   UNL     1       3.141   5.849  18.728  0.00  0.00    +0.000 N 
ATOM      4  C   UNL     1       4.071   5.364  17.802  0.00  0.00    +0.000 A 
ATOM      5  N   UNL     1       4.169   4.052  17.861  0.00  0.00    +0.000 NA
ATOM      6  C   UNL     1       3.269   3.647  18.798  0.00  0.00    +0.000 A 
ATOM      7  C   UNL     1       2.950   2.343  19.195  0.00  0.00    +0.000 A 
ATOM      8  C   UNL     1       1.944   2.153  20.147  0.00  0.00    +0.000 A 
ATOM      9  C   UNL     1       1.268   3.244  20.692  0.00  0.00    +0.000 A 
ATOM     10  C   UNL     1       1.585   4.555  20.319  0.00  0.00    +0.000 A 
ATOM     11  C   UNL     1       2.613   4.726  19.368  0.00  0.00    +0.000 A 
ENDROOT
BRANCH   4  12
ATOM     12  S   UNL     1       5.144   6.290  16.777  0.00  0.00    +0.000 S 
ATOM     13  O   UNL     1       5.987   7.199  17.753  0.00  0.00    +0.000 OA
BRANCH  12  14
ATOM     14  C   UNL     1       6.293   4.980  16.199  0.00  0.00    +0.000 C 
BRANCH  14  15
ATOM     15  C   UNL     1       6.539   4.844  14.709  0.00  0.00    +0.000 A 
ATOM     16  N   UNL     1       7.600   5.506  14.203  0.00  0.00    +0.000 NA
ATOM     17  C   UNL     1       7.953   5.213  12.946  0.00  0.00    +0.000 A 
ATOM     18  C   UNL     1       7.319   4.256  12.179  0.00  0.00    +0.000 A 
ATOM     19  C   UNL     1       6.140   3.651  12.642  0.00  0.00    +0.000 A 
ATOM     20  C   UNL     1       5.715   3.963  13.945  0.00  0.00    +0.000 A 
ATOM     21  C   UNL     1       4.452   3.495  14.632  0.00  0.00    +0.000 C 
BRANCH  19  22
ATOM     22  S   UNL     1       5.463   2.475  11.458  0.00  0.00    +0.000 S 
BRANCH  22  23
ATOM     23  C   UNL     1       3.725   2.972  11.202  0.00  0.00    +0.000 C 
ATOM     24  C   UNL     1       3.471   3.979  10.103  0.00  0.00    +0.000 C 
ENDBRANCH  22  23
ENDBRANCH  19  22
ENDBRANCH  14  15
ENDBRANCH  12  14
ENDBRANCH   4  12
BRANCH   1  25
ATOM     25  O   UNL     1       2.650   7.841  17.795  0.00  0.00    +0.000 OA
BRANCH  25  26
ATOM     26  C   UNL     1       2.362   9.237  17.978  0.00  0.00    +0.000 C 
BRANCH  26  27
ATOM     27  C   UNL     1       0.870   9.504  17.887  0.00  0.00    +0.000 C 
BRANCH  27  28
ATOM     28  C   UNL     1       0.451  10.628  18.828  0.00  0.00    +0.000 C 
BRANCH  28  29
ATOM     29  C   UNL     1       0.719  10.243  20.280  0.00  0.00    +0.000 C 
BRANCH  29  30
ATOM     30  C   UNL     1       0.157  11.285  21.246  0.00  0.00    +0.000 C 
BRANCH  30  31
ATOM     31  C   UNL     1      -0.622  10.611  22.374  0.00  0.00    +0.000 C 
BRANCH  31  33
ATOM     32  C   UNL     1      -1.166  13.007  22.896  0.00  0.00    +0.000 C 
ATOM     33  C   UNL     1      -1.640  11.566  22.995  0.00  0.00    +0.000 C 
ENDBRANCH  31  33
ENDBRANCH  30  31
ENDBRANCH  29  30
ENDBRANCH  28  29
ENDBRANCH  27  28
ENDBRANCH  26  27
ENDBRANCH  25  26
ENDBRANCH   1  25
TORSDOF 13
ENDMDL
MODEL 3
REMARK VINA RESULT:      -6.8      3.114     10.078
REMARK  Name = 
REMARK  16 active torsions:
REMARK  status: ('A' for Active; 'I' for Inactive)
REMARK    1  A    between atoms: C_1  and  C_2
REMARK    2  A    between atoms: C_2  and  C_3
REMARK    3  A    between atoms: C_3  and  C_4
REMARK    4  A    between atoms: C_4  and  C_5
REMARK    5  A    between atoms: C_5  and  C_6
REMARK    6  A    between atoms: C_6  and  C_7
REMARK    7  A    between atoms: C_7  and  C_8
REMARK    8  A    between atoms: C_8  and  O_9
REMARK    9  A    between atoms: O_9  and  C_10
REMARK   10  A    between atoms: C_13  and  S_14
REMARK   11  A    between atoms: S_14  and  C_16
REMARK   12  A    between atoms: C_16  and  C_17
REMARK   13  A    between atoms: C_21  and  S_22
REMARK   14  A    between atoms: S_22  and  C_23
REMARK   15  A    between atoms: C_23  and  C_24
REMARK   16  A    between atoms: C_25  and  C_26
REMARK                            x       y       z     vdW  Elec       q    Type
REMARK                         _______ _______ _______ _____ _____    ______ ____
ROOT
ATOM      1  C   UNL     1      -1.224  11.578  18.177  0.00  0.00    +0.000 C 
ATOM      2  O   UNL     1      -1.656  12.745  18.152  0.00  0.00    +0.000 OA
ATOM      3  N   UNL     1      -0.721  11.036  19.352  0.00  0.00    +0.000 N 
ATOM      4  C   UNL     1       0.154   9.961  19.547  0.00  0.00    +0.000 A 
ATOM      5  N   UNL     1       0.330   9.710  20.828  0.00  0.00    +0.000 NA
ATOM      6  C   UNL     1      -0.463  10.591  21.498  0.00  0.00    +0.000 A 
ATOM      7  C   UNL     1      -0.673  10.700  22.878  0.00  0.00    +0.000 A 
ATOM      8  C   UNL     1      -1.583  11.650  23.350  0.00  0.00    +0.000 A 
ATOM      9  C   UNL     1      -2.271  12.476  22.462  0.00  0.00    +0.000 A 
ATOM     10  C   UNL     1      -2.061  12.392  21.081  0.00  0.00    +0.000 A 
ATOM     11  C   UNL     1      -1.129  11.437  20.625  0.00  0.00    +0.000 A 
ENDROOT
BRANCH   4  12
ATOM     12  S   UNL     1       1.082   9.103  18.338  0.00  0.00    +0.000 S 
ATOM     13  O   UNL     1       2.103  10.158  17.757  0.00  0.00    +0.000 OA
BRANCH  12  14
ATOM     14  C   UNL     1       2.076   7.978  19.393  0.00  0.00    +0.000 C 
BRANCH  14  15
ATOM     15  C   UNL     1       2.860   6.866  18.722  0.00  0.00    +0.000 A 
ATOM     16  N   UNL     1       3.559   7.195  17.616  0.00  0.00    +0.000 NA
ATOM     17  C   UNL     1       4.424   6.284  17.154  0.00  0.00    +0.000 A 
ATOM     18  C   UNL     1       4.655   5.070  17.769  0.00  0.00    +0.000 A 
ATOM     19  C   UNL     1       3.848   4.660  18.843  0.00  0.00    +0.000 A 
ATOM     20  C   UNL     1       2.900   5.577  19.333  0.00  0.00    +0.000 A 
ATOM     21  C   UNL     1       1.882   5.342  20.425  0.00  0.00    +0.000 C 
BRANCH  19  22
ATOM     22  S   UNL     1       4.297   3.027  19.454  0.00  0.00    +0.000 S 
BRANCH  22  23
ATOM     23  C   UNL     1       3.303   1.842  18.485  0.00  0.00    +0.000 C 
ATOM     24  C   UNL     1       1.824   2.140  18.377  0.00  0.00    +0.000 C 
ENDBRANCH  22  23
ENDBRANCH  19  22
ENDBRANCH  14  15
ENDBRANCH  12  14
ENDBRANCH   4  12
BRANCH   1  25
ATOM     25  O   UNL     1      -1.401  10.620  17.244  0.00  0.00    +0.000 OA
BRANCH  25  26
ATOM     26  C   UNL     1      -2.629   9.889  17.397  0.00  0.00    +0.000 C 
BRANCH  26  27
ATOM     27  C   UNL     1      -3.795  10.644  16.784  0.00  0.00    +0.000 C 
BRANCH  27  28
ATOM     28  C   UNL     1      -4.848  10.981  17.834  0.00  0.00    +0.000 C 
BRANCH  28  29
ATOM     29  C   UNL     1      -6.002  11.762  17.210  0.00  0.00    +0.000 C 
BRANCH  29  30
ATOM     30  C   UNL     1      -7.103  12.041  18.231  0.00  0.00    +0.000 C 
BRANCH  30  31
ATOM     31  C   UNL     1      -6.803  11.342  19.555  0.00  0.00    +0.000 C 
BRANCH  31  33
ATOM     32  C   UNL     1      -5.906  12.545  21.569  0.00  0.00    +0.000 C 
ATOM     33  C   UNL     1      -7.145  12.235  20.746  0.00  0.00    +0.000 C 
ENDBRANCH  31  33
ENDBRANCH  30  31
ENDBRANCH  29  30
ENDBRANCH  28  29
ENDBRANCH  27  28
ENDBRANCH  26  27
ENDBRANCH  25  26
ENDBRANCH   1  25
TORSDOF 13
ENDMDL
MODEL 4
REMARK VINA RESULT:      -6.8      2.811      4.414
REMARK  Name = 
REMARK  16 active torsions:
REMARK  status: ('A' for Active; 'I' for Inactive)
REMARK    1  A    between atoms: C_1  and  C_2
REMARK    2  A    between atoms: C_2  and  C_3
REMARK    3  A    between atoms: C_3  and  C_4
REMARK    4  A    between atoms: C_4  and  C_5
REMARK    5  A    between atoms: C_5  and  C_6
REMARK    6  A    between atoms: C_6  and  C_7
REMARK    7  A    between atoms: C_7  and  C_8
REMARK    8  A    between atoms: C_8  and  O_9
REMARK    9  A    between atoms: O_9  and  C_10
REMARK   10  A    between atoms: C_13  and  S_14
REMARK   11  A    between atoms: S_14  and  C_16
REMARK   12  A    between atoms: C_16  and  C_17
REMARK   13  A    between atoms: C_21  and  S_22
REMARK   14  A    between atoms: S_22  and  C_23
REMARK   15  A    between atoms: C_23  and  C_24
REMARK   16  A    between atoms: C_25  and  C_26
REMARK                            x       y       z     vdW  Elec       q    Type
REMARK                         _______ _______ _______ _____ _____    ______ ____
ROOT
ATOM      1  C   UNL     1       5.254   5.177  18.390  0.00  0.00    +0.000 C 
ATOM      2  O   UNL     1       5.685   4.030  18.167  0.00  0.00    +0.000 OA
ATOM      3  N   UNL     1       3.954   5.368  18.836  0.00  0.00    +0.000 N 
ATOM      4  C   UNL     1       3.135   6.501  18.770  0.00  0.00    +0.000 A 
ATOM      5  N   UNL     1       1.984   6.299  19.377  0.00  0.00    +0.000 NA
ATOM      6  C   UNL     1       2.045   5.041  19.893  0.00  0.00    +0.000 A 
ATOM      7  C   UNL     1       1.094   4.371  20.672  0.00  0.00    +0.000 A 
ATOM      8  C   UNL     1       1.389   3.090  21.147  0.00  0.00    +0.000 A 
ATOM      9  C   UNL     1       2.611   2.488  20.849  0.00  0.00    +0.000 A 
ATOM     10  C   UNL     1       3.566   3.136  20.058  0.00  0.00    +0.000 A 
ATOM     11  C   UNL     1       3.244   4.422  19.577  0.00  0.00    +0.000 A 
ENDROOT
BRANCH   4  12
ATOM     12  S   UNL     1       3.423   7.980  17.881  0.00  0.00    +0.000 S 
ATOM     13  O   UNL     1       3.557   7.548  16.368  0.00  0.00    +0.000 OA
BRANCH  12  14
ATOM     14  C   UNL     1       1.786   8.797  18.022  0.00  0.00    +0.000 C 
BRANCH  14  15
ATOM     15  C   UNL     1       1.731  10.207  18.580  0.00  0.00    +0.000 A 
ATOM     16  N   UNL     1       2.418  11.155  17.910  0.00  0.00    +0.000 NA
ATOM     17  C   UNL     1       2.193  12.427  18.260  0.00  0.00    +0.000 A 
ATOM     18  C   UNL     1       1.280  12.802  19.226  0.00  0.00    +0.000 A 
ATOM     19  C   UNL     1       0.653  11.827  20.018  0.00  0.00    +0.000 A 
ATOM     20  C   UNL     1       0.895  10.477  19.704  0.00  0.00    +0.000 A 
ATOM     21  C   UNL     1       0.393   9.262  20.449  0.00  0.00    +0.000 C 
BRANCH  19  22
ATOM     22  S   UNL     1      -0.455  12.546  21.241  0.00  0.00    +0.000 S 
BRANCH  22  23
ATOM     23  C   UNL     1      -2.141  12.329  20.576  0.00  0.00    +0.000 C 
ATOM     24  C   UNL     1      -3.066  13.519  20.695  0.00  0.00    +0.000 C 
ENDBRANCH  22  23
ENDBRANCH  19  22
ENDBRANCH  14  15
ENDBRANCH  12  14
ENDBRANCH   4  12
BRANCH   1  25
ATOM     25  O   UNL     1       5.972   6.313  18.504  0.00  0.00    +0.000 OA
BRANCH  25  26
ATOM     26  C   UNL     1       7.037   6.418  17.545  0.00  0.00    +0.000 C 
BRANCH  26  27
ATOM     27  C   UNL     1       7.459   7.864  17.351  0.00  0.00    +0.000 C 
BRANCH  27  28
ATOM     28  C   UNL     1       8.384   8.324  18.472  0.00  0.00    +0.000 C 
BRANCH  28  29
ATOM     29  C   UNL     1       8.762   9.792  18.291  0.00  0.00    +0.000 C 
BRANCH  29  30
ATOM     30  C   UNL     1       9.383  10.368  19.562  0.00  0.00    +0.000 C 
BRANCH  30  31
ATOM     31  C   UNL     1      10.353  11.499  19.226  0.00  0.00    +0.000 C 
BRANCH  31  33
ATOM     32  C   UNL     1      11.032  12.825  17.204  0.00  0.00    +0.000 C 
ATOM     33  C   UNL     1       9.864  12.314  18.030  0.00  0.00    +0.000 C 
ENDBRANCH  31  33
ENDBRANCH  30  31
ENDBRANCH  29  30
ENDBRANCH  28  29
ENDBRANCH  27  28
ENDBRANCH  26  27
ENDBRANCH  25  26
ENDBRANCH   1  25
TORSDOF 13
ENDMDL
MODEL 5
REMARK VINA RESULT:      -6.8      2.940      9.759
REMARK  Name = 
REMARK  16 active torsions:
REMARK  status: ('A' for Active; 'I' for Inactive)
REMARK    1  A    between atoms: C_1  and  C_2
REMARK    2  A    between atoms: C_2  and  C_3
REMARK    3  A    between atoms: C_3  and  C_4
REMARK    4  A    between atoms: C_4  and  C_5
REMARK    5  A    between atoms: C_5  and  C_6
REMARK    6  A    between atoms: C_6  and  C_7
REMARK    7  A    between atoms: C_7  and  C_8
REMARK    8  A    between atoms: C_8  and  O_9
REMARK    9  A    between atoms: O_9  and  C_10
REMARK   10  A    between atoms: C_13  and  S_14
REMARK   11  A    between atoms: S_14  and  C_16
REMARK   12  A    between atoms: C_16  and  C_17
REMARK   13  A    between atoms: C_21  and  S_22
REMARK   14  A    between atoms: S_22  and  C_23
REMARK   15  A    between atoms: C_23  and  C_24
REMARK   16  A    between atoms: C_25  and  C_26
REMARK                            x       y       z     vdW  Elec       q    Type
REMARK                         _______ _______ _______ _____ _____    ______ ____
ROOT
ATOM      1  C   UNL     1      -0.797  11.246  18.204  0.00  0.00    +0.000 C 
ATOM      2  O   UNL     1      -1.198  12.415  18.360  0.00  0.00    +0.000 OA
ATOM      3  N   UNL     1      -0.249  10.540  19.265  0.00  0.00    +0.000 N 
ATOM      4  C   UNL     1       0.605   9.431  19.266  0.00  0.00    +0.000 A 
ATOM      5  N   UNL     1       0.841   9.006  20.490  0.00  0.00    +0.000 NA
ATOM      6  C   UNL     1       0.107   9.803  21.314  0.00  0.00    +0.000 A 
ATOM      7  C   UNL     1      -0.029   9.728  22.706  0.00  0.00    +0.000 A 
ATOM      8  C   UNL     1      -0.887  10.623  23.351  0.00  0.00    +0.000 A 
ATOM      9  C   UNL     1      -1.596  11.576  22.621  0.00  0.00    +0.000 A 
ATOM     10  C   UNL     1      -1.461  11.675  21.232  0.00  0.00    +0.000 A 
ATOM     11  C   UNL     1      -0.580  10.773  20.602  0.00  0.00    +0.000 A 
ENDROOT
BRANCH   4  12
ATOM     12  S   UNL     1       1.446   8.727  17.903  0.00  0.00    +0.000 S 
ATOM     13  O   UNL     1       2.312   9.894  17.288  0.00  0.00    +0.000 OA
BRANCH  12  14
ATOM     14  C   UNL     1       2.635   7.622  18.760  0.00  0.00    +0.000 C 
BRANCH  14  15
ATOM     15  C   UNL     1       3.228   6.461  17.982  0.00  0.00    +0.000 A 
ATOM     16  N   UNL     1       4.223   6.751  17.120  0.00  0.00    +0.000 NA
ATOM     17  C   UNL     1       4.898   5.716  16.604  0.00  0.00    +0.000 A 
ATOM     18  C   UNL     1       4.650   4.401  16.941  0.00  0.00    +0.000 A 
ATOM     19  C   UNL     1       3.539   4.074  17.736  0.00  0.00    +0.000 A 
ATOM     20  C   UNL     1       2.783   5.136  18.265  0.00  0.00    +0.000 A 
ATOM     21  C   UNL     1       1.516   5.035  19.084  0.00  0.00    +0.000 C 
BRANCH  19  22
ATOM     22  S   UNL     1       3.385   2.301  18.005  0.00  0.00    +0.000 S 
BRANCH  22  23
ATOM     23  C   UNL     1       4.200   1.966  19.603  0.00  0.00    +0.000 C 
ATOM     24  C   UNL     1       3.495   2.484  20.836  0.00  0.00    +0.000 C 
ENDBRANCH  22  23
ENDBRANCH  19  22
ENDBRANCH  14  15
ENDBRANCH  12  14
ENDBRANCH   4  12
BRANCH   1  25
ATOM     25  O   UNL     1      -1.048  10.428  17.161  0.00  0.00    +0.000 OA
BRANCH  25  26
ATOM     26  C   UNL     1      -2.317   9.760  17.249  0.00  0.00    +0.000 C 
BRANCH  26  27
ATOM     27  C   UNL     1      -3.441  10.652  16.751  0.00  0.00    +0.000 C 
BRANCH  27  28
ATOM     28  C   UNL     1      -4.593  10.698  17.749  0.00  0.00    +0.000 C 
BRANCH  28  29
ATOM     29  C   UNL     1      -4.623  12.040  18.476  0.00  0.00    +0.000 C 
BRANCH  29  30
ATOM     30  C   UNL     1      -5.657  12.042  19.600  0.00  0.00    +0.000 C 
BRANCH  30  31
ATOM     31  C   UNL     1      -6.906  11.265  19.188  0.00  0.00    +0.000 C 
BRANCH  31  33
ATOM     32  C   UNL     1      -7.174   8.873  19.904  0.00  0.00    +0.000 C 
ATOM     33  C   UNL     1      -7.370  10.327  20.300  0.00  0.00    +0.000 C 
ENDBRANCH  31  33
ENDBRANCH  30  31
ENDBRANCH  29  30
ENDBRANCH  28  29
ENDBRANCH  27  28
ENDBRANCH  26  27
ENDBRANCH  25  26
ENDBRANCH   1  25
TORSDOF 13
ENDMDL
MODEL 6
REMARK VINA RESULT:      -6.8      2.391      4.177
REMARK  Name = 
REMARK  16 active torsions:
REMARK  status: ('A' for Active; 'I' for Inactive)
REMARK    1  A    between atoms: C_1  and  C_2
REMARK    2  A    between atoms: C_2  and  C_3
REMARK    3  A    between atoms: C_3  and  C_4
REMARK    4  A    between atoms: C_4  and  C_5
REMARK    5  A    between atoms: C_5  and  C_6
REMARK    6  A    between atoms: C_6  and  C_7
REMARK    7  A    between atoms: C_7  and  C_8
REMARK    8  A    between atoms: C_8  and  O_9
REMARK    9  A    between atoms: O_9  and  C_10
REMARK   10  A    between atoms: C_13  and  S_14
REMARK   11  A    between atoms: S_14  and  C_16
REMARK   12  A    between atoms: C_16  and  C_17
REMARK   13  A    between atoms: C_21  and  S_22
REMARK   14  A    between atoms: S_22  and  C_23
REMARK   15  A    between atoms: C_23  and  C_24
REMARK   16  A    between atoms: C_25  and  C_26
REMARK                            x       y       z     vdW  Elec       q    Type
REMARK                         _______ _______ _______ _____ _____    ______ ____
ROOT
ATOM      1  C   UNL     1       4.349   5.743  17.197  0.00  0.00    +0.000 C 
ATOM      2  O   UNL     1       4.676   4.950  16.294  0.00  0.00    +0.000 OA
ATOM      3  N   UNL     1       3.291   5.450  18.045  0.00  0.00    +0.000 N 
ATOM      4  C   UNL     1       2.500   6.301  18.826  0.00  0.00    +0.000 A 
ATOM      5  N   UNL     1       1.638   5.622  19.555  0.00  0.00    +0.000 NA
ATOM      6  C   UNL     1       1.880   4.307  19.298  0.00  0.00    +0.000 A 
ATOM      7  C   UNL     1       1.268   3.181  19.863  0.00  0.00    +0.000 A 
ATOM      8  C   UNL     1       1.714   1.910  19.490  0.00  0.00    +0.000 A 
ATOM      9  C   UNL     1       2.752   1.765  18.570  0.00  0.00    +0.000 A 
ATOM     10  C   UNL     1       3.365   2.879  17.984  0.00  0.00    +0.000 A 
ATOM     11  C   UNL     1       2.891   4.151  18.363  0.00  0.00    +0.000 A 
ENDROOT
BRANCH   4  12
ATOM     12  S   UNL     1       2.452   8.049  18.793  0.00  0.00    +0.000 S 
ATOM     13  O   UNL     1       1.598   8.427  17.520  0.00  0.00    +0.000 OA
BRANCH  12  14
ATOM     14  C   UNL     1       1.374   8.397  20.237  0.00  0.00    +0.000 C 
BRANCH  14  15
ATOM     15  C   UNL     1       0.834   9.804  20.411  0.00  0.00    +0.000 A 
ATOM     16  N   UNL     1       0.981  10.646  19.368  0.00  0.00    +0.000 NA
ATOM     17  C   UNL     1       0.315  11.805  19.427  0.00  0.00    +0.000 A 
ATOM     18  C   UNL     1      -0.527  12.149  20.467  0.00  0.00    +0.000 A 
ATOM     19  C   UNL     1      -0.592  11.344  21.615  0.00  0.00    +0.000 A 
ATOM     20  C   UNL     1       0.127  10.135  21.605  0.00  0.00    +0.000 A 
ATOM     21  C   UNL     1       0.266   9.145  22.739  0.00  0.00    +0.000 C 
BRANCH  19  22
ATOM     22  S   UNL     1      -1.712  12.010  22.857  0.00  0.00    +0.000 S 
BRANCH  22  23
ATOM     23  C   UNL     1      -3.157  12.641  21.937  0.00  0.00    +0.000 C 
ATOM     24  C   UNL     1      -3.735  13.953  22.417  0.00  0.00    +0.000 C 
ENDBRANCH  22  23
ENDBRANCH  19  22
ENDBRANCH  14  15
ENDBRANCH  12  14
ENDBRANCH   4  12
BRANCH   1  25
ATOM     25  O   UNL     1       5.059   6.792  17.659  0.00  0.00    +0.000 OA
BRANCH  25  26
ATOM     26  C   UNL     1       6.214   7.100  16.862  0.00  0.00    +0.000 C 
BRANCH  26  27
ATOM     27  C   UNL     1       7.484   6.584  17.516  0.00  0.00    +0.000 C 
BRANCH  27  28
ATOM     28  C   UNL     1       8.100   7.637  18.432  0.00  0.00    +0.000 C 
BRANCH  28  29
ATOM     29  C   UNL     1       7.851   9.040  17.885  0.00  0.00    +0.000 C 
BRANCH  29  30
ATOM     30  C   UNL     1       9.092   9.920  18.021  0.00  0.00    +0.000 C 
BRANCH  30  31
ATOM     31  C   UNL     1       9.310  10.326  19.477  0.00  0.00    +0.000 C 
BRANCH  31  33
ATOM     32  C   UNL     1      10.881  11.983  20.525  0.00  0.00    +0.000 C 
ATOM     33  C   UNL     1       9.695  11.800  19.592  0.00  0.00    +0.000 C 
ENDBRANCH  31  33
ENDBRANCH  30  31
ENDBRANCH  29  30
ENDBRANCH  28  29
ENDBRANCH  27  28
ENDBRANCH  26  27
ENDBRANCH  25  26
ENDBRANCH   1  25
TORSDOF 13
ENDMDL
MODEL 7
REMARK VINA RESULT:      -6.7      2.834      4.421
REMARK  Name = 
REMARK  16 active torsions:
REMARK  status: ('A' for Active; 'I' for Inactive)
REMARK    1  A    between atoms: C_1  and  C_2
REMARK    2  A    between atoms: C_2  and  C_3
REMARK    3  A    between atoms: C_3  and  C_4
REMARK    4  A    between atoms: C_4  and  C_5
REMARK    5  A    between atoms: C_5  and  C_6
REMARK    6  A    between atoms: C_6  and  C_7
REMARK    7  A    between atoms: C_7  and  C_8
REMARK    8  A    between atoms: C_8  and  O_9
REMARK    9  A    between atoms: O_9  and  C_10
REMARK   10  A    between atoms: C_13  and  S_14
REMARK   11  A    between atoms: S_14  and  C_16
REMARK   12  A    between atoms: C_16  and  C_17
REMARK   13  A    between atoms: C_21  and  S_22
REMARK   14  A    between atoms: S_22  and  C_23
REMARK   15  A    between atoms: C_23  and  C_24
REMARK   16  A    between atoms: C_25  and  C_26
REMARK                            x       y       z     vdW  Elec       q    Type
REMARK                         _______ _______ _______ _____ _____    ______ ____
ROOT
ATOM      1  C   UNL     1       4.810   5.751  17.123  0.00  0.00    +0.000 C 
ATOM      2  O   UNL     1       5.228   5.007  16.217  0.00  0.00    +0.000 OA
ATOM      3  N   UNL     1       3.677   5.411  17.850  0.00  0.00    +0.000 N 
ATOM      4  C   UNL     1       2.807   6.217  18.594  0.00  0.00    +0.000 A 
ATOM      5  N   UNL     1       1.886   5.498  19.201  0.00  0.00    +0.000 NA
ATOM      6  C   UNL     1       2.162   4.199  18.901  0.00  0.00    +0.000 A 
ATOM      7  C   UNL     1       1.508   3.043  19.345  0.00  0.00    +0.000 A 
ATOM      8  C   UNL     1       1.999   1.795  18.952  0.00  0.00    +0.000 A 
ATOM      9  C   UNL     1       3.122   1.701  18.131  0.00  0.00    +0.000 A 
ATOM     10  C   UNL     1       3.779   2.846  17.665  0.00  0.00    +0.000 A 
ATOM     11  C   UNL     1       3.259   4.096  18.061  0.00  0.00    +0.000 A 
ENDROOT
BRANCH   4  12
ATOM     12  S   UNL     1       2.747   7.964  18.646  0.00  0.00    +0.000 S 
ATOM     13  O   UNL     1       2.116   8.410  17.269  0.00  0.00    +0.000 OA
BRANCH  12  14
ATOM     14  C   UNL     1       1.439   8.232  19.904  0.00  0.00    +0.000 C 
BRANCH  14  15
ATOM     15  C   UNL     1       0.853   9.624  20.049  0.00  0.00    +0.000 A 
ATOM     16  N   UNL     1       0.715  10.348  18.919  0.00  0.00    +0.000 NA
ATOM     17  C   UNL     1      -0.002  11.475  19.007  0.00  0.00    +0.000 A 
ATOM     18  C   UNL     1      -0.623  11.895  20.166  0.00  0.00    +0.000 A 
ATOM     19  C   UNL     1      -0.385  11.225  21.376  0.00  0.00    +0.000 A 
ATOM     20  C   UNL     1       0.397  10.056  21.330  0.00  0.00    +0.000 A 
ATOM     21  C   UNL     1       0.843   9.209  22.500  0.00  0.00    +0.000 C 
BRANCH  19  22
ATOM     22  S   UNL     1      -1.257  11.976  22.760  0.00  0.00    +0.000 S 
BRANCH  22  23
ATOM     23  C   UNL     1      -2.641  12.914  22.027  0.00  0.00    +0.000 C 
ATOM     24  C   UNL     1      -3.955  12.861  22.773  0.00  0.00    +0.000 C 
ENDBRANCH  22  23
ENDBRANCH  19  22
ENDBRANCH  14  15
ENDBRANCH  12  14
ENDBRANCH   4  12
BRANCH   1  25
ATOM     25  O   UNL     1       5.463   6.778  17.705  0.00  0.00    +0.000 OA
BRANCH  25  26
ATOM     26  C   UNL     1       6.615   7.217  16.967  0.00  0.00    +0.000 C 
BRANCH  26  27
ATOM     27  C   UNL     1       7.743   7.618  17.902  0.00  0.00    +0.000 C 
BRANCH  27  28
ATOM     28  C   UNL     1       8.135   9.078  17.700  0.00  0.00    +0.000 C 
BRANCH  28  29
ATOM     29  C   UNL     1       8.885   9.608  18.920  0.00  0.00    +0.000 C 
BRANCH  29  30
ATOM     30  C   UNL     1       9.842  10.735  18.539  0.00  0.00    +0.000 C 
BRANCH  30  31
ATOM     31  C   UNL     1       9.106  12.072  18.473  0.00  0.00    +0.000 C 
BRANCH  31  33
ATOM     32  C   UNL     1       9.846  14.443  18.102  0.00  0.00    +0.000 C 
ATOM     33  C   UNL     1       9.797  13.041  17.516  0.00  0.00    +0.000 C 
ENDBRANCH  31  33
ENDBRANCH  30  31
ENDBRANCH  29  30
ENDBRANCH  28  29
ENDBRANCH  27  28
ENDBRANCH  26  27
ENDBRANCH  25  26
ENDBRANCH   1  25
TORSDOF 13
ENDMDL
MODEL 8
REMARK VINA RESULT:      -6.7      0.786      1.031
REMARK  Name = 
REMARK  16 active torsions:
REMARK  status: ('A' for Active; 'I' for Inactive)
REMARK    1  A    between atoms: C_1  and  C_2
REMARK    2  A    between atoms: C_2  and  C_3
REMARK    3  A    between atoms: C_3  and  C_4
REMARK    4  A    between atoms: C_4  and  C_5
REMARK    5  A    between atoms: C_5  and  C_6
REMARK    6  A    between atoms: C_6  and  C_7
REMARK    7  A    between atoms: C_7  and  C_8
REMARK    8  A    between atoms: C_8  and  O_9
REMARK    9  A    between atoms: O_9  and  C_10
REMARK   10  A    between atoms: C_13  and  S_14
REMARK   11  A    between atoms: S_14  and  C_16
REMARK   12  A    between atoms: C_16  and  C_17
REMARK   13  A    between atoms: C_21  and  S_22
REMARK   14  A    between atoms: S_22  and  C_23
REMARK   15  A    between atoms: C_23  and  C_24
REMARK   16  A    between atoms: C_25  and  C_26
REMARK                            x       y       z     vdW  Elec       q    Type
REMARK                         _______ _______ _______ _____ _____    ______ ____
ROOT
ATOM      1  C   UNL     1       3.651   5.733  17.538  0.00  0.00    +0.000 C 
ATOM      2  O   UNL     1       3.739   4.768  16.757  0.00  0.00    +0.000 OA
ATOM      3  N   UNL     1       2.916   5.629  18.710  0.00  0.00    +0.000 N 
ATOM      4  C   UNL     1       2.346   6.627  19.509  0.00  0.00    +0.000 A 
ATOM      5  N   UNL     1       1.786   6.119  20.588  0.00  0.00    +0.000 NA
ATOM      6  C   UNL     1       2.019   4.778  20.538  0.00  0.00    +0.000 A 
ATOM      7  C   UNL     1       1.674   3.798  21.476  0.00  0.00    +0.000 A 
ATOM      8  C   UNL     1       2.065   2.476  21.247  0.00  0.00    +0.000 A 
ATOM      9  C   UNL     1       2.786   2.137  20.103  0.00  0.00    +0.000 A 
ATOM     10  C   UNL     1       3.125   3.101  19.147  0.00  0.00    +0.000 A 
ATOM     11  C   UNL     1       2.710   4.427  19.389  0.00  0.00    +0.000 A 
ENDROOT
BRANCH   4  12
ATOM     12  S   UNL     1       2.183   8.329  19.142  0.00  0.00    +0.000 S 
ATOM     13  O   UNL     1       1.416   8.397  17.765  0.00  0.00    +0.000 OA
BRANCH  12  14
ATOM     14  C   UNL     1       0.967   8.847  20.416  0.00  0.00    +0.000 C 
BRANCH  14  15
ATOM     15  C   UNL     1       0.742  10.331  20.636  0.00  0.00    +0.000 A 
ATOM     16  N   UNL     1       1.109  11.158  19.636  0.00  0.00    +0.000 NA
ATOM     17  C   UNL     1       0.710  12.433  19.727  0.00  0.00    +0.000 A 
ATOM     18  C   UNL     1      -0.074  12.914  20.756  0.00  0.00    +0.000 A 
ATOM     19  C   UNL     1      -0.357  12.101  21.866  0.00  0.00    +0.000 A 
ATOM     20  C   UNL     1       0.079  10.765  21.823  0.00  0.00    +0.000 A 
ATOM     21  C   UNL     1      -0.045   9.728  22.915  0.00  0.00    +0.000 C 
BRANCH  19  22
ATOM     22  S   UNL     1      -1.351  12.951  23.103  0.00  0.00    +0.000 S 
BRANCH  22  23
ATOM     23  C   UNL     1      -3.000  12.171  23.039  0.00  0.00    +0.000 C 
ATOM     24  C   UNL     1      -4.122  13.021  22.486  0.00  0.00    +0.000 C 
ENDBRANCH  22  23
ENDBRANCH  19  22
ENDBRANCH  14  15
ENDBRANCH  12  14
ENDBRANCH   4  12
BRANCH   1  25
ATOM     25  O   UNL     1       4.401   6.854  17.540  0.00  0.00    +0.000 OA
BRANCH  25  26
ATOM     26  C   UNL     1       5.713   6.665  18.095  0.00  0.00    +0.000 C 
BRANCH  26  27
ATOM     27  C   UNL     1       6.747   6.467  17.000  0.00  0.00    +0.000 C 
BRANCH  27  28
ATOM     28  C   UNL     1       7.382   5.083  17.085  0.00  0.00    +0.000 C 
BRANCH  28  29
ATOM     29  C   UNL     1       6.755   4.139  16.063  0.00  0.00    +0.000 C 
BRANCH  29  30
ATOM     30  C   UNL     1       6.574   4.824  14.709  0.00  0.00    +0.000 C 
BRANCH  30  31
ATOM     31  C   UNL     1       6.314   3.793  13.612  0.00  0.00    +0.000 C 
BRANCH  31  33
ATOM     32  C   UNL     1       7.959   5.298  12.457  0.00  0.00    +0.000 C 
ATOM     33  C   UNL     1       6.865   4.262  12.266  0.00  0.00    +0.000 C 
ENDBRANCH  31  33
ENDBRANCH  30  31
ENDBRANCH  29  30
ENDBRANCH  28  29
ENDBRANCH  27  28
ENDBRANCH  26  27
ENDBRANCH  25  26
ENDBRANCH   1  25
TORSDOF 13
ENDMDL
MODEL 9
REMARK VINA RESULT:      -6.7      2.795      9.428
REMARK  Name = 
REMARK  16 active torsions:
REMARK  status: ('A' for Active; 'I' for Inactive)
REMARK    1  A    between atoms: C_1  and  C_2
REMARK    2  A    between atoms: C_2  and  C_3
REMARK    3  A    between atoms: C_3  and  C_4
REMARK    4  A    between atoms: C_4  and  C_5
REMARK    5  A    between atoms: C_5  and  C_6
REMARK    6  A    between atoms: C_6  and  C_7
REMARK    7  A    between atoms: C_7  and  C_8
REMARK    8  A    between atoms: C_8  and  O_9
REMARK    9  A    between atoms: O_9  and  C_10
REMARK   10  A    between atoms: C_13  and  S_14
REMARK   11  A    between atoms: S_14  and  C_16
REMARK   12  A    between atoms: C_16  and  C_17
REMARK   13  A    between atoms: C_21  and  S_22
REMARK   14  A    between atoms: S_22  and  C_23
REMARK   15  A    between atoms: C_23  and  C_24
REMARK   16  A    between atoms: C_25  and  C_26
REMARK                            x       y       z     vdW  Elec       q    Type
REMARK                         _______ _______ _______ _____ _____    ______ ____
ROOT
ATOM      1  C   UNL     1       3.102   6.801  19.097  0.00  0.00    +0.000 C 
ATOM      2  O   UNL     1       2.391   7.014  20.097  0.00  0.00    +0.000 OA
ATOM      3  N   UNL     1       3.498   5.511  18.774  0.00  0.00    +0.000 N 
ATOM      4  C   UNL     1       4.571   5.066  17.993  0.00  0.00    +0.000 A 
ATOM      5  N   UNL     1       4.562   3.755  17.865  0.00  0.00    +0.000 NA
ATOM      6  C   UNL     1       3.453   3.319  18.524  0.00  0.00    +0.000 A 
ATOM      7  C   UNL     1       2.965   2.012  18.639  0.00  0.00    +0.000 A 
ATOM      8  C   UNL     1       1.765   1.796  19.323  0.00  0.00    +0.000 A 
ATOM      9  C   UNL     1       1.065   2.864  19.882  0.00  0.00    +0.000 A 
ATOM     10  C   UNL     1       1.547   4.175  19.791  0.00  0.00    +0.000 A 
ATOM     11  C   UNL     1       2.766   4.371  19.109  0.00  0.00    +0.000 A 
ENDROOT
BRANCH   4  12
ATOM     12  S   UNL     1       5.903   6.010  17.367  0.00  0.00    +0.000 S 
ATOM     13  O   UNL     1       6.771   6.410  18.624  0.00  0.00    +0.000 OA
BRANCH  12  14
ATOM     14  C   UNL     1       6.866   4.718  16.488  0.00  0.00    +0.000 C 
BRANCH  14  15
ATOM     15  C   UNL     1       6.927   4.771  14.973  0.00  0.00    +0.000 A 
ATOM     16  N   UNL     1       7.895   5.535  14.429  0.00  0.00    +0.000 NA
ATOM     17  C   UNL     1       8.097   5.410  13.112  0.00  0.00    +0.000 A 
ATOM     18  C   UNL     1       7.401   4.523  12.315  0.00  0.00    +0.000 A 
ATOM     19  C   UNL     1       6.308   3.814  12.839  0.00  0.00    +0.000 A 
ATOM     20  C   UNL     1       6.041   3.951  14.213  0.00  0.00    +0.000 A 
ATOM     21  C   UNL     1       4.889   3.349  14.984  0.00  0.00    +0.000 C 
BRANCH  19  22
ATOM     22  S   UNL     1       5.523   2.758  11.610  0.00  0.00    +0.000 S 
BRANCH  22  23
ATOM     23  C   UNL     1       3.852   3.448  11.354  0.00  0.00    +0.000 C 
ATOM     24  C   UNL     1       3.149   3.043  10.079  0.00  0.00    +0.000 C 
ENDBRANCH  22  23
ENDBRANCH  19  22
ENDBRANCH  14  15
ENDBRANCH  12  14
ENDBRANCH   4  12
BRANCH   1  25
ATOM     25  O   UNL     1       3.362   7.652  18.083  0.00  0.00    +0.000 OA
BRANCH  25  26
ATOM     26  C   UNL     1       2.184   8.254  17.522  0.00  0.00    +0.000 C 
BRANCH  26  27
ATOM     27  C   UNL     1       1.983   9.662  18.055  0.00  0.00    +0.000 C 
BRANCH  27  28
ATOM     28  C   UNL     1       0.803   9.723  19.020  0.00  0.00    +0.000 C 
BRANCH  28  29
ATOM     29  C   UNL     1       0.011  11.013  18.821  0.00  0.00    +0.000 C 
BRANCH  29  30
ATOM     30  C   UNL     1      -0.923  11.281  20.000  0.00  0.00    +0.000 C 
BRANCH  30  31
ATOM     31  C   UNL     1      -0.630  12.645  20.622  0.00  0.00    +0.000 C 
BRANCH  31  33
ATOM     32  C   UNL     1      -0.952  11.166  22.626  0.00  0.00    +0.000 C 
ATOM     33  C   UNL     1      -0.664  12.579  22.148  0.00  0.00    +0.000 C 
ENDBRANCH  31  33
ENDBRANCH  30  31
ENDBRANCH  29  30
ENDBRANCH  28  29
ENDBRANCH  27  28
ENDBRANCH  26  27
ENDBRANCH  25  26
ENDBRANCH   1  25
TORSDOF 13
ENDMDL
