MODEL 1
REMARK VINA RESULT:      -7.9      0.000      0.000
REMARK  Name = 
REMARK  1 active torsions:
REMARK  status: ('A' for Active; 'I' for Inactive)
REMARK    1  A    between atoms: O_1  and  C_2
REMARK                            x       y       z     vdW  Elec       q    Type
REMARK                         _______ _______ _______ _____ _____    ______ ____
ROOT
ATOM      1  C   UNL     1       7.449   5.768  19.282  0.00  0.00    +0.000 A 
ATOM      2  C   UNL     1       8.037   6.859  18.639  0.00  0.00    +0.000 A 
ATOM      3  C   UNL     1       7.463   7.348  17.474  0.00  0.00    +0.000 A 
ATOM      4  C   UNL     1       6.313   6.743  16.967  0.00  0.00    +0.000 A 
ATOM      5  C   UNL     1       5.721   5.656  17.602  0.00  0.00    +0.000 A 
ATOM      6  N   UNL     1       4.612   5.120  17.060  0.00  0.00    +0.000 NA
ATOM      7  C   UNL     1       4.059   4.069  17.694  0.00  0.00    +0.000 A 
ATOM      8  C   UNL     1       2.913   3.477  17.177  0.00  0.00    +0.000 A 
ATOM      9  C   UNL     1       2.311   2.385  17.806  0.00  0.00    +0.000 A 
ATOM     10  C   UNL     1       2.867   1.876  18.971  0.00  0.00    +0.000 A 
ATOM     11  C   UNL     1       4.018   2.463  19.498  0.00  0.00    +0.000 A 
ATOM     12  C   UNL     1       4.622   3.550  18.878  0.00  0.00    +0.000 A 
ATOM     13  N   UNL     1       5.728   4.087  19.416  0.00  0.00    +0.000 NA
ATOM     14  C   UNL     1       6.293   5.145  18.788  0.00  0.00    +0.000 A 
ENDROOT
BRANCH   1  15
ATOM     15  O   UNL     1       8.021   5.287  20.437  0.00  0.00    +0.000 OA
ATOM     16  H   UNL     1       8.147   4.329  20.365  0.00  0.00    +0.000 HD
ENDBRANCH   1  15
TORSDOF 1
ENDMDL
MODEL 2
REMARK VINA RESULT:      -7.7      1.234      4.760
REMARK  Name = 
REMARK  1 active torsions:
REMARK  status: ('A' for Active; 'I' for Inactive)
REMARK    1  A    between atoms: O_1  and  C_2
REMARK                            x       y       z     vdW  Elec       q    Type
REMARK                         _______ _______ _______ _____ _____    ______ ____
ROOT
ATOM      1  C   UNL     1       4.265   2.460  19.280  0.00  0.00    +0.000 A 
ATOM      2  C   UNL     1       3.050   1.928  18.845  0.00  0.00    +0.000 A 
ATOM      3  C   UNL     1       2.336   2.591  17.856  0.00  0.00    +0.000 A 
ATOM      4  C   UNL     1       2.843   3.774  17.318  0.00  0.00    +0.000 A 
ATOM      5  C   UNL     1       4.052   4.310  17.746  0.00  0.00    +0.000 A 
ATOM      6  N   UNL     1       4.484   5.454  17.185  0.00  0.00    +0.000 NA
ATOM      7  C   UNL     1       5.658   5.952  17.617  0.00  0.00    +0.000 A 
ATOM      8  C   UNL     1       6.150   7.131  17.070  0.00  0.00    +0.000 A 
ATOM      9  C   UNL     1       7.363   7.678  17.494  0.00  0.00    +0.000 A 
ATOM     10  C   UNL     1       8.095   7.035  18.482  0.00  0.00    +0.000 A 
ATOM     11  C   UNL     1       7.609   5.850  19.038  0.00  0.00    +0.000 A 
ATOM     12  C   UNL     1       6.403   5.300  18.621  0.00  0.00    +0.000 A 
ATOM     13  N   UNL     1       5.970   4.159  19.179  0.00  0.00    +0.000 NA
ATOM     14  C   UNL     1       4.791   3.648  18.752  0.00  0.00    +0.000 A 
ENDROOT
BRANCH   1  15
ATOM     15  O   UNL     1       4.969   1.798  20.258  0.00  0.00    +0.000 OA
ATOM     16  H   UNL     1       5.919   1.856  20.074  0.00  0.00    +0.000 HD
ENDBRANCH   1  15
TORSDOF 1
ENDMDL
MODEL 3
REMARK VINA RESULT:      -7.5      1.739      2.070
REMARK  Name = 
REMARK  1 active torsions:
REMARK  status: ('A' for Active; 'I' for Inactive)
REMARK    1  A    between atoms: O_1  and  C_2
REMARK                            x       y       z     vdW  Elec       q    Type
REMARK                         _______ _______ _______ _____ _____    ______ ____
ROOT
ATOM      1  C   UNL     1       6.615   4.967  18.640  0.00  0.00    +0.000 A 
ATOM      2  C   UNL     1       7.432   4.998  17.508  0.00  0.00    +0.000 A 
ATOM      3  C   UNL     1       6.933   4.531  16.300  0.00  0.00    +0.000 A 
ATOM      4  C   UNL     1       5.629   4.039  16.239  0.00  0.00    +0.000 A 
ATOM      5  C   UNL     1       4.810   4.004  17.362  0.00  0.00    +0.000 A 
ATOM      6  N   UNL     1       3.562   3.516  17.234  0.00  0.00    +0.000 NA
ATOM      7  C   UNL     1       2.789   3.494  18.336  0.00  0.00    +0.000 A 
ATOM      8  C   UNL     1       1.492   3.002  18.259  0.00  0.00    +0.000 A 
ATOM      9  C   UNL     1       0.662   2.961  19.380  0.00  0.00    +0.000 A 
ATOM     10  C   UNL     1       1.138   3.421  20.600  0.00  0.00    +0.000 A 
ATOM     11  C   UNL     1       2.439   3.917  20.688  0.00  0.00    +0.000 A 
ATOM     12  C   UNL     1       3.271   3.960  19.576  0.00  0.00    +0.000 A 
ATOM     13  N   UNL     1       4.516   4.446  19.701  0.00  0.00    +0.000 NA
ATOM     14  C   UNL     1       5.302   4.475  18.599  0.00  0.00    +0.000 A 
ENDROOT
BRANCH   1  15
ATOM     15  O   UNL     1       7.114   5.432  19.834  0.00  0.00    +0.000 OA
ATOM     16  H   UNL     1       6.415   5.427  20.505  0.00  0.00    +0.000 HD
ENDBRANCH   1  15
TORSDOF 1
ENDMDL
MODEL 4
REMARK VINA RESULT:      -7.3      1.528      2.541
REMARK  Name = 
REMARK  1 active torsions:
REMARK  status: ('A' for Active; 'I' for Inactive)
REMARK    1  A    between atoms: O_1  and  C_2
REMARK                            x       y       z     vdW  Elec       q    Type
REMARK                         _______ _______ _______ _____ _____    ______ ____
ROOT
ATOM      1  C   UNL     1       6.083   6.504  16.917  0.00  0.00    +0.000 A 
ATOM      2  C   UNL     1       7.309   7.002  17.363  0.00  0.00    +0.000 A 
ATOM      3  C   UNL     1       7.849   6.512  18.545  0.00  0.00    +0.000 A 
ATOM      4  C   UNL     1       7.159   5.536  19.263  0.00  0.00    +0.000 A 
ATOM      5  C   UNL     1       5.938   5.035  18.826  0.00  0.00    +0.000 A 
ATOM      6  N   UNL     1       5.325   4.093  19.567  0.00  0.00    +0.000 NA
ATOM      7  C   UNL     1       4.145   3.626  19.121  0.00  0.00    +0.000 A 
ATOM      8  C   UNL     1       3.470   2.652  19.847  0.00  0.00    +0.000 A 
ATOM      9  C   UNL     1       2.243   2.143  19.417  0.00  0.00    +0.000 A 
ATOM     10  C   UNL     1       1.680   2.618  18.240  0.00  0.00    +0.000 A 
ATOM     11  C   UNL     1       2.351   3.595  17.503  0.00  0.00    +0.000 A 
ATOM     12  C   UNL     1       3.572   4.106  17.925  0.00  0.00    +0.000 A 
ATOM     13  N   UNL     1       4.186   5.045  17.188  0.00  0.00    +0.000 NA
ATOM     14  C   UNL     1       5.374   5.523  17.626  0.00  0.00    +0.000 A 
ENDROOT
BRANCH   1  15
ATOM     15  O   UNL     1       5.553   6.991  15.745  0.00  0.00    +0.000 OA
ATOM     16  H   UNL     1       4.587   6.918  15.768  0.00  0.00    +0.000 HD
ENDBRANCH   1  15
TORSDOF 1
ENDMDL
MODEL 5
REMARK VINA RESULT:      -7.2      2.254      2.850
REMARK  Name = 
REMARK  1 active torsions:
REMARK  status: ('A' for Active; 'I' for Inactive)
REMARK    1  A    between atoms: O_1  and  C_2
REMARK                            x       y       z     vdW  Elec       q    Type
REMARK                         _______ _______ _______ _____ _____    ______ ____
ROOT
ATOM      1  C   UNL     1       6.162   4.015  16.723  0.00  0.00    +0.000 A 
ATOM      2  C   UNL     1       7.348   4.724  16.924  0.00  0.00    +0.000 A 
ATOM      3  C   UNL     1       7.481   5.513  18.058  0.00  0.00    +0.000 A 
ATOM      4  C   UNL     1       6.432   5.584  18.974  0.00  0.00    +0.000 A 
ATOM      5  C   UNL     1       5.247   4.881  18.782  0.00  0.00    +0.000 A 
ATOM      6  N   UNL     1       4.274   4.993  19.704  0.00  0.00    +0.000 NA
ATOM      7  C   UNL     1       3.138   4.303  19.494  0.00  0.00    +0.000 A 
ATOM      8  C   UNL     1       2.102   4.383  20.415  0.00  0.00    +0.000 A 
ATOM      9  C   UNL     1       0.908   3.682  20.231  0.00  0.00    +0.000 A 
ATOM     10  C   UNL     1       0.749   2.888  19.104  0.00  0.00    +0.000 A 
ATOM     11  C   UNL     1       1.784   2.801  18.172  0.00  0.00    +0.000 A 
ATOM     12  C   UNL     1       2.974   3.495  18.349  0.00  0.00    +0.000 A 
ATOM     13  N   UNL     1       3.947   3.385  17.430  0.00  0.00    +0.000 NA
ATOM     14  C   UNL     1       5.095   4.074  17.632  0.00  0.00    +0.000 A 
ENDROOT
BRANCH   1  15
ATOM     15  O   UNL     1       6.035   3.235  15.598  0.00  0.00    +0.000 OA
ATOM     16  H   UNL     1       5.118   2.933  15.511  0.00  0.00    +0.000 HD
ENDBRANCH   1  15
TORSDOF 1
ENDMDL
MODEL 6
REMARK VINA RESULT:      -7.2      3.676      4.887
REMARK  Name = 
REMARK  1 active torsions:
REMARK  status: ('A' for Active; 'I' for Inactive)
REMARK    1  A    between atoms: O_1  and  C_2
REMARK                            x       y       z     vdW  Elec       q    Type
REMARK                         _______ _______ _______ _____ _____    ______ ____
ROOT
ATOM      1  C   UNL     1       7.769   5.159  13.244  0.00  0.00    +0.000 A 
ATOM      2  C   UNL     1       7.327   4.547  12.070  0.00  0.00    +0.000 A 
ATOM      3  C   UNL     1       6.225   3.703  12.120  0.00  0.00    +0.000 A 
ATOM      4  C   UNL     1       5.583   3.482  13.338  0.00  0.00    +0.000 A 
ATOM      5  C   UNL     1       6.017   4.089  14.512  0.00  0.00    +0.000 A 
ATOM      6  N   UNL     1       5.352   3.833  15.653  0.00  0.00    +0.000 NA
ATOM      7  C   UNL     1       5.793   4.432  16.775  0.00  0.00    +0.000 A 
ATOM      8  C   UNL     1       5.142   4.203  17.981  0.00  0.00    +0.000 A 
ATOM      9  C   UNL     1       5.571   4.806  19.165  0.00  0.00    +0.000 A 
ATOM     10  C   UNL     1       6.671   5.652  19.142  0.00  0.00    +0.000 A 
ATOM     11  C   UNL     1       7.331   5.888  17.936  0.00  0.00    +0.000 A 
ATOM     12  C   UNL     1       6.910   5.292  16.754  0.00  0.00    +0.000 A 
ATOM     13  N   UNL     1       7.572   5.546  15.613  0.00  0.00    +0.000 NA
ATOM     14  C   UNL     1       7.137   4.949  14.479  0.00  0.00    +0.000 A 
ENDROOT
BRANCH   1  15
ATOM     15  O   UNL     1       8.860   5.995  13.189  0.00  0.00    +0.000 OA
ATOM     16  H   UNL     1       9.281   6.041  14.061  0.00  0.00    +0.000 HD
ENDBRANCH   1  15
TORSDOF 1
ENDMDL
MODEL 7
REMARK VINA RESULT:      -7.2      2.729      5.180
REMARK  Name = 
REMARK  1 active torsions:
REMARK  status: ('A' for Active; 'I' for Inactive)
REMARK    1  A    between atoms: O_1  and  C_2
REMARK                            x       y       z     vdW  Elec       q    Type
REMARK                         _______ _______ _______ _____ _____    ______ ____
ROOT
ATOM      1  C   UNL     1       1.876   2.792  18.778  0.00  0.00    +0.000 A 
ATOM      2  C   UNL     1       1.037   2.997  19.876  0.00  0.00    +0.000 A 
ATOM      3  C   UNL     1       1.326   4.021  20.767  0.00  0.00    +0.000 A 
ATOM      4  C   UNL     1       2.446   4.824  20.552  0.00  0.00    +0.000 A 
ATOM      5  C   UNL     1       3.286   4.627  19.461  0.00  0.00    +0.000 A 
ATOM      6  N   UNL     1       4.350   5.438  19.312  0.00  0.00    +0.000 NA
ATOM      7  C   UNL     1       5.147   5.226  18.249  0.00  0.00    +0.000 A 
ATOM      8  C   UNL     1       6.258   6.035  18.047  0.00  0.00    +0.000 A 
ATOM      9  C   UNL     1       7.108   5.844  16.956  0.00  0.00    +0.000 A 
ATOM     10  C   UNL     1       6.842   4.826  16.051  0.00  0.00    +0.000 A 
ATOM     11  C   UNL     1       5.728   4.008  16.245  0.00  0.00    +0.000 A 
ATOM     12  C   UNL     1       4.878   4.191  17.328  0.00  0.00    +0.000 A 
ATOM     13  N   UNL     1       3.816   3.384  17.479  0.00  0.00    +0.000 NA
ATOM     14  C   UNL     1       3.007   3.589  18.545  0.00  0.00    +0.000 A 
ENDROOT
BRANCH   1  15
ATOM     15  O   UNL     1       1.585   1.777  17.898  0.00  0.00    +0.000 OA
ATOM     16  H   UNL     1       2.007   1.953  17.044  0.00  0.00    +0.000 HD
ENDBRANCH   1  15
TORSDOF 1
ENDMDL
MODEL 8
REMARK VINA RESULT:      -7.2      2.293      4.894
REMARK  Name = 
REMARK  1 active torsions:
REMARK  status: ('A' for Active; 'I' for Inactive)
REMARK    1  A    between atoms: O_1  and  C_2
REMARK                            x       y       z     vdW  Elec       q    Type
REMARK                         _______ _______ _______ _____ _____    ______ ____
ROOT
ATOM      1  C   UNL     1       2.228   4.541  20.203  0.00  0.00    +0.000 A 
ATOM      2  C   UNL     1       1.092   3.732  20.281  0.00  0.00    +0.000 A 
ATOM      3  C   UNL     1       0.853   2.803  19.279  0.00  0.00    +0.000 A 
ATOM      4  C   UNL     1       1.747   2.694  18.214  0.00  0.00    +0.000 A 
ATOM      5  C   UNL     1       2.880   3.496  18.128  0.00  0.00    +0.000 A 
ATOM      6  N   UNL     1       3.702   3.340  17.074  0.00  0.00    +0.000 NA
ATOM      7  C   UNL     1       4.791   4.128  17.016  0.00  0.00    +0.000 A 
ATOM      8  C   UNL     1       5.673   4.008  15.950  0.00  0.00    +0.000 A 
ATOM      9  C   UNL     1       6.813   4.809  15.854  0.00  0.00    +0.000 A 
ATOM     10  C   UNL     1       7.074   5.747  16.843  0.00  0.00    +0.000 A 
ATOM     11  C   UNL     1       6.194   5.876  17.918  0.00  0.00    +0.000 A 
ATOM     12  C   UNL     1       5.058   5.082  18.020  0.00  0.00    +0.000 A 
ATOM     13  N   UNL     1       4.236   5.236  19.070  0.00  0.00    +0.000 NA
ATOM     14  C   UNL     1       3.138   4.448  19.140  0.00  0.00    +0.000 A 
ENDROOT
BRANCH   1  15
ATOM     15  O   UNL     1       2.461   5.459  21.200  0.00  0.00    +0.000 OA
ATOM     16  H   UNL     1       2.596   5.001  22.042  0.00  0.00    +0.000 HD
ENDBRANCH   1  15
TORSDOF 1
ENDMDL
MODEL 9
REMARK VINA RESULT:      -7.1      2.188      5.437
REMARK  Name = 
REMARK  1 active torsions:
REMARK  status: ('A' for Active; 'I' for Inactive)
REMARK    1  A    between atoms: O_1  and  C_2
REMARK                            x       y       z     vdW  Elec       q    Type
REMARK                         _______ _______ _______ _____ _____    ______ ____
ROOT
ATOM      1  C   UNL     1       1.860   3.783  18.061  0.00  0.00    +0.000 A 
ATOM      2  C   UNL     1       1.348   2.701  18.780  0.00  0.00    +0.000 A 
ATOM      3  C   UNL     1       2.161   2.056  19.702  0.00  0.00    +0.000 A 
ATOM      4  C   UNL     1       3.471   2.497  19.892  0.00  0.00    +0.000 A 
ATOM      5  C   UNL     1       3.988   3.574  19.179  0.00  0.00    +0.000 A 
ATOM      6  N   UNL     1       5.259   3.949  19.411  0.00  0.00    +0.000 NA
ATOM      7  C   UNL     1       5.735   4.993  18.708  0.00  0.00    +0.000 A 
ATOM      8  C   UNL     1       7.041   5.422  18.909  0.00  0.00    +0.000 A 
ATOM      9  C   UNL     1       7.570   6.502  18.199  0.00  0.00    +0.000 A 
ATOM     10  C   UNL     1       6.778   7.163  17.270  0.00  0.00    +0.000 A 
ATOM     11  C   UNL     1       5.465   6.739  17.061  0.00  0.00    +0.000 A 
ATOM     12  C   UNL     1       4.932   5.666  17.764  0.00  0.00    +0.000 A 
ATOM     13  N   UNL     1       3.664   5.290  17.535  0.00  0.00    +0.000 NA
ATOM     14  C   UNL     1       3.174   4.241  18.237  0.00  0.00    +0.000 A 
ENDROOT
BRANCH   1  15
ATOM     15  O   UNL     1       1.050   4.419  17.150  0.00  0.00    +0.000 OA
ATOM     16  H   UNL     1       0.122   4.215  17.338  0.00  0.00    +0.000 HD
ENDBRANCH   1  15
TORSDOF 1
ENDMDL
