MODEL 1
REMARK VINA RESULT:      -9.5      0.000      0.000
REMARK  Name = 
REMARK  5 active torsions:
REMARK  status: ('A' for Active; 'I' for Inactive)
REMARK    1  A    between atoms: C_1  and  N_2
REMARK    2  A    between atoms: C_4  and  C_5
REMARK    3  A    between atoms: C_9  and  O_10
REMARK    4  A    between atoms: O_10  and  C_11
REMARK    5  A    between atoms: C_15  and  C_16
REMARK                            x       y       z     vdW  Elec       q    Type
REMARK                         _______ _______ _______ _____ _____    ______ ____
ROOT
ATOM      1  C   UNL     1       1.327   8.951  19.224  0.00  0.00    +0.000 A 
ATOM      2  C   UNL     1       1.030   9.003  20.598  0.00  0.00    +0.000 A 
ATOM      3  C   UNL     1       0.128   9.940  21.107  0.00  0.00    +0.000 A 
ATOM      4  C   UNL     1      -0.494  10.836  20.243  0.00  0.00    +0.000 A 
ATOM      5  C   UNL     1      -0.219  10.799  18.874  0.00  0.00    +0.000 A 
ATOM      6  C   UNL     1       0.710   9.877  18.373  0.00  0.00    +0.000 A 
ENDROOT
BRANCH   1  10
ATOM      7  C   UNL     1       4.853   6.957  16.366  0.00  0.00    +0.000 C 
ATOM      8  N   UNL     1       3.836   7.074  17.386  0.00  0.00    +0.000 N 
ATOM      9  C   UNL     1       3.104   8.201  17.641  0.00  0.00    +0.000 A 
ATOM     10  C   UNL     1       2.249   7.943  18.702  0.00  0.00    +0.000 A 
ATOM     11  C   UNL     1       2.535   6.604  19.131  0.00  0.00    +0.000 A 
ATOM     12  N   UNL     1       2.015   5.886  20.160  0.00  0.00    +0.000 NA
ATOM     13  C   UNL     1       2.498   4.647  20.336  0.00  0.00    +0.000 A 
ATOM     14  C   UNL     1       2.048   3.896  21.418  0.00  0.00    +0.000 A 
ATOM     15  C   UNL     1       2.526   2.605  21.681  0.00  0.00    +0.000 A 
ATOM     16  C   UNL     1       3.470   2.032  20.841  0.00  0.00    +0.000 A 
ATOM     17  C   UNL     1       3.930   2.749  19.742  0.00  0.00    +0.000 A 
ATOM     18  C   UNL     1       3.461   4.049  19.494  0.00  0.00    +0.000 A 
ATOM     19  C   UNL     1       3.963   4.776  18.416  0.00  0.00    +0.000 A 
ATOM     20  C   UNL     1       3.500   6.082  18.271  0.00  0.00    +0.000 A 
ENDBRANCH   1  10
BRANCH   5  21
ATOM     21  O   UNL     1      -0.836  11.771  18.124  0.00  0.00    +0.000 OA
BRANCH  21  22
ATOM     22  C   UNL     1      -2.115  11.547  17.640  0.00  0.00    +0.000 A 
ATOM     23  N   UNL     1      -2.297  11.143  16.372  0.00  0.00    +0.000 NA
ATOM     24  C   UNL     1      -3.569  10.935  16.001  0.00  0.00    +0.000 A 
ATOM     25  C   UNL     1      -4.641  11.070  16.853  0.00  0.00    +0.000 A 
ATOM     26  C   UNL     1      -4.355  11.452  18.152  0.00  0.00    +0.000 A 
ATOM     27  N   UNL     1      -3.089  11.691  18.553  0.00  0.00    +0.000 NA
BRANCH  26  28
ATOM     28  C   UNL     1      -5.388  11.672  19.170  0.00  0.00    +0.000 A 
ATOM     29  C   UNL     1      -5.263  12.549  20.235  0.00  0.00    +0.000 A 
ATOM     30  N   UNL     1      -6.187  12.726  21.207  0.00  0.00    +0.000 NA
ATOM     31  C   UNL     1      -7.301  11.990  21.087  0.00  0.00    +0.000 A 
ATOM     32  N   UNL     1      -7.565  11.125  20.099  0.00  0.00    +0.000 NA
ATOM     33  C   UNL     1      -6.599  10.997  19.160  0.00  0.00    +0.000 A 
ENDBRANCH  26  28
ENDBRANCH  21  22
ENDBRANCH   5  21
TORSDOF 4
ENDMDL
MODEL 2
REMARK VINA RESULT:      -9.4      1.389      3.212
REMARK  Name = 
REMARK  5 active torsions:
REMARK  status: ('A' for Active; 'I' for Inactive)
REMARK    1  A    between atoms: C_1  and  N_2
REMARK    2  A    between atoms: C_4  and  C_5
REMARK    3  A    between atoms: C_9  and  O_10
REMARK    4  A    between atoms: O_10  and  C_11
REMARK    5  A    between atoms: C_15  and  C_16
REMARK                            x       y       z     vdW  Elec       q    Type
REMARK                         _______ _______ _______ _____ _____    ______ ____
ROOT
ATOM      1  C   UNL     1       1.542   7.935  20.392  0.00  0.00    +0.000 A 
ATOM      2  C   UNL     1       1.512   8.446  21.702  0.00  0.00    +0.000 A 
ATOM      3  C   UNL     1       1.007   9.720  21.968  0.00  0.00    +0.000 A 
ATOM      4  C   UNL     1       0.519  10.499  20.924  0.00  0.00    +0.000 A 
ATOM      5  C   UNL     1       0.534  10.010  19.616  0.00  0.00    +0.000 A 
ATOM      6  C   UNL     1       1.070   8.743  19.350  0.00  0.00    +0.000 A 
ENDROOT
BRANCH   1  10
ATOM      7  C   UNL     1       2.129   3.041  20.931  0.00  0.00    +0.000 C 
ATOM      8  N   UNL     1       2.294   4.380  20.412  0.00  0.00    +0.000 N 
ATOM      9  C   UNL     1       1.660   5.493  20.894  0.00  0.00    +0.000 A 
ATOM     10  C   UNL     1       2.045   6.586  20.132  0.00  0.00    +0.000 A 
ATOM     11  C   UNL     1       2.912   6.076  19.109  0.00  0.00    +0.000 A 
ATOM     12  N   UNL     1       3.520   6.719  18.078  0.00  0.00    +0.000 NA
ATOM     13  C   UNL     1       4.266   5.967  17.254  0.00  0.00    +0.000 A 
ATOM     14  C   UNL     1       4.853   6.566  16.143  0.00  0.00    +0.000 A 
ATOM     15  C   UNL     1       5.624   5.840  15.225  0.00  0.00    +0.000 A 
ATOM     16  C   UNL     1       5.832   4.481  15.416  0.00  0.00    +0.000 A 
ATOM     17  C   UNL     1       5.272   3.854  16.524  0.00  0.00    +0.000 A 
ATOM     18  C   UNL     1       4.486   4.583  17.431  0.00  0.00    +0.000 A 
ATOM     19  C   UNL     1       3.892   3.936  18.513  0.00  0.00    +0.000 A 
ATOM     20  C   UNL     1       3.072   4.709  19.333  0.00  0.00    +0.000 A 
ENDBRANCH   1  10
BRANCH   5  21
ATOM     21  O   UNL     1       0.091  10.888  18.656  0.00  0.00    +0.000 OA
BRANCH  21  22
ATOM     22  C   UNL     1      -1.202  10.772  18.173  0.00  0.00    +0.000 A 
ATOM     23  N   UNL     1      -1.476   9.925  17.168  0.00  0.00    +0.000 NA
ATOM     24  C   UNL     1      -2.759   9.869  16.782  0.00  0.00    +0.000 A 
ATOM     25  C   UNL     1      -3.766  10.585  17.387  0.00  0.00    +0.000 A 
ATOM     26  C   UNL     1      -3.398  11.403  18.440  0.00  0.00    +0.000 A 
ATOM     27  N   UNL     1      -2.112  11.500  18.840  0.00  0.00    +0.000 NA
BRANCH  26  28
ATOM     28  C   UNL     1      -4.346  12.255  19.166  0.00  0.00    +0.000 A 
ATOM     29  C   UNL     1      -5.641  12.516  18.749  0.00  0.00    +0.000 A 
ATOM     30  N   UNL     1      -6.509  13.337  19.383  0.00  0.00    +0.000 NA
ATOM     31  C   UNL     1      -6.050  13.911  20.504  0.00  0.00    +0.000 A 
ATOM     32  N   UNL     1      -4.834  13.729  21.034  0.00  0.00    +0.000 NA
ATOM     33  C   UNL     1      -4.016  12.896  20.351  0.00  0.00    +0.000 A 
ENDBRANCH  26  28
ENDBRANCH  21  22
ENDBRANCH   5  21
TORSDOF 4
ENDMDL
MODEL 3
REMARK VINA RESULT:      -9.4      2.737      4.350
REMARK  Name = 
REMARK  5 active torsions:
REMARK  status: ('A' for Active; 'I' for Inactive)
REMARK    1  A    between atoms: C_1  and  N_2
REMARK    2  A    between atoms: C_4  and  C_5
REMARK    3  A    between atoms: C_9  and  O_10
REMARK    4  A    between atoms: O_10  and  C_11
REMARK    5  A    between atoms: C_15  and  C_16
REMARK                            x       y       z     vdW  Elec       q    Type
REMARK                         _______ _______ _______ _____ _____    ______ ____
ROOT
ATOM      1  C   UNL     1       1.726   7.961  19.851  0.00  0.00    +0.000 A 
ATOM      2  C   UNL     1       1.595   8.768  18.706  0.00  0.00    +0.000 A 
ATOM      3  C   UNL     1       1.100  10.071  18.794  0.00  0.00    +0.000 A 
ATOM      4  C   UNL     1       0.734  10.586  20.034  0.00  0.00    +0.000 A 
ATOM      5  C   UNL     1       0.862   9.805  21.184  0.00  0.00    +0.000 A 
ATOM      6  C   UNL     1       1.329   8.487  21.086  0.00  0.00    +0.000 A 
ENDROOT
BRANCH   1  10
ATOM      7  C   UNL     1       2.471   3.183  20.942  0.00  0.00    +0.000 C 
ATOM      8  N   UNL     1       2.595   4.459  20.275  0.00  0.00    +0.000 N 
ATOM      9  C   UNL     1       1.921   5.597  20.627  0.00  0.00    +0.000 A 
ATOM     10  C   UNL     1       2.275   6.609  19.747  0.00  0.00    +0.000 A 
ATOM     11  C   UNL     1       3.165   6.016  18.790  0.00  0.00    +0.000 A 
ATOM     12  N   UNL     1       3.758   6.559  17.694  0.00  0.00    +0.000 NA
ATOM     13  C   UNL     1       4.533   5.745  16.963  0.00  0.00    +0.000 A 
ATOM     14  C   UNL     1       5.108   6.233  15.793  0.00  0.00    +0.000 A 
ATOM     15  C   UNL     1       5.908   5.435  14.964  0.00  0.00    +0.000 A 
ATOM     16  C   UNL     1       6.159   4.114  15.309  0.00  0.00    +0.000 A 
ATOM     17  C   UNL     1       5.614   3.598  16.480  0.00  0.00    +0.000 A 
ATOM     18  C   UNL     1       4.798   4.398  17.296  0.00  0.00    +0.000 A 
ATOM     19  C   UNL     1       4.218   3.857  18.443  0.00  0.00    +0.000 A 
ATOM     20  C   UNL     1       3.369   4.690  19.168  0.00  0.00    +0.000 A 
ENDBRANCH   1  10
BRANCH   5  21
ATOM     21  O   UNL     1       0.409  10.389  22.343  0.00  0.00    +0.000 OA
BRANCH  21  22
ATOM     22  C   UNL     1      -0.242  11.610  22.281  0.00  0.00    +0.000 A 
ATOM     23  N   UNL     1       0.402  12.698  21.828  0.00  0.00    +0.000 NA
ATOM     24  C   UNL     1      -0.316  13.829  21.787  0.00  0.00    +0.000 A 
ATOM     25  C   UNL     1      -1.646  13.898  22.134  0.00  0.00    +0.000 A 
ATOM     26  C   UNL     1      -2.238  12.720  22.552  0.00  0.00    +0.000 A 
ATOM     27  N   UNL     1      -1.539  11.568  22.626  0.00  0.00    +0.000 NA
BRANCH  26  28
ATOM     28  C   UNL     1      -3.636  12.634  22.988  0.00  0.00    +0.000 A 
ATOM     29  C   UNL     1      -4.036  12.377  24.289  0.00  0.00    +0.000 A 
ATOM     30  N   UNL     1      -5.320  12.249  24.694  0.00  0.00    +0.000 NA
ATOM     31  C   UNL     1      -6.247  12.402  23.738  0.00  0.00    +0.000 A 
ATOM     32  N   UNL     1      -6.005  12.676  22.450  0.00  0.00    +0.000 NA
ATOM     33  C   UNL     1      -4.700  12.793  22.112  0.00  0.00    +0.000 A 
ENDBRANCH  26  28
ENDBRANCH  21  22
ENDBRANCH   5  21
TORSDOF 4
ENDMDL
MODEL 4
REMARK VINA RESULT:      -9.3      2.390     10.193
REMARK  Name = 
REMARK  5 active torsions:
REMARK  status: ('A' for Active; 'I' for Inactive)
REMARK    1  A    between atoms: C_1  and  N_2
REMARK    2  A    between atoms: C_4  and  C_5
REMARK    3  A    between atoms: C_9  and  O_10
REMARK    4  A    between atoms: O_10  and  C_11
REMARK    5  A    between atoms: C_15  and  C_16
REMARK                            x       y       z     vdW  Elec       q    Type
REMARK                         _______ _______ _______ _____ _____    ______ ____
ROOT
ATOM      1  C   UNL     1       0.713  10.012  19.569  0.00  0.00    +0.000 A 
ATOM      2  C   UNL     1       1.254  10.375  18.322  0.00  0.00    +0.000 A 
ATOM      3  C   UNL     1       2.154   9.541  17.656  0.00  0.00    +0.000 A 
ATOM      4  C   UNL     1       2.520   8.327  18.227  0.00  0.00    +0.000 A 
ATOM      5  C   UNL     1       1.990   7.944  19.462  0.00  0.00    +0.000 A 
ATOM      6  C   UNL     1       1.112   8.798  20.141  0.00  0.00    +0.000 A 
ENDROOT
BRANCH   1  10
ATOM      7  C   UNL     1      -1.148  13.055  23.013  0.00  0.00    +0.000 C 
ATOM      8  N   UNL     1      -1.063  12.244  21.819  0.00  0.00    +0.000 N 
ATOM      9  C   UNL     1       0.026  11.503  21.449  0.00  0.00    +0.000 A 
ATOM     10  C   UNL     1      -0.252  10.883  20.240  0.00  0.00    +0.000 A 
ATOM     11  C   UNL     1      -1.560  11.330  19.852  0.00  0.00    +0.000 A 
ATOM     12  N   UNL     1      -2.277  11.060  18.730  0.00  0.00    +0.000 NA
ATOM     13  C   UNL     1      -3.480  11.646  18.628  0.00  0.00    +0.000 A 
ATOM     14  C   UNL     1      -4.225  11.458  17.468  0.00  0.00    +0.000 A 
ATOM     15  C   UNL     1      -5.477  12.059  17.279  0.00  0.00    +0.000 A 
ATOM     16  C   UNL     1      -6.016  12.862  18.275  0.00  0.00    +0.000 A 
ATOM     17  C   UNL     1      -5.305  13.059  19.453  0.00  0.00    +0.000 A 
ATOM     18  C   UNL     1      -4.043  12.469  19.629  0.00  0.00    +0.000 A 
ATOM     19  C   UNL     1      -3.319  12.711  20.795  0.00  0.00    +0.000 A 
ATOM     20  C   UNL     1      -2.048  12.146  20.871  0.00  0.00    +0.000 A 
ENDBRANCH   1  10
BRANCH   5  21
ATOM     21  O   UNL     1       2.471   6.758  19.964  0.00  0.00    +0.000 OA
BRANCH  21  22
ATOM     22  C   UNL     1       2.604   5.666  19.122  0.00  0.00    +0.000 A 
ATOM     23  N   UNL     1       1.665   4.707  19.103  0.00  0.00    +0.000 NA
ATOM     24  C   UNL     1       1.873   3.700  18.242  0.00  0.00    +0.000 A 
ATOM     25  C   UNL     1       2.945   3.645  17.382  0.00  0.00    +0.000 A 
ATOM     26  C   UNL     1       3.843   4.697  17.443  0.00  0.00    +0.000 A 
ATOM     27  N   UNL     1       3.675   5.715  18.313  0.00  0.00    +0.000 NA
BRANCH  26  28
ATOM     28  C   UNL     1       5.053   4.770  16.617  0.00  0.00    +0.000 A 
ATOM     29  C   UNL     1       6.053   5.716  16.775  0.00  0.00    +0.000 A 
ATOM     30  N   UNL     1       7.150   5.823  15.991  0.00  0.00    +0.000 NA
ATOM     31  C   UNL     1       7.248   4.918  15.007  0.00  0.00    +0.000 A 
ATOM     32  N   UNL     1       6.373   3.937  14.756  0.00  0.00    +0.000 NA
ATOM     33  C   UNL     1       5.299   3.886  15.578  0.00  0.00    +0.000 A 
ENDBRANCH  26  28
ENDBRANCH  21  22
ENDBRANCH   5  21
TORSDOF 4
ENDMDL
MODEL 5
REMARK VINA RESULT:      -9.2      3.623      4.991
REMARK  Name = 
REMARK  5 active torsions:
REMARK  status: ('A' for Active; 'I' for Inactive)
REMARK    1  A    between atoms: C_1  and  N_2
REMARK    2  A    between atoms: C_4  and  C_5
REMARK    3  A    between atoms: C_9  and  O_10
REMARK    4  A    between atoms: O_10  and  C_11
REMARK    5  A    between atoms: C_15  and  C_16
REMARK                            x       y       z     vdW  Elec       q    Type
REMARK                         _______ _______ _______ _____ _____    ______ ____
ROOT
ATOM      1  C   UNL     1       1.596   8.020  20.303  0.00  0.00    +0.000 A 
ATOM      2  C   UNL     1       1.354   8.476  21.612  0.00  0.00    +0.000 A 
ATOM      3  C   UNL     1       0.861   9.761  21.848  0.00  0.00    +0.000 A 
ATOM      4  C   UNL     1       0.598  10.606  20.775  0.00  0.00    +0.000 A 
ATOM      5  C   UNL     1       0.826  10.172  19.467  0.00  0.00    +0.000 A 
ATOM      6  C   UNL     1       1.350   8.892  19.236  0.00  0.00    +0.000 A 
ENDROOT
BRANCH   1  10
ATOM      7  C   UNL     1       2.115   3.129  20.928  0.00  0.00    +0.000 C 
ATOM      8  N   UNL     1       2.301   4.457  20.388  0.00  0.00    +0.000 N 
ATOM      9  C   UNL     1       1.679   5.585  20.847  0.00  0.00    +0.000 A 
ATOM     10  C   UNL     1       2.083   6.660  20.070  0.00  0.00    +0.000 A 
ATOM     11  C   UNL     1       2.949   6.121  19.060  0.00  0.00    +0.000 A 
ATOM     12  N   UNL     1       3.572   6.739  18.022  0.00  0.00    +0.000 NA
ATOM     13  C   UNL     1       4.313   5.964  17.216  0.00  0.00    +0.000 A 
ATOM     14  C   UNL     1       4.914   6.536  16.099  0.00  0.00    +0.000 A 
ATOM     15  C   UNL     1       5.681   5.785  15.197  0.00  0.00    +0.000 A 
ATOM     16  C   UNL     1       5.869   4.427  15.413  0.00  0.00    +0.000 A 
ATOM     17  C   UNL     1       5.295   3.827  16.528  0.00  0.00    +0.000 A 
ATOM     18  C   UNL     1       4.513   4.580  17.418  0.00  0.00    +0.000 A 
ATOM     19  C   UNL     1       3.904   3.959  18.506  0.00  0.00    +0.000 A 
ATOM     20  C   UNL     1       3.090   4.757  19.308  0.00  0.00    +0.000 A 
ENDBRANCH   1  10
BRANCH   5  21
ATOM     21  O   UNL     1       0.596  11.110  18.489  0.00  0.00    +0.000 OA
BRANCH  21  22
ATOM     22  C   UNL     1       1.160  12.369  18.608  0.00  0.00    +0.000 A 
ATOM     23  N   UNL     1       2.487  12.532  18.484  0.00  0.00    +0.000 NA
ATOM     24  C   UNL     1       2.936  13.790  18.596  0.00  0.00    +0.000 A 
ATOM     25  C   UNL     1       2.113  14.877  18.779  0.00  0.00    +0.000 A 
ATOM     26  C   UNL     1       0.755  14.620  18.856  0.00  0.00    +0.000 A 
ATOM     27  N   UNL     1       0.271  13.363  18.769  0.00  0.00    +0.000 NA
BRANCH  26  28
ATOM     28  C   UNL     1      -0.249  15.665  19.083  0.00  0.00    +0.000 A 
ATOM     29  C   UNL     1      -1.155  15.665  20.131  0.00  0.00    +0.000 A 
ATOM     30  N   UNL     1      -2.116  16.597  20.324  0.00  0.00    +0.000 NA
ATOM     31  C   UNL     1      -2.153  17.587  19.421  0.00  0.00    +0.000 A 
ATOM     32  N   UNL     1      -1.326  17.725  18.378  0.00  0.00    +0.000 NA
ATOM     33  C   UNL     1      -0.387  16.759  18.243  0.00  0.00    +0.000 A 
ENDBRANCH  26  28
ENDBRANCH  21  22
ENDBRANCH   5  21
TORSDOF 4
ENDMDL
MODEL 6
REMARK VINA RESULT:      -9.1      2.479      3.291
REMARK  Name = 
REMARK  5 active torsions:
REMARK  status: ('A' for Active; 'I' for Inactive)
REMARK    1  A    between atoms: C_1  and  N_2
REMARK    2  A    between atoms: C_4  and  C_5
REMARK    3  A    between atoms: C_9  and  O_10
REMARK    4  A    between atoms: O_10  and  C_11
REMARK    5  A    between atoms: C_15  and  C_16
REMARK                            x       y       z     vdW  Elec       q    Type
REMARK                         _______ _______ _______ _____ _____    ______ ____
ROOT
ATOM      1  C   UNL     1       1.401   8.830  18.896  0.00  0.00    +0.000 A 
ATOM      2  C   UNL     1       0.622   9.493  17.930  0.00  0.00    +0.000 A 
ATOM      3  C   UNL     1      -0.294  10.482  18.296  0.00  0.00    +0.000 A 
ATOM      4  C   UNL     1      -0.437  10.826  19.637  0.00  0.00    +0.000 A 
ATOM      5  C   UNL     1       0.331  10.185  20.612  0.00  0.00    +0.000 A 
ATOM      6  C   UNL     1       1.226   9.172  20.243  0.00  0.00    +0.000 A 
ENDROOT
BRANCH   1  10
ATOM      7  C   UNL     1       5.181   6.785  16.426  0.00  0.00    +0.000 C 
ATOM      8  N   UNL     1       4.081   6.924  17.352  0.00  0.00    +0.000 N 
ATOM      9  C   UNL     1       3.315   8.049  17.498  0.00  0.00    +0.000 A 
ATOM     10  C   UNL     1       2.378   7.819  18.494  0.00  0.00    +0.000 A 
ATOM     11  C   UNL     1       2.645   6.502  19.000  0.00  0.00    +0.000 A 
ATOM     12  N   UNL     1       2.050   5.817  20.011  0.00  0.00    +0.000 NA
ATOM     13  C   UNL     1       2.533   4.594  20.277  0.00  0.00    +0.000 A 
ATOM     14  C   UNL     1       2.004   3.880  21.348  0.00  0.00    +0.000 A 
ATOM     15  C   UNL     1       2.476   2.609  21.703  0.00  0.00    +0.000 A 
ATOM     16  C   UNL     1       3.495   2.019  20.968  0.00  0.00    +0.000 A 
ATOM     17  C   UNL     1       4.036   2.699  19.882  0.00  0.00    +0.000 A 
ATOM     18  C   UNL     1       3.572   3.980  19.543  0.00  0.00    +0.000 A 
ATOM     19  C   UNL     1       4.153   4.672  18.482  0.00  0.00    +0.000 A 
ATOM     20  C   UNL     1       3.686   5.963  18.245  0.00  0.00    +0.000 A 
ENDBRANCH   1  10
BRANCH   5  21
ATOM     21  O   UNL     1       0.061  10.555  21.908  0.00  0.00    +0.000 OA
BRANCH  21  22
ATOM     22  C   UNL     1      -0.477  11.805  22.161  0.00  0.00    +0.000 A 
ATOM     23  N   UNL     1       0.258  12.912  21.964  0.00  0.00    +0.000 NA
ATOM     24  C   UNL     1      -0.356  14.076  22.218  0.00  0.00    +0.000 A 
ATOM     25  C   UNL     1      -1.672  14.172  22.611  0.00  0.00    +0.000 A 
ATOM     26  C   UNL     1      -2.364  12.982  22.751  0.00  0.00    +0.000 A 
ATOM     27  N   UNL     1      -1.770  11.791  22.524  0.00  0.00    +0.000 NA
BRANCH  26  28
ATOM     28  C   UNL     1      -3.760  12.912  23.195  0.00  0.00    +0.000 A 
ATOM     29  C   UNL     1      -4.182  12.289  24.358  0.00  0.00    +0.000 A 
ATOM     30  N   UNL     1      -5.470  12.176  24.754  0.00  0.00    +0.000 NA
ATOM     31  C   UNL     1      -6.377  12.735  23.940  0.00  0.00    +0.000 A 
ATOM     32  N   UNL     1      -6.110  13.389  22.803  0.00  0.00    +0.000 NA
ATOM     33  C   UNL     1      -4.802  13.466  22.465  0.00  0.00    +0.000 A 
ENDBRANCH  26  28
ENDBRANCH  21  22
ENDBRANCH   5  21
TORSDOF 4
ENDMDL
MODEL 7
REMARK VINA RESULT:      -9.0      0.945      1.251
REMARK  Name = 
REMARK  5 active torsions:
REMARK  status: ('A' for Active; 'I' for Inactive)
REMARK    1  A    between atoms: C_1  and  N_2
REMARK    2  A    between atoms: C_4  and  C_5
REMARK    3  A    between atoms: C_9  and  O_10
REMARK    4  A    between atoms: O_10  and  C_11
REMARK    5  A    between atoms: C_15  and  C_16
REMARK                            x       y       z     vdW  Elec       q    Type
REMARK                         _______ _______ _______ _____ _____    ______ ____
ROOT
ATOM      1  C   UNL     1       1.490   8.733  19.012  0.00  0.00    +0.000 A 
ATOM      2  C   UNL     1       1.223   8.645  20.390  0.00  0.00    +0.000 A 
ATOM      3  C   UNL     1       0.333   9.525  21.010  0.00  0.00    +0.000 A 
ATOM      4  C   UNL     1      -0.307  10.503  20.254  0.00  0.00    +0.000 A 
ATOM      5  C   UNL     1      -0.061  10.604  18.883  0.00  0.00    +0.000 A 
ATOM      6  C   UNL     1       0.856   9.738  18.272  0.00  0.00    +0.000 A 
ENDROOT
BRANCH   1  10
ATOM      7  C   UNL     1       5.324   7.109  16.319  0.00  0.00    +0.000 C 
ATOM      8  N   UNL     1       4.134   7.088  17.140  0.00  0.00    +0.000 N 
ATOM      9  C   UNL     1       3.476   8.196  17.599  0.00  0.00    +0.000 A 
ATOM     10  C   UNL     1       2.401   7.784  18.371  0.00  0.00    +0.000 A 
ATOM     11  C   UNL     1       2.463   6.351  18.413  0.00  0.00    +0.000 A 
ATOM     12  N   UNL     1       1.676   5.461  19.071  0.00  0.00    +0.000 NA
ATOM     13  C   UNL     1       1.992   4.163  18.940  0.00  0.00    +0.000 A 
ATOM     14  C   UNL     1       1.260   3.217  19.650  0.00  0.00    +0.000 A 
ATOM     15  C   UNL     1       1.548   1.847  19.584  0.00  0.00    +0.000 A 
ATOM     16  C   UNL     1       2.587   1.396  18.781  0.00  0.00    +0.000 A 
ATOM     17  C   UNL     1       3.329   2.314  18.046  0.00  0.00    +0.000 A 
ATOM     18  C   UNL     1       3.047   3.687  18.131  0.00  0.00    +0.000 A 
ATOM     19  C   UNL     1       3.828   4.602  17.426  0.00  0.00    +0.000 A 
ATOM     20  C   UNL     1       3.531   5.951  17.610  0.00  0.00    +0.000 A 
ENDBRANCH   1  10
BRANCH   5  21
ATOM     21  O   UNL     1      -0.694  11.646  18.249  0.00  0.00    +0.000 OA
BRANCH  21  22
ATOM     22  C   UNL     1      -1.957  11.451  17.715  0.00  0.00    +0.000 A 
ATOM     23  N   UNL     1      -2.100  11.005  16.457  0.00  0.00    +0.000 NA
ATOM     24  C   UNL     1      -3.361  10.830  16.036  0.00  0.00    +0.000 A 
ATOM     25  C   UNL     1      -4.463  11.038  16.833  0.00  0.00    +0.000 A 
ATOM     26  C   UNL     1      -4.220  11.460  18.129  0.00  0.00    +0.000 A 
ATOM     27  N   UNL     1      -2.964  11.667  18.577  0.00  0.00    +0.000 NA
BRANCH  26  28
ATOM     28  C   UNL     1      -5.287  11.758  19.090  0.00  0.00    +0.000 A 
ATOM     29  C   UNL     1      -6.515  11.117  19.119  0.00  0.00    +0.000 A 
ATOM     30  N   UNL     1      -7.524  11.415  19.969  0.00  0.00    +0.000 NA
ATOM     31  C   UNL     1      -7.274  12.400  20.843  0.00  0.00    +0.000 A 
ATOM     32  N   UNL     1      -6.128  13.084  20.943  0.00  0.00    +0.000 NA
ATOM     33  C   UNL     1      -5.159  12.736  20.065  0.00  0.00    +0.000 A 
ENDBRANCH  26  28
ENDBRANCH  21  22
ENDBRANCH   5  21
TORSDOF 4
ENDMDL
MODEL 8
REMARK VINA RESULT:      -9.0      2.113      4.235
REMARK  Name = 
REMARK  5 active torsions:
REMARK  status: ('A' for Active; 'I' for Inactive)
REMARK    1  A    between atoms: C_1  and  N_2
REMARK    2  A    between atoms: C_4  and  C_5
REMARK    3  A    between atoms: C_9  and  O_10
REMARK    4  A    between atoms: O_10  and  C_11
REMARK    5  A    between atoms: C_15  and  C_16
REMARK                            x       y       z     vdW  Elec       q    Type
REMARK                         _______ _______ _______ _____ _____    ______ ____
ROOT
ATOM      1  C   UNL     1       1.860   8.011  19.661  0.00  0.00    +0.000 A 
ATOM      2  C   UNL     1       1.815   8.825  18.515  0.00  0.00    +0.000 A 
ATOM      3  C   UNL     1       1.355  10.141  18.582  0.00  0.00    +0.000 A 
ATOM      4  C   UNL     1       0.938  10.664  19.803  0.00  0.00    +0.000 A 
ATOM      5  C   UNL     1       0.980   9.875  20.955  0.00  0.00    +0.000 A 
ATOM      6  C   UNL     1       1.413   8.545  20.877  0.00  0.00    +0.000 A 
ENDROOT
BRANCH   1  10
ATOM      7  C   UNL     1       2.476   3.232  20.830  0.00  0.00    +0.000 C 
ATOM      8  N   UNL     1       2.635   4.494  20.144  0.00  0.00    +0.000 N 
ATOM      9  C   UNL     1       1.990   5.655  20.475  0.00  0.00    +0.000 A 
ATOM     10  C   UNL     1       2.374   6.644  19.581  0.00  0.00    +0.000 A 
ATOM     11  C   UNL     1       3.252   6.012  18.638  0.00  0.00    +0.000 A 
ATOM     12  N   UNL     1       3.864   6.522  17.537  0.00  0.00    +0.000 NA
ATOM     13  C   UNL     1       4.621   5.677  16.821  0.00  0.00    +0.000 A 
ATOM     14  C   UNL     1       5.212   6.132  15.647  0.00  0.00    +0.000 A 
ATOM     15  C   UNL     1       5.995   5.300  14.834  0.00  0.00    +0.000 A 
ATOM     16  C   UNL     1       6.210   3.978  15.201  0.00  0.00    +0.000 A 
ATOM     17  C   UNL     1       5.646   3.495  16.377  0.00  0.00    +0.000 A 
ATOM     18  C   UNL     1       4.848   4.328  17.177  0.00  0.00    +0.000 A 
ATOM     19  C   UNL     1       4.250   3.821  18.329  0.00  0.00    +0.000 A 
ATOM     20  C   UNL     1       3.419   4.687  19.037  0.00  0.00    +0.000 A 
ENDBRANCH   1  10
BRANCH   5  21
ATOM     21  O   UNL     1       0.483  10.469  22.091  0.00  0.00    +0.000 OA
BRANCH  21  22
ATOM     22  C   UNL     1      -0.447  11.489  21.974  0.00  0.00    +0.000 A 
ATOM     23  N   UNL     1      -0.429  12.523  22.830  0.00  0.00    +0.000 NA
ATOM     24  C   UNL     1      -1.356  13.470  22.626  0.00  0.00    +0.000 A 
ATOM     25  C   UNL     1      -2.254  13.441  21.584  0.00  0.00    +0.000 A 
ATOM     26  C   UNL     1      -2.175  12.357  20.728  0.00  0.00    +0.000 A 
ATOM     27  N   UNL     1      -1.268  11.375  20.918  0.00  0.00    +0.000 NA
BRANCH  26  28
ATOM     28  C   UNL     1      -3.082  12.162  19.592  0.00  0.00    +0.000 A 
ATOM     29  C   UNL     1      -4.438  12.444  19.616  0.00  0.00    +0.000 A 
ATOM     30  N   UNL     1      -5.294  12.224  18.592  0.00  0.00    +0.000 NA
ATOM     31  C   UNL     1      -4.748  11.708  17.482  0.00  0.00    +0.000 A 
ATOM     32  N   UNL     1      -3.454  11.411  17.311  0.00  0.00    +0.000 NA
ATOM     33  C   UNL     1      -2.653  11.656  18.374  0.00  0.00    +0.000 A 
ENDBRANCH  26  28
ENDBRANCH  21  22
ENDBRANCH   5  21
TORSDOF 4
ENDMDL
MODEL 9
REMARK VINA RESULT:      -9.0      1.861      3.696
REMARK  Name = 
REMARK  5 active torsions:
REMARK  status: ('A' for Active; 'I' for Inactive)
REMARK    1  A    between atoms: C_1  and  N_2
REMARK    2  A    between atoms: C_4  and  C_5
REMARK    3  A    between atoms: C_9  and  O_10
REMARK    4  A    between atoms: O_10  and  C_11
REMARK    5  A    between atoms: C_15  and  C_16
REMARK                            x       y       z     vdW  Elec       q    Type
REMARK                         _______ _______ _______ _____ _____    ______ ____
ROOT
ATOM      1  C   UNL     1       1.615   7.835  20.463  0.00  0.00    +0.000 A 
ATOM      2  C   UNL     1       1.517   8.207  21.816  0.00  0.00    +0.000 A 
ATOM      3  C   UNL     1       1.118   9.494  22.184  0.00  0.00    +0.000 A 
ATOM      4  C   UNL     1       0.805  10.425  21.199  0.00  0.00    +0.000 A 
ATOM      5  C   UNL     1       0.889  10.076  19.849  0.00  0.00    +0.000 A 
ATOM      6  C   UNL     1       1.320   8.793  19.485  0.00  0.00    +0.000 A 
ENDROOT
BRANCH   1  10
ATOM      7  C   UNL     1       1.750   2.880  20.568  0.00  0.00    +0.000 C 
ATOM      8  N   UNL     1       2.048   4.239  20.177  0.00  0.00    +0.000 N 
ATOM      9  C   UNL     1       1.501   5.358  20.744  0.00  0.00    +0.000 A 
ATOM     10  C   UNL     1       2.005   6.475  20.093  0.00  0.00    +0.000 A 
ATOM     11  C   UNL     1       2.854   5.980  19.048  0.00  0.00    +0.000 A 
ATOM     12  N   UNL     1       3.549   6.654  18.094  0.00  0.00    +0.000 NA
ATOM     13  C   UNL     1       4.250   5.914  17.223  0.00  0.00    +0.000 A 
ATOM     14  C   UNL     1       4.923   6.552  16.185  0.00  0.00    +0.000 A 
ATOM     15  C   UNL     1       5.654   5.844  15.222  0.00  0.00    +0.000 A 
ATOM     16  C   UNL     1       5.735   4.460  15.294  0.00  0.00    +0.000 A 
ATOM     17  C   UNL     1       5.088   3.791  16.327  0.00  0.00    +0.000 A 
ATOM     18  C   UNL     1       4.341   4.505  17.278  0.00  0.00    +0.000 A 
ATOM     19  C   UNL     1       3.658   3.821  18.283  0.00  0.00    +0.000 A 
ATOM     20  C   UNL     1       2.886   4.590  19.151  0.00  0.00    +0.000 A 
ENDBRANCH   1  10
BRANCH   5  21
ATOM     21  O   UNL     1       0.623  11.092  18.962  0.00  0.00    +0.000 OA
BRANCH  21  22
ATOM     22  C   UNL     1      -0.088  12.200  19.391  0.00  0.00    +0.000 A 
ATOM     23  N   UNL     1       0.503  13.405  19.444  0.00  0.00    +0.000 NA
ATOM     24  C   UNL     1      -0.271  14.420  19.854  0.00  0.00    +0.000 A 
ATOM     25  C   UNL     1      -1.605  14.282  20.163  0.00  0.00    +0.000 A 
ATOM     26  C   UNL     1      -2.140  13.011  20.042  0.00  0.00    +0.000 A 
ATOM     27  N   UNL     1      -1.384  11.963  19.654  0.00  0.00    +0.000 NA
BRANCH  26  28
ATOM     28  C   UNL     1      -3.535  12.693  20.366  0.00  0.00    +0.000 A 
ATOM     29  C   UNL     1      -4.494  12.340  19.431  0.00  0.00    +0.000 A 
ATOM     30  N   UNL     1      -5.794  12.091  19.711  0.00  0.00    +0.000 NA
ATOM     31  C   UNL     1      -6.138  12.189  21.003  0.00  0.00    +0.000 A 
ATOM     32  N   UNL     1      -5.311  12.495  22.011  0.00  0.00    +0.000 NA
ATOM     33  C   UNL     1      -4.025  12.731  21.663  0.00  0.00    +0.000 A 
ENDBRANCH  26  28
ENDBRANCH  21  22
ENDBRANCH   5  21
TORSDOF 4
ENDMDL
