MODEL 1
REMARK VINA RESULT:      -7.8      0.000      0.000
REMARK  Name = 
REMARK  3 active torsions:
REMARK  status: ('A' for Active; 'I' for Inactive)
REMARK    1  A    between atoms: C_2  and  C_4
REMARK    2  A    between atoms: C_6  and  C_7
REMARK    3  A    between atoms: C_19  and  O_20
REMARK                            x       y       z     vdW  Elec       q    Type
REMARK                         _______ _______ _______ _____ _____    ______ ____
ROOT
ATOM      1  C   UNL     1       5.605   5.106  17.161  0.00  0.00    +0.000 A 
ATOM      2  C   UNL     1       4.864   6.105  17.813  0.00  0.00    +0.000 A 
ATOM      3  C   UNL     1       3.494   5.936  18.055  0.00  0.00    +0.000 A 
ATOM      4  C   UNL     1       2.875   4.746  17.650  0.00  0.00    +0.000 A 
ATOM      5  C   UNL     1       3.605   3.739  17.014  0.00  0.00    +0.000 A 
ATOM      6  C   UNL     1       4.966   3.920  16.770  0.00  0.00    +0.000 A 
ENDROOT
BRANCH   3   7
ATOM      7  C   UNL     1       2.731   6.991  18.698  0.00  0.00    +0.000 A 
ATOM      8  C   UNL     1       2.290   6.983  20.004  0.00  0.00    +0.000 A 
ATOM      9  N   UNL     1       1.614   8.163  20.174  0.00  0.00    +0.000 N 
ATOM     10  C   UNL     1       0.981   8.659  21.308  0.00  0.00    +0.000 A 
ATOM     11  C   UNL     1       0.370   9.853  21.236  0.00  0.00    +0.000 A 
ATOM     12 CL   UNL     1      -0.423  10.538  22.597  0.00  0.00    +0.000 Cl
ATOM     13  C   UNL     1       0.379  10.582  19.976  0.00  0.00    +0.000 A 
ATOM     14  C   UNL     1       0.998  10.093  18.885  0.00  0.00    +0.000 A 
ATOM     15  C   UNL     1       1.662   8.834  18.956  0.00  0.00    +0.000 A 
ATOM     16  N   UNL     1       2.343   8.149  18.060  0.00  0.00    +0.000 NA
ENDBRANCH   3   7
BRANCH   1  18
ATOM     17  N   UNL     1       7.932   4.389  17.257  0.00  0.00    +0.000 N 
ATOM     18  C   UNL     1       7.050   5.375  16.918  0.00  0.00    +0.000 C 
ATOM     19  O   UNL     1       7.438   6.423  16.417  0.00  0.00    +0.000 OA
ATOM     20  H   UNL     1       8.918   4.588  17.186  0.00  0.00    +0.000 HD
ATOM     21  H   UNL     1       7.623   3.606  17.821  0.00  0.00    +0.000 HD
ENDBRANCH   1  18
BRANCH   6  22
ATOM     22  O   UNL     1       5.660   2.916  16.146  0.00  0.00    +0.000 OA
ATOM     23  H   UNL     1       6.362   3.312  15.599  0.00  0.00    +0.000 HD
ENDBRANCH   6  22
TORSDOF 3
ENDMDL
MODEL 2
REMARK VINA RESULT:      -7.7      1.184      1.658
REMARK  Name = 
REMARK  3 active torsions:
REMARK  status: ('A' for Active; 'I' for Inactive)
REMARK    1  A    between atoms: C_2  and  C_4
REMARK    2  A    between atoms: C_6  and  C_7
REMARK    3  A    between atoms: C_19  and  O_20
REMARK                            x       y       z     vdW  Elec       q    Type
REMARK                         _______ _______ _______ _____ _____    ______ ____
ROOT
ATOM      1  C   UNL     1       5.561   5.557  16.839  0.00  0.00    +0.000 A 
ATOM      2  C   UNL     1       4.763   6.505  17.501  0.00  0.00    +0.000 A 
ATOM      3  C   UNL     1       3.485   6.164  17.966  0.00  0.00    +0.000 A 
ATOM      4  C   UNL     1       3.019   4.857  17.772  0.00  0.00    +0.000 A 
ATOM      5  C   UNL     1       3.809   3.902  17.128  0.00  0.00    +0.000 A 
ATOM      6  C   UNL     1       5.076   4.253  16.662  0.00  0.00    +0.000 A 
ENDROOT
BRANCH   3   7
ATOM      7  C   UNL     1       2.656   7.163  18.617  0.00  0.00    +0.000 A 
ATOM      8  C   UNL     1       2.181   8.318  18.035  0.00  0.00    +0.000 A 
ATOM      9  N   UNL     1       1.460   8.955  19.010  0.00  0.00    +0.000 N 
ATOM     10  C   UNL     1       0.760  10.155  18.944  0.00  0.00    +0.000 A 
ATOM     11  C   UNL     1       0.124  10.592  20.044  0.00  0.00    +0.000 A 
ATOM     12 CL   UNL     1      -0.771  12.058  20.039  0.00  0.00    +0.000 Cl
ATOM     13  C   UNL     1       0.195   9.806  21.267  0.00  0.00    +0.000 A 
ATOM     14  C   UNL     1       0.873   8.643  21.317  0.00  0.00    +0.000 A 
ATOM     15  C   UNL     1       1.539   8.164  20.151  0.00  0.00    +0.000 A 
ATOM     16  N   UNL     1       2.243   7.074  19.929  0.00  0.00    +0.000 NA
ENDBRANCH   3   7
BRANCH   1  18
ATOM     17  N   UNL     1       7.436   7.108  16.950  0.00  0.00    +0.000 N 
ATOM     18  C   UNL     1       6.895   6.006  16.352  0.00  0.00    +0.000 C 
ATOM     19  O   UNL     1       7.498   5.407  15.470  0.00  0.00    +0.000 OA
ATOM     20  H   UNL     1       8.295   7.480  16.573  0.00  0.00    +0.000 HD
ATOM     21  H   UNL     1       6.864   7.690  17.552  0.00  0.00    +0.000 HD
ENDBRANCH   1  18
BRANCH   6  22
ATOM     22  O   UNL     1       5.832   3.296  16.034  0.00  0.00    +0.000 OA
ATOM     23  H   UNL     1       6.771   3.455  16.238  0.00  0.00    +0.000 HD
ENDBRANCH   6  22
TORSDOF 3
ENDMDL
MODEL 3
REMARK VINA RESULT:      -7.6      1.514      2.454
REMARK  Name = 
REMARK  3 active torsions:
REMARK  status: ('A' for Active; 'I' for Inactive)
REMARK    1  A    between atoms: C_2  and  C_4
REMARK    2  A    between atoms: C_6  and  C_7
REMARK    3  A    between atoms: C_19  and  O_20
REMARK                            x       y       z     vdW  Elec       q    Type
REMARK                         _______ _______ _______ _____ _____    ______ ____
ROOT
ATOM      1  C   UNL     1       3.648   3.987  17.527  0.00  0.00    +0.000 A 
ATOM      2  C   UNL     1       2.889   5.019  18.102  0.00  0.00    +0.000 A 
ATOM      3  C   UNL     1       3.279   6.358  17.962  0.00  0.00    +0.000 A 
ATOM      4  C   UNL     1       4.434   6.654  17.226  0.00  0.00    +0.000 A 
ATOM      5  C   UNL     1       5.189   5.638  16.638  0.00  0.00    +0.000 A 
ATOM      6  C   UNL     1       4.797   4.307  16.789  0.00  0.00    +0.000 A 
ENDROOT
BRANCH   3   7
ATOM      7  C   UNL     1       2.505   7.413  18.591  0.00  0.00    +0.000 A 
ATOM      8  C   UNL     1       2.097   7.435  19.908  0.00  0.00    +0.000 A 
ATOM      9  N   UNL     1       1.395   8.602  20.059  0.00  0.00    +0.000 N 
ATOM     10  C   UNL     1       0.778   9.117  21.193  0.00  0.00    +0.000 A 
ATOM     11  C   UNL     1       0.134  10.292  21.100  0.00  0.00    +0.000 A 
ATOM     12 CL   UNL     1      -0.642  11.000  22.459  0.00  0.00    +0.000 Cl
ATOM     13  C   UNL     1       0.091  10.981  19.818  0.00  0.00    +0.000 A 
ATOM     14  C   UNL     1       0.696  10.473  18.727  0.00  0.00    +0.000 A 
ATOM     15  C   UNL     1       1.394   9.234  18.820  0.00  0.00    +0.000 A 
ATOM     16  N   UNL     1       2.070   8.540  17.928  0.00  0.00    +0.000 NA
ENDBRANCH   3   7
BRANCH   1  18
ATOM     17  N   UNL     1       4.062   1.719  18.314  0.00  0.00    +0.000 N 
ATOM     18  C   UNL     1       3.179   2.590  17.744  0.00  0.00    +0.000 C 
ATOM     19  O   UNL     1       2.045   2.234  17.447  0.00  0.00    +0.000 OA
ATOM     20  H   UNL     1       3.795   0.748  18.385  0.00  0.00    +0.000 HD
ATOM     21  H   UNL     1       5.040   1.972  18.397  0.00  0.00    +0.000 HD
ENDBRANCH   1  18
BRANCH   6  22
ATOM     22  O   UNL     1       5.555   3.329  16.200  0.00  0.00    +0.000 OA
ATOM     23  H   UNL     1       5.670   3.545  15.258  0.00  0.00    +0.000 HD
ENDBRANCH   6  22
TORSDOF 3
ENDMDL
MODEL 4
REMARK VINA RESULT:      -7.6      4.731      5.344
REMARK  Name = 
REMARK  3 active torsions:
REMARK  status: ('A' for Active; 'I' for Inactive)
REMARK    1  A    between atoms: C_2  and  C_4
REMARK    2  A    between atoms: C_6  and  C_7
REMARK    3  A    between atoms: C_19  and  O_20
REMARK                            x       y       z     vdW  Elec       q    Type
REMARK                         _______ _______ _______ _____ _____    ______ ____
ROOT
ATOM      1  C   UNL     1       6.226   4.221  14.012  0.00  0.00    +0.000 A 
ATOM      2  C   UNL     1       5.249   3.865  14.957  0.00  0.00    +0.000 A 
ATOM      3  C   UNL     1       5.311   4.354  16.268  0.00  0.00    +0.000 A 
ATOM      4  C   UNL     1       6.356   5.217  16.622  0.00  0.00    +0.000 A 
ATOM      5  C   UNL     1       7.325   5.590  15.688  0.00  0.00    +0.000 A 
ATOM      6  C   UNL     1       7.259   5.092  14.387  0.00  0.00    +0.000 A 
ENDROOT
BRANCH   3   7
ATOM      7  C   UNL     1       4.315   3.950  17.245  0.00  0.00    +0.000 A 
ATOM      8  C   UNL     1       4.545   3.738  18.588  0.00  0.00    +0.000 A 
ATOM      9  N   UNL     1       3.336   3.367  19.117  0.00  0.00    +0.000 N 
ATOM     10  C   UNL     1       3.011   3.051  20.431  0.00  0.00    +0.000 A 
ATOM     11  C   UNL     1       1.746   2.705  20.717  0.00  0.00    +0.000 A 
ATOM     12 CL   UNL     1       1.263   2.312  22.318  0.00  0.00    +0.000 Cl
ATOM     13  C   UNL     1       0.760   2.662  19.647  0.00  0.00    +0.000 A 
ATOM     14  C   UNL     1       1.086   2.974  18.377  0.00  0.00    +0.000 A 
ATOM     15  C   UNL     1       2.424   3.356  18.067  0.00  0.00    +0.000 A 
ATOM     16  N   UNL     1       2.992   3.718  16.936  0.00  0.00    +0.000 NA
ENDBRANCH   3   7
BRANCH   1  18
ATOM     17  N   UNL     1       4.842   3.370  12.197  0.00  0.00    +0.000 N 
ATOM     18  C   UNL     1       6.102   3.638  12.647  0.00  0.00    +0.000 C 
ATOM     19  O   UNL     1       7.082   3.423  11.944  0.00  0.00    +0.000 OA
ATOM     20  H   UNL     1       4.743   2.892  11.314  0.00  0.00    +0.000 HD
ATOM     21  H   UNL     1       4.059   3.390  12.841  0.00  0.00    +0.000 HD
ENDBRANCH   1  18
BRANCH   6  22
ATOM     22  O   UNL     1       8.222   5.474  13.489  0.00  0.00    +0.000 OA
ATOM     23  H   UNL     1       8.951   4.829  13.516  0.00  0.00    +0.000 HD
ENDBRANCH   6  22
TORSDOF 3
ENDMDL
MODEL 5
REMARK VINA RESULT:      -7.5      1.739      2.861
REMARK  Name = 
REMARK  3 active torsions:
REMARK  status: ('A' for Active; 'I' for Inactive)
REMARK    1  A    between atoms: C_2  and  C_4
REMARK    2  A    between atoms: C_6  and  C_7
REMARK    3  A    between atoms: C_19  and  O_20
REMARK                            x       y       z     vdW  Elec       q    Type
REMARK                         _______ _______ _______ _____ _____    ______ ____
ROOT
ATOM      1  C   UNL     1       3.679   3.944  17.540  0.00  0.00    +0.000 A 
ATOM      2  C   UNL     1       2.912   4.968  18.121  0.00  0.00    +0.000 A 
ATOM      3  C   UNL     1       3.302   6.309  18.001  0.00  0.00    +0.000 A 
ATOM      4  C   UNL     1       4.464   6.616  17.280  0.00  0.00    +0.000 A 
ATOM      5  C   UNL     1       5.226   5.608  16.687  0.00  0.00    +0.000 A 
ATOM      6  C   UNL     1       4.834   4.276  16.818  0.00  0.00    +0.000 A 
ENDROOT
BRANCH   3   7
ATOM      7  C   UNL     1       2.520   7.355  18.636  0.00  0.00    +0.000 A 
ATOM      8  C   UNL     1       2.071   8.506  18.024  0.00  0.00    +0.000 A 
ATOM      9  N   UNL     1       1.392   9.199  18.992  0.00  0.00    +0.000 N 
ATOM     10  C   UNL     1       0.731  10.419  18.901  0.00  0.00    +0.000 A 
ATOM     11  C   UNL     1       0.133  10.912  19.997  0.00  0.00    +0.000 A 
ATOM     12 CL   UNL     1      -0.713  12.407  19.962  0.00  0.00    +0.000 Cl
ATOM     13  C   UNL     1       0.204  10.165  21.244  0.00  0.00    +0.000 A 
ATOM     14  C   UNL     1       0.844   8.982  21.319  0.00  0.00    +0.000 A 
ATOM     15  C   UNL     1       1.469   8.443  20.157  0.00  0.00    +0.000 A 
ATOM     16  N   UNL     1       2.132   7.324  19.957  0.00  0.00    +0.000 NA
ENDBRANCH   3   7
BRANCH   1  18
ATOM     17  N   UNL     1       4.104   1.656  18.261  0.00  0.00    +0.000 N 
ATOM     18  C   UNL     1       3.210   2.544  17.736  0.00  0.00    +0.000 C 
ATOM     19  O   UNL     1       2.067   2.200  17.460  0.00  0.00    +0.000 OA
ATOM     20  H   UNL     1       3.835   0.685  18.315  0.00  0.00    +0.000 HD
ATOM     21  H   UNL     1       5.085   1.904  18.325  0.00  0.00    +0.000 HD
ENDBRANCH   1  18
BRANCH   6  22
ATOM     22  O   UNL     1       5.600   3.305  16.224  0.00  0.00    +0.000 OA
ATOM     23  H   UNL     1       5.887   2.671  16.906  0.00  0.00    +0.000 HD
ENDBRANCH   6  22
TORSDOF 3
ENDMDL
MODEL 6
REMARK VINA RESULT:      -7.5      3.661      5.088
REMARK  Name = 
REMARK  3 active torsions:
REMARK  status: ('A' for Active; 'I' for Inactive)
REMARK    1  A    between atoms: C_2  and  C_4
REMARK    2  A    between atoms: C_6  and  C_7
REMARK    3  A    between atoms: C_19  and  O_20
REMARK                            x       y       z     vdW  Elec       q    Type
REMARK                         _______ _______ _______ _____ _____    ______ ____
ROOT
ATOM      1  C   UNL     1       5.906   3.975  13.516  0.00  0.00    +0.000 A 
ATOM      2  C   UNL     1       5.071   3.898  14.644  0.00  0.00    +0.000 A 
ATOM      3  C   UNL     1       5.394   4.587  15.821  0.00  0.00    +0.000 A 
ATOM      4  C   UNL     1       6.558   5.367  15.853  0.00  0.00    +0.000 A 
ATOM      5  C   UNL     1       7.388   5.462  14.734  0.00  0.00    +0.000 A 
ATOM      6  C   UNL     1       7.062   4.767  13.569  0.00  0.00    +0.000 A 
ENDROOT
BRANCH   3   7
ATOM      7  C   UNL     1       4.541   4.471  16.991  0.00  0.00    +0.000 A 
ATOM      8  C   UNL     1       4.268   3.306  17.674  0.00  0.00    +0.000 A 
ATOM      9  N   UNL     1       3.422   3.663  18.692  0.00  0.00    +0.000 N 
ATOM     10  C   UNL     1       2.853   2.870  19.682  0.00  0.00    +0.000 A 
ATOM     11  C   UNL     1       2.040   3.446  20.581  0.00  0.00    +0.000 A 
ATOM     12 CL   UNL     1       1.309   2.536  21.842  0.00  0.00    +0.000 Cl
ATOM     13  C   UNL     1       1.770   4.874  20.486  0.00  0.00    +0.000 A 
ATOM     14  C   UNL     1       2.330   5.632  19.524  0.00  0.00    +0.000 A 
ATOM     15  C   UNL     1       3.206   5.032  18.574  0.00  0.00    +0.000 A 
ATOM     16  N   UNL     1       3.883   5.538  17.564  0.00  0.00    +0.000 NA
ENDBRANCH   3   7
BRANCH   1  18
ATOM     17  N   UNL     1       6.375   2.237  11.875  0.00  0.00    +0.000 N 
ATOM     18  C   UNL     1       5.505   3.192  12.314  0.00  0.00    +0.000 C 
ATOM     19  O   UNL     1       4.433   3.376  11.750  0.00  0.00    +0.000 OA
ATOM     20  H   UNL     1       6.163   1.761  11.011  0.00  0.00    +0.000 HD
ATOM     21  H   UNL     1       7.321   2.209  12.238  0.00  0.00    +0.000 HD
ENDBRANCH   1  18
BRANCH   6  22
ATOM     22  O   UNL     1       7.893   4.878  12.485  0.00  0.00    +0.000 OA
ATOM     23  H   UNL     1       7.691   4.160  11.859  0.00  0.00    +0.000 HD
ENDBRANCH   6  22
TORSDOF 3
ENDMDL
MODEL 7
REMARK VINA RESULT:      -7.4      1.640      2.236
REMARK  Name = 
REMARK  3 active torsions:
REMARK  status: ('A' for Active; 'I' for Inactive)
REMARK    1  A    between atoms: C_2  and  C_4
REMARK    2  A    between atoms: C_6  and  C_7
REMARK    3  A    between atoms: C_19  and  O_20
REMARK                            x       y       z     vdW  Elec       q    Type
REMARK                         _______ _______ _______ _____ _____    ______ ____
ROOT
ATOM      1  C   UNL     1       4.252   4.091  18.168  0.00  0.00    +0.000 A 
ATOM      2  C   UNL     1       3.429   5.049  18.782  0.00  0.00    +0.000 A 
ATOM      3  C   UNL     1       3.348   6.353  18.275  0.00  0.00    +0.000 A 
ATOM      4  C   UNL     1       4.093   6.685  17.135  0.00  0.00    +0.000 A 
ATOM      5  C   UNL     1       4.903   5.737  16.508  0.00  0.00    +0.000 A 
ATOM      6  C   UNL     1       4.982   4.443  17.024  0.00  0.00    +0.000 A 
ENDROOT
BRANCH   3   7
ATOM      7  C   UNL     1       2.521   7.344  18.940  0.00  0.00    +0.000 A 
ATOM      8  C   UNL     1       2.078   7.278  20.244  0.00  0.00    +0.000 A 
ATOM      9  N   UNL     1       1.331   8.410  20.439  0.00  0.00    +0.000 N 
ATOM     10  C   UNL     1       0.667   8.840  21.583  0.00  0.00    +0.000 A 
ATOM     11  C   UNL     1      -0.016   9.995  21.536  0.00  0.00    +0.000 A 
ATOM     12 CL   UNL     1      -0.852  10.599  22.910  0.00  0.00    +0.000 Cl
ATOM     13  C   UNL     1      -0.049  10.754  20.294  0.00  0.00    +0.000 A 
ATOM     14  C   UNL     1       0.602  10.329  19.194  0.00  0.00    +0.000 A 
ATOM     15  C   UNL     1       1.341   9.111  19.238  0.00  0.00    +0.000 A 
ATOM     16  N   UNL     1       2.064   8.491  18.329  0.00  0.00    +0.000 NA
ENDBRANCH   3   7
BRANCH   1  18
ATOM     17  N   UNL     1       3.849   1.692  18.030  0.00  0.00    +0.000 N 
ATOM     18  C   UNL     1       4.301   2.735  18.785  0.00  0.00    +0.000 C 
ATOM     19  O   UNL     1       4.746   2.553  19.912  0.00  0.00    +0.000 OA
ATOM     20  H   UNL     1       3.789   0.782  18.463  0.00  0.00    +0.000 HD
ATOM     21  H   UNL     1       3.331   1.871  17.177  0.00  0.00    +0.000 HD
ENDBRANCH   1  18
BRANCH   6  22
ATOM     22  O   UNL     1       5.785   3.531  16.389  0.00  0.00    +0.000 OA
ATOM     23  H   UNL     1       6.044   3.891  15.521  0.00  0.00    +0.000 HD
ENDBRANCH   6  22
TORSDOF 3
ENDMDL
MODEL 8
REMARK VINA RESULT:      -7.3      1.878      2.438
REMARK  Name = 
REMARK  3 active torsions:
REMARK  status: ('A' for Active; 'I' for Inactive)
REMARK    1  A    between atoms: C_2  and  C_4
REMARK    2  A    between atoms: C_6  and  C_7
REMARK    3  A    between atoms: C_19  and  O_20
REMARK                            x       y       z     vdW  Elec       q    Type
REMARK                         _______ _______ _______ _____ _____    ______ ____
ROOT
ATOM      1  C   UNL     1       4.739   4.549  18.677  0.00  0.00    +0.000 A 
ATOM      2  C   UNL     1       4.063   5.778  18.762  0.00  0.00    +0.000 A 
ATOM      3  C   UNL     1       2.957   5.929  19.609  0.00  0.00    +0.000 A 
ATOM      4  C   UNL     1       2.541   4.836  20.382  0.00  0.00    +0.000 A 
ATOM      5  C   UNL     1       3.213   3.614  20.317  0.00  0.00    +0.000 A 
ATOM      6  C   UNL     1       4.309   3.472  19.465  0.00  0.00    +0.000 A 
ENDROOT
BRANCH   3   7
ATOM      7  C   UNL     1       2.246   7.193  19.661  0.00  0.00    +0.000 A 
ATOM      8  C   UNL     1       2.171   8.117  18.641  0.00  0.00    +0.000 A 
ATOM      9  N   UNL     1       1.414   9.149  19.130  0.00  0.00    +0.000 N 
ATOM     10  C   UNL     1       1.024  10.328  18.504  0.00  0.00    +0.000 A 
ATOM     11  C   UNL     1       0.277  11.207  19.192  0.00  0.00    +0.000 A 
ATOM     12 CL   UNL     1      -0.254  12.679  18.484  0.00  0.00    +0.000 Cl
ATOM     13  C   UNL     1      -0.090  10.907  20.568  0.00  0.00    +0.000 A 
ATOM     14  C   UNL     1       0.291   9.759  21.162  0.00  0.00    +0.000 A 
ATOM     15  C   UNL     1       1.071   8.814  20.435  0.00  0.00    +0.000 A 
ATOM     16  N   UNL     1       1.551   7.633  20.767  0.00  0.00    +0.000 NA
ENDBRANCH   3   7
BRANCH   1  18
ATOM     17  N   UNL     1       7.129   4.296  18.279  0.00  0.00    +0.000 N 
ATOM     18  C   UNL     1       5.889   4.465  17.734  0.00  0.00    +0.000 C 
ATOM     19  O   UNL     1       5.736   4.522  16.519  0.00  0.00    +0.000 OA
ATOM     20  H   UNL     1       7.928   4.328  17.663  0.00  0.00    +0.000 HD
ATOM     21  H   UNL     1       7.265   4.420  19.275  0.00  0.00    +0.000 HD
ENDBRANCH   1  18
BRANCH   6  22
ATOM     22  O   UNL     1       4.952   2.262  19.420  0.00  0.00    +0.000 OA
ATOM     23  H   UNL     1       5.176   2.059  18.495  0.00  0.00    +0.000 HD
ENDBRANCH   6  22
TORSDOF 3
ENDMDL
MODEL 9
REMARK VINA RESULT:      -7.2      1.178      1.208
REMARK  Name = 
REMARK  3 active torsions:
REMARK  status: ('A' for Active; 'I' for Inactive)
REMARK    1  A    between atoms: C_2  and  C_4
REMARK    2  A    between atoms: C_6  and  C_7
REMARK    3  A    between atoms: C_19  and  O_20
REMARK                            x       y       z     vdW  Elec       q    Type
REMARK                         _______ _______ _______ _____ _____    ______ ____
ROOT
ATOM      1  C   UNL     1       4.759   5.700  16.994  0.00  0.00    +0.000 A 
ATOM      2  C   UNL     1       4.006   6.687  17.651  0.00  0.00    +0.000 A 
ATOM      3  C   UNL     1       3.072   6.337  18.635  0.00  0.00    +0.000 A 
ATOM      4  C   UNL     1       2.910   4.986  18.967  0.00  0.00    +0.000 A 
ATOM      5  C   UNL     1       3.663   3.997  18.332  0.00  0.00    +0.000 A 
ATOM      6  C   UNL     1       4.585   4.354  17.347  0.00  0.00    +0.000 A 
ENDROOT
BRANCH   3   7
ATOM      7  C   UNL     1       2.274   7.364  19.282  0.00  0.00    +0.000 A 
ATOM      8  C   UNL     1       1.778   7.307  20.566  0.00  0.00    +0.000 A 
ATOM      9  N   UNL     1       1.086   8.476  20.748  0.00  0.00    +0.000 N 
ATOM     10  C   UNL     1       0.401   8.927  21.872  0.00  0.00    +0.000 A 
ATOM     11  C   UNL     1      -0.216  10.118  21.815  0.00  0.00    +0.000 A 
ATOM     12 CL   UNL     1      -1.071  10.749  23.165  0.00  0.00    +0.000 Cl
ATOM     13  C   UNL     1      -0.160  10.892  20.584  0.00  0.00    +0.000 A 
ATOM     14  C   UNL     1       0.509  10.445  19.503  0.00  0.00    +0.000 A 
ATOM     15  C   UNL     1       1.180   9.189  19.558  0.00  0.00    +0.000 A 
ATOM     16  N   UNL     1       1.903   8.541  18.669  0.00  0.00    +0.000 NA
ENDBRANCH   3   7
BRANCH   1  18
ATOM     17  N   UNL     1       7.014   5.767  16.074  0.00  0.00    +0.000 N 
ATOM     18  C   UNL     1       5.711   6.153  15.942  0.00  0.00    +0.000 C 
ATOM     19  O   UNL     1       5.346   6.826  14.985  0.00  0.00    +0.000 OA
ATOM     20  H   UNL     1       7.689   6.140  15.422  0.00  0.00    +0.000 HD
ATOM     21  H   UNL     1       7.336   5.362  16.945  0.00  0.00    +0.000 HD
ENDBRANCH   1  18
BRANCH   6  22
ATOM     22  O   UNL     1       5.313   3.364  16.739  0.00  0.00    +0.000 OA
ATOM     23  H   UNL     1       5.132   3.383  15.783  0.00  0.00    +0.000 HD
ENDBRANCH   6  22
TORSDOF 3
ENDMDL
