MODEL 1
REMARK VINA RESULT:      -8.8      0.000      0.000
REMARK  Name = 
REMARK  8 active torsions:
REMARK  status: ('A' for Active; 'I' for Inactive)
REMARK    1  A    between atoms: O_1  and  C_2
REMARK    2  A    between atoms: C_2  and  C_3
REMARK    3  A    between atoms: C_3  and  C_4
REMARK    4  A    between atoms: C_6  and  C_7
REMARK    5  A    between atoms: N_17  and  C_18
REMARK    6  A    between atoms: C_18  and  C_19
REMARK    7  A    between atoms: C_19  and  C_20
REMARK    8  A    between atoms: C_19  and  C_26
REMARK                            x       y       z     vdW  Elec       q    Type
REMARK                         _______ _______ _______ _____ _____    ______ ____
ROOT
ATOM      1  C   UNL     1       0.543  10.650  19.861  0.00  0.00    +0.000 C 
ATOM      2  C   UNL     1       1.346  10.853  18.566  0.00  0.00    +0.000 C 
ATOM      3  C   UNL     1       1.640   9.523  17.849  0.00  0.00    +0.000 C 
ATOM      4  N   UNL     1       2.350   8.579  18.724  0.00  0.00    +0.000 NA
ATOM      5  C   UNL     1       1.537   8.314  19.931  0.00  0.00    +0.000 C 
ATOM      6  C   UNL     1       1.233   9.582  20.721  0.00  0.00    +0.000 C 
ENDROOT
BRANCH   1   7
ATOM      7  O   UNL     1      -0.764  10.152  19.534  0.00  0.00    +0.000 OA
ATOM      8  H   UNL     1      -0.703   9.668  18.690  0.00  0.00    +0.000 HD
ENDBRANCH   1   7
BRANCH   1   9
ATOM      9  C   UNL     1       0.415  11.934  20.712  0.00  0.00    +0.000 C 
BRANCH   9  10
ATOM     10  C   UNL     1      -0.976  12.336  21.044  0.00  0.00    +0.000 A 
ATOM     11  C   UNL     1      -1.747  12.255  22.175  0.00  0.00    +0.000 A 
ATOM     12  C   UNL     1      -3.033  12.706  21.773  0.00  0.00    +0.000 A 
ATOM     13  N   UNL     1      -3.011  13.073  20.481  0.00  0.00    +0.000 NA
ATOM     14  O   UNL     1      -1.731  12.831  20.030  0.00  0.00    +0.000 OA
BRANCH  12  15
ATOM     15  C   UNL     1      -4.254  12.757  22.577  0.00  0.00    +0.000 A 
ATOM     16  C   UNL     1      -4.216  12.498  23.954  0.00  0.00    +0.000 A 
ATOM     17  C   UNL     1      -5.389  12.511  24.713  0.00  0.00    +0.000 A 
ATOM     18  C   UNL     1      -6.613  12.779  24.103  0.00  0.00    +0.000 A 
ATOM     19  C   UNL     1      -6.665  13.043  22.736  0.00  0.00    +0.000 A 
ATOM     20  C   UNL     1      -5.491  13.037  21.977  0.00  0.00    +0.000 A 
ENDBRANCH  12  15
ENDBRANCH   9  10
ENDBRANCH   1   9
BRANCH   4  21
ATOM     21  C   UNL     1       2.600   7.271  18.059  0.00  0.00    +0.000 C 
BRANCH  21  22
ATOM     22  C   UNL     1       3.377   6.136  18.811  0.00  0.00    +0.000 C 
BRANCH  22  23
ATOM     23  C   UNL     1       2.539   4.910  19.162  0.00  0.00    +0.000 A 
ATOM     24  C   UNL     1       2.200   4.604  20.490  0.00  0.00    +0.000 A 
ATOM     25  C   UNL     1       1.344   3.542  20.783  0.00  0.00    +0.000 A 
ATOM     26  C   UNL     1       0.807   2.768  19.756  0.00  0.00    +0.000 A 
ATOM     27  C   UNL     1       1.146   3.046  18.435  0.00  0.00    +0.000 A 
ATOM     28  C   UNL     1       2.006   4.106  18.139  0.00  0.00    +0.000 A 
ENDBRANCH  22  23
BRANCH  22  29
ATOM     29  C   UNL     1       4.656   5.721  18.051  0.00  0.00    +0.000 A 
ATOM     30  C   UNL     1       4.761   5.982  16.673  0.00  0.00    +0.000 A 
ATOM     31  C   UNL     1       5.893   5.592  15.952  0.00  0.00    +0.000 A 
ATOM     32  C   UNL     1       6.944   4.942  16.594  0.00  0.00    +0.000 A 
ATOM     33  C   UNL     1       6.875   4.706  17.963  0.00  0.00    +0.000 A 
ATOM     34  C   UNL     1       5.747   5.101  18.686  0.00  0.00    +0.000 A 
ENDBRANCH  22  29
ENDBRANCH  21  22
ENDBRANCH   4  21
TORSDOF 8
ENDMDL
MODEL 2
REMARK VINA RESULT:      -8.7      0.531      1.017
REMARK  Name = 
REMARK  8 active torsions:
REMARK  status: ('A' for Active; 'I' for Inactive)
REMARK    1  A    between atoms: O_1  and  C_2
REMARK    2  A    between atoms: C_2  and  C_3
REMARK    3  A    between atoms: C_3  and  C_4
REMARK    4  A    between atoms: C_6  and  C_7
REMARK    5  A    between atoms: N_17  and  C_18
REMARK    6  A    between atoms: C_18  and  C_19
REMARK    7  A    between atoms: C_19  and  C_20
REMARK    8  A    between atoms: C_19  and  C_26
REMARK                            x       y       z     vdW  Elec       q    Type
REMARK                         _______ _______ _______ _____ _____    ______ ____
ROOT
ATOM      1  C   UNL     1       0.228  10.729  20.036  0.00  0.00    +0.000 C 
ATOM      2  C   UNL     1       1.109  10.990  18.804  0.00  0.00    +0.000 C 
ATOM      3  C   UNL     1       1.454   9.693  18.050  0.00  0.00    +0.000 C 
ATOM      4  N   UNL     1       2.112   8.713  18.927  0.00  0.00    +0.000 NA
ATOM      5  C   UNL     1       1.226   8.394  20.067  0.00  0.00    +0.000 C 
ATOM      6  C   UNL     1       0.867   9.626  20.890  0.00  0.00    +0.000 C 
ENDROOT
BRANCH   1   7
ATOM      7  O   UNL     1      -1.054  10.243  19.607  0.00  0.00    +0.000 OA
ATOM      8  H   UNL     1      -1.740  10.668  20.155  0.00  0.00    +0.000 HD
ENDBRANCH   1   7
BRANCH   1   9
ATOM      9  C   UNL     1       0.040  11.974  20.933  0.00  0.00    +0.000 C 
BRANCH   9  10
ATOM     10  C   UNL     1      -1.365  12.419  21.110  0.00  0.00    +0.000 A 
ATOM     11  C   UNL     1      -2.324  12.189  22.064  0.00  0.00    +0.000 A 
ATOM     12  C   UNL     1      -3.498  12.812  21.560  0.00  0.00    +0.000 A 
ATOM     13  N   UNL     1      -3.233  13.413  20.388  0.00  0.00    +0.000 NA
ATOM     14  O   UNL     1      -1.908  13.156  20.108  0.00  0.00    +0.000 OA
BRANCH  12  15
ATOM     15  C   UNL     1      -4.836  12.810  22.151  0.00  0.00    +0.000 A 
ATOM     16  C   UNL     1      -5.028  13.190  23.487  0.00  0.00    +0.000 A 
ATOM     17  C   UNL     1      -6.301  13.151  24.060  0.00  0.00    +0.000 A 
ATOM     18  C   UNL     1      -7.395  12.729  23.306  0.00  0.00    +0.000 A 
ATOM     19  C   UNL     1      -7.218  12.353  21.976  0.00  0.00    +0.000 A 
ATOM     20  C   UNL     1      -5.946  12.397  21.400  0.00  0.00    +0.000 A 
ENDBRANCH  12  15
ENDBRANCH   9  10
ENDBRANCH   1   9
BRANCH   4  21
ATOM     21  C   UNL     1       2.410   7.436  18.222  0.00  0.00    +0.000 C 
BRANCH  21  22
ATOM     22  C   UNL     1       3.210   6.299  18.947  0.00  0.00    +0.000 C 
BRANCH  22  23
ATOM     23  C   UNL     1       2.419   5.018  19.198  0.00  0.00    +0.000 A 
ATOM     24  C   UNL     1       1.915   4.699  20.469  0.00  0.00    +0.000 A 
ATOM     25  C   UNL     1       1.104   3.579  20.656  0.00  0.00    +0.000 A 
ATOM     26  C   UNL     1       0.776   2.761  19.577  0.00  0.00    +0.000 A 
ATOM     27  C   UNL     1       1.281   3.052  18.313  0.00  0.00    +0.000 A 
ATOM     28  C   UNL     1       2.098   4.170  18.124  0.00  0.00    +0.000 A 
ENDBRANCH  22  23
BRANCH  22  29
ATOM     29  C   UNL     1       4.538   5.986  18.223  0.00  0.00    +0.000 A 
ATOM     30  C   UNL     1       5.569   5.329  18.917  0.00  0.00    +0.000 A 
ATOM     31  C   UNL     1       6.793   5.059  18.297  0.00  0.00    +0.000 A 
ATOM     32  C   UNL     1       7.006   5.433  16.973  0.00  0.00    +0.000 A 
ATOM     33  C   UNL     1       5.987   6.053  16.259  0.00  0.00    +0.000 A 
ATOM     34  C   UNL     1       4.761   6.317  16.875  0.00  0.00    +0.000 A 
ENDBRANCH  22  29
ENDBRANCH  21  22
ENDBRANCH   4  21
TORSDOF 8
ENDMDL
MODEL 3
REMARK VINA RESULT:      -8.7      0.209      1.205
REMARK  Name = 
REMARK  8 active torsions:
REMARK  status: ('A' for Active; 'I' for Inactive)
REMARK    1  A    between atoms: O_1  and  C_2
REMARK    2  A    between atoms: C_2  and  C_3
REMARK    3  A    between atoms: C_3  and  C_4
REMARK    4  A    between atoms: C_6  and  C_7
REMARK    5  A    between atoms: N_17  and  C_18
REMARK    6  A    between atoms: C_18  and  C_19
REMARK    7  A    between atoms: C_19  and  C_20
REMARK    8  A    between atoms: C_19  and  C_26
REMARK                            x       y       z     vdW  Elec       q    Type
REMARK                         _______ _______ _______ _____ _____    ______ ____
ROOT
ATOM      1  C   UNL     1       0.408  10.746  19.895  0.00  0.00    +0.000 C 
ATOM      2  C   UNL     1       1.262  11.005  18.643  0.00  0.00    +0.000 C 
ATOM      3  C   UNL     1       1.598   9.705  17.890  0.00  0.00    +0.000 C 
ATOM      4  N   UNL     1       2.281   8.735  18.758  0.00  0.00    +0.000 NA
ATOM      5  C   UNL     1       1.421   8.418  19.919  0.00  0.00    +0.000 C 
ATOM      6  C   UNL     1       1.073   9.652  20.742  0.00  0.00    +0.000 C 
ENDROOT
BRANCH   1   7
ATOM      7  O   UNL     1      -0.879  10.250  19.497  0.00  0.00    +0.000 OA
ATOM      8  H   UNL     1      -1.179   9.607  20.167  0.00  0.00    +0.000 HD
ENDBRANCH   1   7
BRANCH   1   9
ATOM      9  C   UNL     1       0.232  11.996  20.788  0.00  0.00    +0.000 C 
BRANCH   9  10
ATOM     10  C   UNL     1      -1.175  12.382  21.064  0.00  0.00    +0.000 A 
ATOM     11  C   UNL     1      -1.984  12.306  22.168  0.00  0.00    +0.000 A 
ATOM     12  C   UNL     1      -3.262  12.733  21.714  0.00  0.00    +0.000 A 
ATOM     13  N   UNL     1      -3.198  13.082  20.419  0.00  0.00    +0.000 NA
ATOM     14  O   UNL     1      -1.900  12.851  20.017  0.00  0.00    +0.000 OA
BRANCH  12  15
ATOM     15  C   UNL     1      -4.512  12.778  22.474  0.00  0.00    +0.000 A 
ATOM     16  C   UNL     1      -5.730  13.043  21.832  0.00  0.00    +0.000 A 
ATOM     17  C   UNL     1      -6.916  13.122  22.565  0.00  0.00    +0.000 A 
ATOM     18  C   UNL     1      -6.898  12.941  23.947  0.00  0.00    +0.000 A 
ATOM     19  C   UNL     1      -5.695  12.672  24.596  0.00  0.00    +0.000 A 
ATOM     20  C   UNL     1      -4.508  12.586  23.863  0.00  0.00    +0.000 A 
ENDBRANCH  12  15
ENDBRANCH   9  10
ENDBRANCH   1   9
BRANCH   4  21
ATOM     21  C   UNL     1       2.571   7.455  18.055  0.00  0.00    +0.000 C 
BRANCH  21  22
ATOM     22  C   UNL     1       3.270   6.275  18.815  0.00  0.00    +0.000 C 
BRANCH  22  23
ATOM     23  C   UNL     1       2.367   5.083  19.118  0.00  0.00    +0.000 A 
ATOM     24  C   UNL     1       1.915   4.223  18.104  0.00  0.00    +0.000 A 
ATOM     25  C   UNL     1       1.180   3.078  18.412  0.00  0.00    +0.000 A 
ATOM     26  C   UNL     1       0.886   2.768  19.738  0.00  0.00    +0.000 A 
ATOM     27  C   UNL     1       1.310   3.618  20.756  0.00  0.00    +0.000 A 
ATOM     28  C   UNL     1       2.043   4.767  20.449  0.00  0.00    +0.000 A 
ENDBRANCH  22  23
BRANCH  22  29
ATOM     29  C   UNL     1       4.555   5.814  18.093  0.00  0.00    +0.000 A 
ATOM     30  C   UNL     1       4.708   6.069  16.718  0.00  0.00    +0.000 A 
ATOM     31  C   UNL     1       5.847   5.638  16.031  0.00  0.00    +0.000 A 
ATOM     32  C   UNL     1       6.856   4.952  16.704  0.00  0.00    +0.000 A 
ATOM     33  C   UNL     1       6.739   4.722  18.070  0.00  0.00    +0.000 A 
ATOM     34  C   UNL     1       5.605   5.158  18.759  0.00  0.00    +0.000 A 
ENDBRANCH  22  29
ENDBRANCH  21  22
ENDBRANCH   4  21
TORSDOF 8
ENDMDL
MODEL 4
REMARK VINA RESULT:      -8.6      2.983      4.462
REMARK  Name = 
REMARK  8 active torsions:
REMARK  status: ('A' for Active; 'I' for Inactive)
REMARK    1  A    between atoms: O_1  and  C_2
REMARK    2  A    between atoms: C_2  and  C_3
REMARK    3  A    between atoms: C_3  and  C_4
REMARK    4  A    between atoms: C_6  and  C_7
REMARK    5  A    between atoms: N_17  and  C_18
REMARK    6  A    between atoms: C_18  and  C_19
REMARK    7  A    between atoms: C_19  and  C_20
REMARK    8  A    between atoms: C_19  and  C_26
REMARK                            x       y       z     vdW  Elec       q    Type
REMARK                         _______ _______ _______ _____ _____    ______ ____
ROOT
ATOM      1  C   UNL     1       0.220  10.581  20.080  0.00  0.00    +0.000 C 
ATOM      2  C   UNL     1       1.043  10.930  18.830  0.00  0.00    +0.000 C 
ATOM      3  C   UNL     1       1.453   9.677  18.035  0.00  0.00    +0.000 C 
ATOM      4  N   UNL     1       2.204   8.726  18.868  0.00  0.00    +0.000 NA
ATOM      5  C   UNL     1       1.377   8.321  20.026  0.00  0.00    +0.000 C 
ATOM      6  C   UNL     1       0.960   9.506  20.889  0.00  0.00    +0.000 C 
ENDROOT
BRANCH   1   7
ATOM      7  O   UNL     1      -1.038  10.017  19.677  0.00  0.00    +0.000 OA
ATOM      8  H   UNL     1      -1.277  10.394  18.810  0.00  0.00    +0.000 HD
ENDBRANCH   1   7
BRANCH   1   9
ATOM      9  C   UNL     1      -0.026  11.790  21.012  0.00  0.00    +0.000 C 
BRANCH   9  10
ATOM     10  C   UNL     1       0.412  13.102  20.473  0.00  0.00    +0.000 A 
ATOM     11  C   UNL     1      -0.163  14.030  19.642  0.00  0.00    +0.000 A 
ATOM     12  C   UNL     1       0.850  15.003  19.424  0.00  0.00    +0.000 A 
ATOM     13  N   UNL     1       1.952  14.686  20.124  0.00  0.00    +0.000 NA
ATOM     14  O   UNL     1       1.677  13.497  20.765  0.00  0.00    +0.000 OA
BRANCH  12  15
ATOM     15  C   UNL     1       0.790  16.178  18.555  0.00  0.00    +0.000 A 
ATOM     16  C   UNL     1      -0.438  16.785  18.257  0.00  0.00    +0.000 A 
ATOM     17  C   UNL     1      -0.497  17.885  17.398  0.00  0.00    +0.000 A 
ATOM     18  C   UNL     1       0.669  18.386  16.823  0.00  0.00    +0.000 A 
ATOM     19  C   UNL     1       1.897  17.795  17.114  0.00  0.00    +0.000 A 
ATOM     20  C   UNL     1       1.958  16.699  17.980  0.00  0.00    +0.000 A 
ENDBRANCH  12  15
ENDBRANCH   9  10
ENDBRANCH   1   9
BRANCH   4  21
ATOM     21  C   UNL     1       2.567   7.488  18.125  0.00  0.00    +0.000 C 
BRANCH  21  22
ATOM     22  C   UNL     1       3.357   6.338  18.839  0.00  0.00    +0.000 C 
BRANCH  22  23
ATOM     23  C   UNL     1       2.527   5.100  19.170  0.00  0.00    +0.000 A 
ATOM     24  C   UNL     1       2.149   4.796  20.488  0.00  0.00    +0.000 A 
ATOM     25  C   UNL     1       1.301   3.722  20.758  0.00  0.00    +0.000 A 
ATOM     26  C   UNL     1       0.811   2.934  19.718  0.00  0.00    +0.000 A 
ATOM     27  C   UNL     1       1.189   3.210  18.407  0.00  0.00    +0.000 A 
ATOM     28  C   UNL     1       2.041   4.283  18.134  0.00  0.00    +0.000 A 
ENDBRANCH  22  23
BRANCH  22  29
ATOM     29  C   UNL     1       4.628   5.947  18.055  0.00  0.00    +0.000 A 
ATOM     30  C   UNL     1       4.731   6.274  16.691  0.00  0.00    +0.000 A 
ATOM     31  C   UNL     1       5.856   5.908  15.948  0.00  0.00    +0.000 A 
ATOM     32  C   UNL     1       6.903   5.216  16.553  0.00  0.00    +0.000 A 
ATOM     33  C   UNL     1       6.835   4.914  17.909  0.00  0.00    +0.000 A 
ATOM     34  C   UNL     1       5.714   5.285  18.655  0.00  0.00    +0.000 A 
ENDBRANCH  22  29
ENDBRANCH  21  22
ENDBRANCH   4  21
TORSDOF 8
ENDMDL
MODEL 5
REMARK VINA RESULT:      -8.5      1.123      3.507
REMARK  Name = 
REMARK  8 active torsions:
REMARK  status: ('A' for Active; 'I' for Inactive)
REMARK    1  A    between atoms: O_1  and  C_2
REMARK    2  A    between atoms: C_2  and  C_3
REMARK    3  A    between atoms: C_3  and  C_4
REMARK    4  A    between atoms: C_6  and  C_7
REMARK    5  A    between atoms: N_17  and  C_18
REMARK    6  A    between atoms: C_18  and  C_19
REMARK    7  A    between atoms: C_19  and  C_20
REMARK    8  A    between atoms: C_19  and  C_26
REMARK                            x       y       z     vdW  Elec       q    Type
REMARK                         _______ _______ _______ _____ _____    ______ ____
ROOT
ATOM      1  C   UNL     1      -0.139  10.507  19.531  0.00  0.00    +0.000 C 
ATOM      2  C   UNL     1       1.020  10.241  18.557  0.00  0.00    +0.000 C 
ATOM      3  C   UNL     1       1.513   8.784  18.625  0.00  0.00    +0.000 C 
ATOM      4  N   UNL     1       1.920   8.410  19.987  0.00  0.00    +0.000 NA
ATOM      5  C   UNL     1       0.777   8.582  20.910  0.00  0.00    +0.000 C 
ATOM      6  C   UNL     1       0.252  10.013  20.930  0.00  0.00    +0.000 C 
ENDROOT
BRANCH   1   7
ATOM      7  O   UNL     1      -1.287   9.748  19.119  0.00  0.00    +0.000 OA
ATOM      8  H   UNL     1      -1.592   9.219  19.881  0.00  0.00    +0.000 HD
ENDBRANCH   1   7
BRANCH   1   9
ATOM      9  C   UNL     1      -0.516  12.002  19.643  0.00  0.00    +0.000 C 
BRANCH   9  10
ATOM     10  C   UNL     1      -1.936  12.272  19.983  0.00  0.00    +0.000 A 
ATOM     11  C   UNL     1      -2.597  12.567  21.148  0.00  0.00    +0.000 A 
ATOM     12  C   UNL     1      -3.974  12.578  20.793  0.00  0.00    +0.000 A 
ATOM     13  N   UNL     1      -4.113  12.342  19.478  0.00  0.00    +0.000 NA
ATOM     14  O   UNL     1      -2.843  12.142  18.982  0.00  0.00    +0.000 OA
BRANCH  12  15
ATOM     15  C   UNL     1      -5.123  12.772  21.677  0.00  0.00    +0.000 A 
ATOM     16  C   UNL     1      -6.431  12.633  21.192  0.00  0.00    +0.000 A 
ATOM     17  C   UNL     1      -7.527  12.856  22.029  0.00  0.00    +0.000 A 
ATOM     18  C   UNL     1      -7.328  13.223  23.358  0.00  0.00    +0.000 A 
ATOM     19  C   UNL     1      -6.034  13.361  23.854  0.00  0.00    +0.000 A 
ATOM     20  C   UNL     1      -4.936  13.132  23.020  0.00  0.00    +0.000 A 
ENDBRANCH  12  15
ENDBRANCH   9  10
ENDBRANCH   1   9
BRANCH   4  21
ATOM     21  C   UNL     1       2.356   6.989  20.077  0.00  0.00    +0.000 C 
BRANCH  21  22
ATOM     22  C   UNL     1       2.664   6.172  18.775  0.00  0.00    +0.000 C 
BRANCH  22  23
ATOM     23  C   UNL     1       4.136   6.131  18.377  0.00  0.00    +0.000 A 
ATOM     24  C   UNL     1       4.621   6.840  17.267  0.00  0.00    +0.000 A 
ATOM     25  C   UNL     1       5.986   6.878  16.982  0.00  0.00    +0.000 A 
ATOM     26  C   UNL     1       6.894   6.212  17.804  0.00  0.00    +0.000 A 
ATOM     27  C   UNL     1       6.430   5.489  18.900  0.00  0.00    +0.000 A 
ATOM     28  C   UNL     1       5.063   5.447  19.184  0.00  0.00    +0.000 A 
ENDBRANCH  22  23
BRANCH  22  29
ATOM     29  C   UNL     1       2.079   4.744  18.848  0.00  0.00    +0.000 A 
ATOM     30  C   UNL     1       1.353   4.348  19.984  0.00  0.00    +0.000 A 
ATOM     31  C   UNL     1       0.837   3.053  20.092  0.00  0.00    +0.000 A 
ATOM     32  C   UNL     1       1.031   2.133  19.064  0.00  0.00    +0.000 A 
ATOM     33  C   UNL     1       1.717   2.516  17.916  0.00  0.00    +0.000 A 
ATOM     34  C   UNL     1       2.226   3.812  17.805  0.00  0.00    +0.000 A 
ENDBRANCH  22  29
ENDBRANCH  21  22
ENDBRANCH   4  21
TORSDOF 8
ENDMDL
MODEL 6
REMARK VINA RESULT:      -8.4      2.907      5.412
REMARK  Name = 
REMARK  8 active torsions:
REMARK  status: ('A' for Active; 'I' for Inactive)
REMARK    1  A    between atoms: O_1  and  C_2
REMARK    2  A    between atoms: C_2  and  C_3
REMARK    3  A    between atoms: C_3  and  C_4
REMARK    4  A    between atoms: C_6  and  C_7
REMARK    5  A    between atoms: N_17  and  C_18
REMARK    6  A    between atoms: C_18  and  C_19
REMARK    7  A    between atoms: C_19  and  C_20
REMARK    8  A    between atoms: C_19  and  C_26
REMARK                            x       y       z     vdW  Elec       q    Type
REMARK                         _______ _______ _______ _____ _____    ______ ____
ROOT
ATOM      1  C   UNL     1       0.320  10.609  20.175  0.00  0.00    +0.000 C 
ATOM      2  C   UNL     1       0.133   9.262  20.891  0.00  0.00    +0.000 C 
ATOM      3  C   UNL     1       1.372   8.358  20.762  0.00  0.00    +0.000 C 
ATOM      4  N   UNL     1       1.728   8.121  19.355  0.00  0.00    +0.000 NA
ATOM      5  C   UNL     1       1.995   9.413  18.687  0.00  0.00    +0.000 C 
ATOM      6  C   UNL     1       0.797  10.356  18.738  0.00  0.00    +0.000 C 
ENDROOT
BRANCH   1   7
ATOM      7  O   UNL     1       1.349  11.359  20.838  0.00  0.00    +0.000 OA
ATOM      8  H   UNL     1       1.907  11.779  20.156  0.00  0.00    +0.000 HD
ENDBRANCH   1   7
BRANCH   1   9
ATOM      9  C   UNL     1      -0.975  11.451  20.102  0.00  0.00    +0.000 C 
BRANCH   9  10
ATOM     10  C   UNL     1      -0.771  12.909  19.909  0.00  0.00    +0.000 A 
ATOM     11  C   UNL     1      -0.563  13.704  18.811  0.00  0.00    +0.000 A 
ATOM     12  C   UNL     1      -0.315  15.000  19.340  0.00  0.00    +0.000 A 
ATOM     13  N   UNL     1      -0.412  14.977  20.680  0.00  0.00    +0.000 NA
ATOM     14  O   UNL     1      -0.685  13.671  21.028  0.00  0.00    +0.000 OA
BRANCH  12  15
ATOM     15  C   UNL     1       0.036  16.214  18.604  0.00  0.00    +0.000 A 
ATOM     16  C   UNL     1       1.371  16.494  18.280  0.00  0.00    +0.000 A 
ATOM     17  C   UNL     1       1.708  17.673  17.610  0.00  0.00    +0.000 A 
ATOM     18  C   UNL     1       0.715  18.586  17.261  0.00  0.00    +0.000 A 
ATOM     19  C   UNL     1      -0.616  18.318  17.573  0.00  0.00    +0.000 A 
ATOM     20  C   UNL     1      -0.955  17.136  18.238  0.00  0.00    +0.000 A 
ENDBRANCH  12  15
ENDBRANCH   9  10
ENDBRANCH   1   9
BRANCH   4  21
ATOM     21  C   UNL     1       2.953   7.286  19.215  0.00  0.00    +0.000 C 
BRANCH  21  22
ATOM     22  C   UNL     1       2.967   6.057  18.242  0.00  0.00    +0.000 C 
BRANCH  22  23
ATOM     23  C   UNL     1       4.353   5.631  17.767  0.00  0.00    +0.000 A 
ATOM     24  C   UNL     1       4.746   5.762  16.426  0.00  0.00    +0.000 A 
ATOM     25  C   UNL     1       6.052   5.469  16.031  0.00  0.00    +0.000 A 
ATOM     26  C   UNL     1       6.991   5.045  16.969  0.00  0.00    +0.000 A 
ATOM     27  C   UNL     1       6.615   4.893  18.301  0.00  0.00    +0.000 A 
ATOM     28  C   UNL     1       5.307   5.182  18.697  0.00  0.00    +0.000 A 
ENDBRANCH  22  23
BRANCH  22  29
ATOM     29  C   UNL     1       2.201   4.854  18.834  0.00  0.00    +0.000 A 
ATOM     30  C   UNL     1       1.794   3.806  17.989  0.00  0.00    +0.000 A 
ATOM     31  C   UNL     1       1.073   2.718  18.490  0.00  0.00    +0.000 A 
ATOM     32  C   UNL     1       0.753   2.652  19.844  0.00  0.00    +0.000 A 
ATOM     33  C   UNL     1       1.176   3.661  20.702  0.00  0.00    +0.000 A 
ATOM     34  C   UNL     1       1.902   4.745  20.204  0.00  0.00    +0.000 A 
ENDBRANCH  22  29
ENDBRANCH  21  22
ENDBRANCH   4  21
TORSDOF 8
ENDMDL
MODEL 7
REMARK VINA RESULT:      -8.4      1.259      3.457
REMARK  Name = 
REMARK  8 active torsions:
REMARK  status: ('A' for Active; 'I' for Inactive)
REMARK    1  A    between atoms: O_1  and  C_2
REMARK    2  A    between atoms: C_2  and  C_3
REMARK    3  A    between atoms: C_3  and  C_4
REMARK    4  A    between atoms: C_6  and  C_7
REMARK    5  A    between atoms: N_17  and  C_18
REMARK    6  A    between atoms: C_18  and  C_19
REMARK    7  A    between atoms: C_19  and  C_20
REMARK    8  A    between atoms: C_19  and  C_26
REMARK                            x       y       z     vdW  Elec       q    Type
REMARK                         _______ _______ _______ _____ _____    ______ ____
ROOT
ATOM      1  C   UNL     1       0.036  10.516  18.760  0.00  0.00    +0.000 C 
ATOM      2  C   UNL     1       1.368  10.243  18.044  0.00  0.00    +0.000 C 
ATOM      3  C   UNL     1       1.842   8.791  18.232  0.00  0.00    +0.000 C 
ATOM      4  N   UNL     1       1.966   8.438  19.654  0.00  0.00    +0.000 NA
ATOM      5  C   UNL     1       0.660   8.616  20.324  0.00  0.00    +0.000 C 
ATOM      6  C   UNL     1       0.138  10.044  20.217  0.00  0.00    +0.000 C 
ENDROOT
BRANCH   1   7
ATOM      7  O   UNL     1      -1.004   9.745  18.137  0.00  0.00    +0.000 OA
ATOM      8  H   UNL     1      -1.530  10.342  17.573  0.00  0.00    +0.000 HD
ENDBRANCH   1   7
BRANCH   1   9
ATOM      9  C   UNL     1      -0.360  12.011  18.772  0.00  0.00    +0.000 C 
BRANCH   9  10
ATOM     10  C   UNL     1      -1.692  12.307  19.358  0.00  0.00    +0.000 A 
ATOM     11  C   UNL     1      -2.111  12.854  20.544  0.00  0.00    +0.000 A 
ATOM     12  C   UNL     1      -3.527  12.731  20.523  0.00  0.00    +0.000 A 
ATOM     13  N   UNL     1      -3.925  12.178  19.365  0.00  0.00    +0.000 NA
ATOM     14  O   UNL     1      -2.778  11.906  18.649  0.00  0.00    +0.000 OA
BRANCH  12  15
ATOM     15  C   UNL     1      -4.472  13.095  21.578  0.00  0.00    +0.000 A 
ATOM     16  C   UNL     1      -5.807  12.672  21.521  0.00  0.00    +0.000 A 
ATOM     17  C   UNL     1      -6.716  13.052  22.511  0.00  0.00    +0.000 A 
ATOM     18  C   UNL     1      -6.302  13.862  23.566  0.00  0.00    +0.000 A 
ATOM     19  C   UNL     1      -4.977  14.287  23.638  0.00  0.00    +0.000 A 
ATOM     20  C   UNL     1      -4.065  13.901  22.651  0.00  0.00    +0.000 A 
ENDBRANCH  12  15
ENDBRANCH   9  10
ENDBRANCH   1   9
BRANCH   4  21
ATOM     21  C   UNL     1       2.379   7.021  19.850  0.00  0.00    +0.000 C 
BRANCH  21  22
ATOM     22  C   UNL     1       2.777   6.134  18.620  0.00  0.00    +0.000 C 
BRANCH  22  23
ATOM     23  C   UNL     1       4.273   6.086  18.322  0.00  0.00    +0.000 A 
ATOM     24  C   UNL     1       4.827   6.764  17.224  0.00  0.00    +0.000 A 
ATOM     25  C   UNL     1       6.209   6.798  17.029  0.00  0.00    +0.000 A 
ATOM     26  C   UNL     1       7.061   6.161  17.928  0.00  0.00    +0.000 A 
ATOM     27  C   UNL     1       6.528   5.470  19.012  0.00  0.00    +0.000 A 
ATOM     28  C   UNL     1       5.145   5.431  19.208  0.00  0.00    +0.000 A 
ENDBRANCH  22  23
BRANCH  22  29
ATOM     29  C   UNL     1       2.199   4.707  18.737  0.00  0.00    +0.000 A 
ATOM     30  C   UNL     1       2.513   3.748  17.757  0.00  0.00    +0.000 A 
ATOM     31  C   UNL     1       1.981   2.457  17.820  0.00  0.00    +0.000 A 
ATOM     32  C   UNL     1       1.135   2.096  18.866  0.00  0.00    +0.000 A 
ATOM     33  C   UNL     1       0.841   3.019  19.864  0.00  0.00    +0.000 A 
ATOM     34  C   UNL     1       1.376   4.307  19.806  0.00  0.00    +0.000 A 
ENDBRANCH  22  29
ENDBRANCH  21  22
ENDBRANCH   4  21
TORSDOF 8
ENDMDL
MODEL 8
REMARK VINA RESULT:      -8.3      1.967      4.082
REMARK  Name = 
REMARK  8 active torsions:
REMARK  status: ('A' for Active; 'I' for Inactive)
REMARK    1  A    between atoms: O_1  and  C_2
REMARK    2  A    between atoms: C_2  and  C_3
REMARK    3  A    between atoms: C_3  and  C_4
REMARK    4  A    between atoms: C_6  and  C_7
REMARK    5  A    between atoms: N_17  and  C_18
REMARK    6  A    between atoms: C_18  and  C_19
REMARK    7  A    between atoms: C_19  and  C_20
REMARK    8  A    between atoms: C_19  and  C_26
REMARK                            x       y       z     vdW  Elec       q    Type
REMARK                         _______ _______ _______ _____ _____    ______ ____
ROOT
ATOM      1  C   UNL     1       0.310  10.310  19.696  0.00  0.00    +0.000 C 
ATOM      2  C   UNL     1       0.509   9.040  20.538  0.00  0.00    +0.000 C 
ATOM      3  C   UNL     1       1.808   8.298  20.174  0.00  0.00    +0.000 C 
ATOM      4  N   UNL     1       1.855   7.953  18.746  0.00  0.00    +0.000 NA
ATOM      5  C   UNL     1       1.753   9.186  17.935  0.00  0.00    +0.000 C 
ATOM      6  C   UNL     1       0.469   9.961  18.210  0.00  0.00    +0.000 C 
ENDROOT
BRANCH   1   7
ATOM      7  O   UNL     1       1.337  11.260  20.021  0.00  0.00    +0.000 OA
ATOM      8  H   UNL     1       0.907  12.077  20.337  0.00  0.00    +0.000 HD
ENDBRANCH   1   7
BRANCH   1   9
ATOM      9  C   UNL     1      -1.081  10.960  19.884  0.00  0.00    +0.000 C 
BRANCH   9  10
ATOM     10  C   UNL     1      -1.256  11.722  21.146  0.00  0.00    +0.000 A 
ATOM     11  C   UNL     1      -1.953  12.853  21.487  0.00  0.00    +0.000 A 
ATOM     12  C   UNL     1      -1.588  13.115  22.836  0.00  0.00    +0.000 A 
ATOM     13  N   UNL     1      -0.750  12.163  23.279  0.00  0.00    +0.000 NA
ATOM     14  O   UNL     1      -0.539  11.305  22.221  0.00  0.00    +0.000 OA
BRANCH  12  15
ATOM     15  C   UNL     1      -1.992  14.248  23.668  0.00  0.00    +0.000 A 
ATOM     16  C   UNL     1      -3.330  14.412  24.053  0.00  0.00    +0.000 A 
ATOM     17  C   UNL     1      -3.719  15.515  24.817  0.00  0.00    +0.000 A 
ATOM     18  C   UNL     1      -2.777  16.467  25.200  0.00  0.00    +0.000 A 
ATOM     19  C   UNL     1      -1.443  16.315  24.827  0.00  0.00    +0.000 A 
ATOM     20  C   UNL     1      -1.051  15.208  24.068  0.00  0.00    +0.000 A 
ENDBRANCH  12  15
ENDBRANCH   9  10
ENDBRANCH   1   9
BRANCH   4  21
ATOM     21  C   UNL     1       3.127   7.277  18.371  0.00  0.00    +0.000 C 
BRANCH  21  22
ATOM     22  C   UNL     1       3.103   5.859  17.702  0.00  0.00    +0.000 C 
BRANCH  22  23
ATOM     23  C   UNL     1       4.452   5.372  17.182  0.00  0.00    +0.000 A 
ATOM     24  C   UNL     1       4.593   4.128  16.546  0.00  0.00    +0.000 A 
ATOM     25  C   UNL     1       5.810   3.748  15.981  0.00  0.00    +0.000 A 
ATOM     26  C   UNL     1       6.909   4.603  16.036  0.00  0.00    +0.000 A 
ATOM     27  C   UNL     1       6.793   5.833  16.678  0.00  0.00    +0.000 A 
ATOM     28  C   UNL     1       5.576   6.215  17.248  0.00  0.00    +0.000 A 
ENDBRANCH  22  23
BRANCH  22  29
ATOM     29  C   UNL     1       2.465   4.803  18.631  0.00  0.00    +0.000 A 
ATOM     30  C   UNL     1       2.853   4.739  19.981  0.00  0.00    +0.000 A 
ATOM     31  C   UNL     1       2.315   3.775  20.838  0.00  0.00    +0.000 A 
ATOM     32  C   UNL     1       1.375   2.862  20.366  0.00  0.00    +0.000 A 
ATOM     33  C   UNL     1       0.952   2.930  19.043  0.00  0.00    +0.000 A 
ATOM     34  C   UNL     1       1.484   3.898  18.187  0.00  0.00    +0.000 A 
ENDBRANCH  22  29
ENDBRANCH  21  22
ENDBRANCH   4  21
TORSDOF 8
ENDMDL
MODEL 9
REMARK VINA RESULT:      -8.3      1.561      3.752
REMARK  Name = 
REMARK  8 active torsions:
REMARK  status: ('A' for Active; 'I' for Inactive)
REMARK    1  A    between atoms: O_1  and  C_2
REMARK    2  A    between atoms: C_2  and  C_3
REMARK    3  A    between atoms: C_3  and  C_4
REMARK    4  A    between atoms: C_6  and  C_7
REMARK    5  A    between atoms: N_17  and  C_18
REMARK    6  A    between atoms: C_18  and  C_19
REMARK    7  A    between atoms: C_19  and  C_20
REMARK    8  A    between atoms: C_19  and  C_26
REMARK                            x       y       z     vdW  Elec       q    Type
REMARK                         _______ _______ _______ _____ _____    ______ ____
ROOT
ATOM      1  C   UNL     1       0.472  10.662  18.751  0.00  0.00    +0.000 C 
ATOM      2  C   UNL     1       1.667  10.198  17.903  0.00  0.00    +0.000 C 
ATOM      3  C   UNL     1       1.956   8.697  18.079  0.00  0.00    +0.000 C 
ATOM      4  N   UNL     1       2.189   8.349  19.489  0.00  0.00    +0.000 NA
ATOM      5  C   UNL     1       1.002   8.715  20.292  0.00  0.00    +0.000 C 
ATOM      6  C   UNL     1       0.670  10.200  20.200  0.00  0.00    +0.000 C 
ENDROOT
BRANCH   1   7
ATOM      7  O   UNL     1      -0.725  10.034  18.266  0.00  0.00    +0.000 OA
ATOM      8  H   UNL     1      -1.236   9.717  19.034  0.00  0.00    +0.000 HD
ENDBRANCH   1   7
BRANCH   1   9
ATOM      9  C   UNL     1       0.287  12.198  18.763  0.00  0.00    +0.000 C 
BRANCH   9  10
ATOM     10  C   UNL     1      -0.588  12.719  19.844  0.00  0.00    +0.000 A 
ATOM     11  C   UNL     1      -0.355  13.386  21.020  0.00  0.00    +0.000 A 
ATOM     12  C   UNL     1      -1.627  13.474  21.648  0.00  0.00    +0.000 A 
ATOM     13  N   UNL     1      -2.568  12.925  20.862  0.00  0.00    +0.000 NA
ATOM     14  O   UNL     1      -1.914  12.447  19.747  0.00  0.00    +0.000 OA
BRANCH  12  15
ATOM     15  C   UNL     1      -1.938  14.031  22.964  0.00  0.00    +0.000 A 
ATOM     16  C   UNL     1      -3.175  13.780  23.574  0.00  0.00    +0.000 A 
ATOM     17  C   UNL     1      -3.483  14.343  24.814  0.00  0.00    +0.000 A 
ATOM     18  C   UNL     1      -2.560  15.167  25.456  0.00  0.00    +0.000 A 
ATOM     19  C   UNL     1      -1.326  15.422  24.863  0.00  0.00    +0.000 A 
ATOM     20  C   UNL     1      -1.013  14.853  23.625  0.00  0.00    +0.000 A 
ENDBRANCH  12  15
ENDBRANCH   9  10
ENDBRANCH   1   9
BRANCH   4  21
ATOM     21  C   UNL     1       2.424   6.892  19.680  0.00  0.00    +0.000 C 
BRANCH  21  22
ATOM     22  C   UNL     1       2.885   5.999  18.476  0.00  0.00    +0.000 C 
BRANCH  22  23
ATOM     23  C   UNL     1       4.392   5.971  18.239  0.00  0.00    +0.000 A 
ATOM     24  C   UNL     1       4.974   6.580  17.116  0.00  0.00    +0.000 A 
ATOM     25  C   UNL     1       6.361   6.639  16.972  0.00  0.00    +0.000 A 
ATOM     26  C   UNL     1       7.192   6.094  17.948  0.00  0.00    +0.000 A 
ATOM     27  C   UNL     1       6.633   5.470  19.060  0.00  0.00    +0.000 A 
ATOM     28  C   UNL     1       5.245   5.407  19.204  0.00  0.00    +0.000 A 
ENDBRANCH  22  23
BRANCH  22  29
ATOM     29  C   UNL     1       2.324   4.564  18.583  0.00  0.00    +0.000 A 
ATOM     30  C   UNL     1       2.743   3.584  17.666  0.00  0.00    +0.000 A 
ATOM     31  C   UNL     1       2.230   2.285  17.719  0.00  0.00    +0.000 A 
ATOM     32  C   UNL     1       1.297   1.938  18.693  0.00  0.00    +0.000 A 
ATOM     33  C   UNL     1       0.896   2.883  19.631  0.00  0.00    +0.000 A 
ATOM     34  C   UNL     1       1.413   4.180  19.583  0.00  0.00    +0.000 A 
ENDBRANCH  22  29
ENDBRANCH  21  22
ENDBRANCH   4  21
TORSDOF 8
ENDMDL
