MODEL 1
REMARK VINA RESULT:      -6.6      0.000      0.000
REMARK  Name = 
REMARK  13 active torsions:
REMARK  status: ('A' for Active; 'I' for Inactive)
REMARK    1  A    between atoms: C_1  and  C_2
REMARK    2  A    between atoms: C_2  and  C_3
REMARK    3  A    between atoms: C_3  and  C_4
REMARK    4  A    between atoms: C_4  and  C_5
REMARK    5  A    between atoms: C_5  and  C_6
REMARK    6  A    between atoms: C_6  and  C_7
REMARK    7  A    between atoms: C_7  and  C_8
REMARK    8  A    between atoms: C_8  and  O_9
REMARK    9  A    between atoms: C_8  and  C_10
REMARK   10  A    between atoms: C_10  and  C_11
REMARK   11  A    between atoms: C_12  and  C_13
REMARK   12  A    between atoms: C_13  and  C_14
REMARK   13  A    between atoms: C_14  and  C_15
REMARK                            x       y       z     vdW  Elec       q    Type
REMARK                         _______ _______ _______ _____ _____    ______ ____
ROOT
ATOM      1  C   UNL     1       7.825   7.252  18.301  0.00  0.00    +0.000 C 
ATOM      2  C   UNL     1       7.846   8.356  17.536  0.00  0.00    +0.000 C 
ENDROOT
BRANCH   1   3
ATOM      3  C   UNL     1       7.555   5.866  17.778  0.00  0.00    +0.000 C 
BRANCH   3   4
ATOM      4  C   UNL     1       6.711   5.866  16.490  0.00  0.00    +0.000 C 
BRANCH   4   5
ATOM      5  O   UNL     1       7.524   5.573  15.358  0.00  0.00    +0.000 OA
ATOM      6  H   UNL     1       7.057   5.914  14.578  0.00  0.00    +0.000 HD
ENDBRANCH   4   5
BRANCH   4   7
ATOM      7  C   UNL     1       5.529   4.884  16.554  0.00  0.00    +0.000 C 
BRANCH   7   8
ATOM      8  C   UNL     1       4.309   5.487  17.245  0.00  0.00    +0.000 C 
BRANCH   8   9
ATOM      9  C   UNL     1       3.213   4.442  17.434  0.00  0.00    +0.000 C 
BRANCH   9  10
ATOM     10  C   UNL     1       2.356   4.769  18.645  0.00  0.00    +0.000 C 
BRANCH  10  11
ATOM     11  C   UNL     1       1.344   3.657  18.895  0.00  0.00    +0.000 C 
BRANCH  11  13
ATOM     12  C   UNL     1       2.094   3.975  21.261  0.00  0.00    +0.000 C 
ATOM     13  C   UNL     1       0.926   3.626  20.358  0.00  0.00    +0.000 C 
ENDBRANCH  11  13
ENDBRANCH  10  11
ENDBRANCH   9  10
ENDBRANCH   8   9
ENDBRANCH   7   8
ENDBRANCH   4   7
ENDBRANCH   3   4
ENDBRANCH   1   3
BRANCH   2  14
ATOM     14  C   UNL     1       8.140   9.718  18.110  0.00  0.00    +0.000 C 
BRANCH  14  15
ATOM     15  C   UNL     1       9.362   9.668  19.028  0.00  0.00    +0.000 C 
BRANCH  15  16
ATOM     16  C   UNL     1       9.564  10.970  19.782  0.00  0.00    +0.000 C 
ATOM     17  O   UNL     1       8.909  11.231  20.803  0.00  0.00    +0.000 OA
ATOM     18  N   UNL     1      10.543  11.821  19.293  0.00  0.00    +0.000 N 
ATOM     19  C   UNL     1      10.930  12.998  20.065  0.00  0.00    +0.000 C 
ATOM     20  C   UNL     1      10.638  14.282  19.295  0.00  0.00    +0.000 C 
ATOM     21  C   UNL     1      11.259  14.238  17.899  0.00  0.00    +0.000 C 
ATOM     22  C   UNL     1      10.848  12.971  17.150  0.00  0.00    +0.000 C 
ATOM     23  C   UNL     1      11.152  11.716  17.965  0.00  0.00    +0.000 C 
ENDBRANCH  15  16
ENDBRANCH  14  15
ENDBRANCH   2  14
TORSDOF 12
ENDMDL
MODEL 2
REMARK VINA RESULT:      -6.4      5.870      7.120
REMARK  Name = 
REMARK  13 active torsions:
REMARK  status: ('A' for Active; 'I' for Inactive)
REMARK    1  A    between atoms: C_1  and  C_2
REMARK    2  A    between atoms: C_2  and  C_3
REMARK    3  A    between atoms: C_3  and  C_4
REMARK    4  A    between atoms: C_4  and  C_5
REMARK    5  A    between atoms: C_5  and  C_6
REMARK    6  A    between atoms: C_6  and  C_7
REMARK    7  A    between atoms: C_7  and  C_8
REMARK    8  A    between atoms: C_8  and  O_9
REMARK    9  A    between atoms: C_8  and  C_10
REMARK   10  A    between atoms: C_10  and  C_11
REMARK   11  A    between atoms: C_12  and  C_13
REMARK   12  A    between atoms: C_13  and  C_14
REMARK   13  A    between atoms: C_14  and  C_15
REMARK                            x       y       z     vdW  Elec       q    Type
REMARK                         _______ _______ _______ _____ _____    ______ ____
ROOT
ATOM      1  C   UNL     1       4.582   6.616  16.669  0.00  0.00    +0.000 C 
ATOM      2  C   UNL     1       4.052   7.238  17.735  0.00  0.00    +0.000 C 
ENDROOT
BRANCH   1   3
ATOM      3  C   UNL     1       5.579   5.490  16.755  0.00  0.00    +0.000 C 
BRANCH   3   4
ATOM      4  C   UNL     1       4.927   4.102  16.618  0.00  0.00    +0.000 C 
BRANCH   4   5
ATOM      5  O   UNL     1       5.869   3.151  16.133  0.00  0.00    +0.000 OA
ATOM      6  H   UNL     1       5.724   3.069  15.177  0.00  0.00    +0.000 HD
ENDBRANCH   4   5
BRANCH   4   7
ATOM      7  C   UNL     1       4.308   3.602  17.934  0.00  0.00    +0.000 C 
BRANCH   7   8
ATOM      8  C   UNL     1       3.013   2.826  17.710  0.00  0.00    +0.000 C 
BRANCH   8   9
ATOM      9  C   UNL     1       1.793   3.708  17.959  0.00  0.00    +0.000 C 
BRANCH   9  10
ATOM     10  C   UNL     1       2.055   4.689  19.088  0.00  0.00    +0.000 C 
BRANCH  10  11
ATOM     11  C   UNL     1       1.100   4.432  20.248  0.00  0.00    +0.000 C 
BRANCH  11  13
ATOM     12  C   UNL     1       2.427   2.730  21.516  0.00  0.00    +0.000 C 
ATOM     13  C   UNL     1       1.175   2.979  20.697  0.00  0.00    +0.000 C 
ENDBRANCH  11  13
ENDBRANCH  10  11
ENDBRANCH   9  10
ENDBRANCH   8   9
ENDBRANCH   7   8
ENDBRANCH   4   7
ENDBRANCH   3   4
ENDBRANCH   1   3
BRANCH   2  14
ATOM     14  C   UNL     1       3.044   8.349  17.590  0.00  0.00    +0.000 C 
BRANCH  14  15
ATOM     15  C   UNL     1       1.946   8.226  18.648  0.00  0.00    +0.000 C 
BRANCH  15  16
ATOM     16  C   UNL     1       1.285   9.561  18.943  0.00  0.00    +0.000 C 
ATOM     17  O   UNL     1       1.505  10.558  18.239  0.00  0.00    +0.000 OA
ATOM     18  N   UNL     1       0.397   9.587  20.007  0.00  0.00    +0.000 N 
ATOM     19  C   UNL     1      -0.420  10.775  20.238  0.00  0.00    +0.000 C 
ATOM     20  C   UNL     1      -0.110  11.402  21.593  0.00  0.00    +0.000 C 
ATOM     21  C   UNL     1      -0.210  10.367  22.713  0.00  0.00    +0.000 C 
ATOM     22  C   UNL     1       0.638   9.134  22.404  0.00  0.00    +0.000 C 
ATOM     23  C   UNL     1       0.296   8.549  21.036  0.00  0.00    +0.000 C 
ENDBRANCH  15  16
ENDBRANCH  14  15
ENDBRANCH   2  14
TORSDOF 12
ENDMDL
MODEL 3
REMARK VINA RESULT:      -6.4      6.566      7.847
REMARK  Name = 
REMARK  13 active torsions:
REMARK  status: ('A' for Active; 'I' for Inactive)
REMARK    1  A    between atoms: C_1  and  C_2
REMARK    2  A    between atoms: C_2  and  C_3
REMARK    3  A    between atoms: C_3  and  C_4
REMARK    4  A    between atoms: C_4  and  C_5
REMARK    5  A    between atoms: C_5  and  C_6
REMARK    6  A    between atoms: C_6  and  C_7
REMARK    7  A    between atoms: C_7  and  C_8
REMARK    8  A    between atoms: C_8  and  O_9
REMARK    9  A    between atoms: C_8  and  C_10
REMARK   10  A    between atoms: C_10  and  C_11
REMARK   11  A    between atoms: C_12  and  C_13
REMARK   12  A    between atoms: C_13  and  C_14
REMARK   13  A    between atoms: C_14  and  C_15
REMARK                            x       y       z     vdW  Elec       q    Type
REMARK                         _______ _______ _______ _____ _____    ______ ____
ROOT
ATOM      1  C   UNL     1       2.319   7.490  19.497  0.00  0.00    +0.000 C 
ATOM      2  C   UNL     1       1.492   7.362  20.548  0.00  0.00    +0.000 C 
ENDROOT
BRANCH   1   3
ATOM      3  C   UNL     1       2.428   6.486  18.379  0.00  0.00    +0.000 C 
BRANCH   3   4
ATOM      4  C   UNL     1       3.829   5.859  18.272  0.00  0.00    +0.000 C 
BRANCH   4   5
ATOM      5  O   UNL     1       4.344   5.555  19.565  0.00  0.00    +0.000 OA
ATOM      6  H   UNL     1       4.442   4.590  19.612  0.00  0.00    +0.000 HD
ENDBRANCH   4   5
BRANCH   4   7
ATOM      7  C   UNL     1       3.852   4.599  17.391  0.00  0.00    +0.000 C 
BRANCH   7   8
ATOM      8  C   UNL     1       4.124   3.331  18.196  0.00  0.00    +0.000 C 
BRANCH   8   9
ATOM      9  C   UNL     1       3.014   2.303  17.993  0.00  0.00    +0.000 C 
BRANCH   9  10
ATOM     10  C   UNL     1       1.646   2.952  18.102  0.00  0.00    +0.000 C 
BRANCH  10  11
ATOM     11  C   UNL     1       0.984   2.577  19.422  0.00  0.00    +0.000 C 
BRANCH  11  13
ATOM     12  C   UNL     1       2.069   3.603  21.430  0.00  0.00    +0.000 C 
ATOM     13  C   UNL     1       0.984   3.759  20.382  0.00  0.00    +0.000 C 
ENDBRANCH  11  13
ENDBRANCH  10  11
ENDBRANCH   9  10
ENDBRANCH   8   9
ENDBRANCH   7   8
ENDBRANCH   4   7
ENDBRANCH   3   4
ENDBRANCH   1   3
BRANCH   2  14
ATOM     14  C   UNL     1       1.411   8.406  21.631  0.00  0.00    +0.000 C 
BRANCH  14  15
ATOM     15  C   UNL     1      -0.029   8.891  21.810  0.00  0.00    +0.000 C 
BRANCH  15  16
ATOM     16  C   UNL     1      -0.135  10.404  21.736  0.00  0.00    +0.000 C 
ATOM     17  O   UNL     1      -0.190  11.097  22.764  0.00  0.00    +0.000 OA
ATOM     18  N   UNL     1      -0.123  10.962  20.467  0.00  0.00    +0.000 N 
ATOM     19  C   UNL     1      -0.030  12.411  20.314  0.00  0.00    +0.000 C 
ATOM     20  C   UNL     1      -1.265  12.972  19.618  0.00  0.00    +0.000 C 
ATOM     21  C   UNL     1      -1.536  12.238  18.305  0.00  0.00    +0.000 C 
ATOM     22  C   UNL     1      -1.591  10.726  18.518  0.00  0.00    +0.000 C 
ATOM     23  C   UNL     1      -0.338  10.215  19.225  0.00  0.00    +0.000 C 
ENDBRANCH  15  16
ENDBRANCH  14  15
ENDBRANCH   2  14
TORSDOF 12
ENDMDL
MODEL 4
REMARK VINA RESULT:      -6.4      5.533      9.007
REMARK  Name = 
REMARK  13 active torsions:
REMARK  status: ('A' for Active; 'I' for Inactive)
REMARK    1  A    between atoms: C_1  and  C_2
REMARK    2  A    between atoms: C_2  and  C_3
REMARK    3  A    between atoms: C_3  and  C_4
REMARK    4  A    between atoms: C_4  and  C_5
REMARK    5  A    between atoms: C_5  and  C_6
REMARK    6  A    between atoms: C_6  and  C_7
REMARK    7  A    between atoms: C_7  and  C_8
REMARK    8  A    between atoms: C_8  and  O_9
REMARK    9  A    between atoms: C_8  and  C_10
REMARK   10  A    between atoms: C_10  and  C_11
REMARK   11  A    between atoms: C_12  and  C_13
REMARK   12  A    between atoms: C_13  and  C_14
REMARK   13  A    between atoms: C_14  and  C_15
REMARK                            x       y       z     vdW  Elec       q    Type
REMARK                         _______ _______ _______ _____ _____    ______ ____
ROOT
ATOM      1  C   UNL     1       3.416   6.957  18.699  0.00  0.00    +0.000 C 
ATOM      2  C   UNL     1       2.231   7.176  19.293  0.00  0.00    +0.000 C 
ENDROOT
BRANCH   1   3
ATOM      3  C   UNL     1       3.791   7.485  17.339  0.00  0.00    +0.000 C 
BRANCH   3   4
ATOM      4  C   UNL     1       4.851   6.620  16.633  0.00  0.00    +0.000 C 
BRANCH   4   5
ATOM      5  O   UNL     1       5.115   7.117  15.325  0.00  0.00    +0.000 OA
ATOM      6  H   UNL     1       5.927   6.685  15.015  0.00  0.00    +0.000 HD
ENDBRANCH   4   5
BRANCH   4   7
ATOM      7  C   UNL     1       6.163   6.518  17.429  0.00  0.00    +0.000 C 
BRANCH   7   8
ATOM      8  C   UNL     1       6.543   5.073  17.741  0.00  0.00    +0.000 C 
BRANCH   8   9
ATOM      9  C   UNL     1       7.180   4.398  16.529  0.00  0.00    +0.000 C 
BRANCH   9  10
ATOM     10  C   UNL     1       6.121   3.769  15.641  0.00  0.00    +0.000 C 
BRANCH  10  11
ATOM     11  C   UNL     1       6.488   3.942  14.172  0.00  0.00    +0.000 C 
BRANCH  11  13
ATOM     12  C   UNL     1       5.641   3.166  11.949  0.00  0.00    +0.000 C 
ATOM     13  C   UNL     1       5.261   3.774  13.286  0.00  0.00    +0.000 C 
ENDBRANCH  11  13
ENDBRANCH  10  11
ENDBRANCH   9  10
ENDBRANCH   8   9
ENDBRANCH   7   8
ENDBRANCH   4   7
ENDBRANCH   3   4
ENDBRANCH   1   3
BRANCH   2  14
ATOM     14  C   UNL     1       1.915   6.639  20.664  0.00  0.00    +0.000 C 
BRANCH  14  15
ATOM     15  C   UNL     1       0.962   5.446  20.572  0.00  0.00    +0.000 C 
BRANCH  15  16
ATOM     16  C   UNL     1       1.692   4.120  20.693  0.00  0.00    +0.000 C 
ATOM     17  O   UNL     1       2.192   3.756  21.769  0.00  0.00    +0.000 OA
ATOM     18  N   UNL     1       1.728   3.331  19.554  0.00  0.00    +0.000 N 
ATOM     19  C   UNL     1       2.241   1.966  19.636  0.00  0.00    +0.000 C 
ATOM     20  C   UNL     1       3.478   1.789  18.761  0.00  0.00    +0.000 C 
ATOM     21  C   UNL     1       3.207   2.253  17.330  0.00  0.00    +0.000 C 
ATOM     22  C   UNL     1       2.642   3.672  17.305  0.00  0.00    +0.000 C 
ATOM     23  C   UNL     1       1.413   3.800  18.203  0.00  0.00    +0.000 C 
ENDBRANCH  15  16
ENDBRANCH  14  15
ENDBRANCH   2  14
TORSDOF 12
ENDMDL
MODEL 5
REMARK VINA RESULT:      -6.3      1.487      1.955
REMARK  Name = 
REMARK  13 active torsions:
REMARK  status: ('A' for Active; 'I' for Inactive)
REMARK    1  A    between atoms: C_1  and  C_2
REMARK    2  A    between atoms: C_2  and  C_3
REMARK    3  A    between atoms: C_3  and  C_4
REMARK    4  A    between atoms: C_4  and  C_5
REMARK    5  A    between atoms: C_5  and  C_6
REMARK    6  A    between atoms: C_6  and  C_7
REMARK    7  A    between atoms: C_7  and  C_8
REMARK    8  A    between atoms: C_8  and  O_9
REMARK    9  A    between atoms: C_8  and  C_10
REMARK   10  A    between atoms: C_10  and  C_11
REMARK   11  A    between atoms: C_12  and  C_13
REMARK   12  A    between atoms: C_13  and  C_14
REMARK   13  A    between atoms: C_14  and  C_15
REMARK                            x       y       z     vdW  Elec       q    Type
REMARK                         _______ _______ _______ _____ _____    ______ ____
ROOT
ATOM      1  C   UNL     1       7.863   7.849  17.627  0.00  0.00    +0.000 C 
ATOM      2  C   UNL     1       8.381   8.794  18.429  0.00  0.00    +0.000 C 
ENDROOT
BRANCH   1   3
ATOM      3  C   UNL     1       7.437   6.482  18.094  0.00  0.00    +0.000 C 
BRANCH   3   4
ATOM      4  C   UNL     1       6.967   5.576  16.943  0.00  0.00    +0.000 C 
BRANCH   4   5
ATOM      5  O   UNL     1       7.920   4.548  16.691  0.00  0.00    +0.000 OA
ATOM      6  H   UNL     1       8.515   4.876  15.998  0.00  0.00    +0.000 HD
ENDBRANCH   4   5
BRANCH   4   7
ATOM      7  C   UNL     1       5.583   4.954  17.201  0.00  0.00    +0.000 C 
BRANCH   7   8
ATOM      8  C   UNL     1       4.620   5.936  17.862  0.00  0.00    +0.000 C 
BRANCH   8   9
ATOM      9  C   UNL     1       3.505   5.199  18.599  0.00  0.00    +0.000 C 
BRANCH   9  10
ATOM     10  C   UNL     1       2.571   6.179  19.289  0.00  0.00    +0.000 C 
BRANCH  10  11
ATOM     11  C   UNL     1       1.912   5.524  20.497  0.00  0.00    +0.000 C 
BRANCH  11  13
ATOM     12  C   UNL     1       1.276   3.143  20.936  0.00  0.00    +0.000 C 
ATOM     13  C   UNL     1       2.424   4.102  20.686  0.00  0.00    +0.000 C 
ENDBRANCH  11  13
ENDBRANCH  10  11
ENDBRANCH   9  10
ENDBRANCH   8   9
ENDBRANCH   7   8
ENDBRANCH   4   7
ENDBRANCH   3   4
ENDBRANCH   1   3
BRANCH   2  14
ATOM     14  C   UNL     1       8.775  10.152  17.911  0.00  0.00    +0.000 C 
BRANCH  14  15
ATOM     15  C   UNL     1       9.646  10.889  18.929  0.00  0.00    +0.000 C 
BRANCH  15  16
ATOM     16  C   UNL     1      10.702  11.752  18.259  0.00  0.00    +0.000 C 
ATOM     17  O   UNL     1      11.882  11.376  18.174  0.00  0.00    +0.000 OA
ATOM     18  N   UNL     1      10.266  12.950  17.717  0.00  0.00    +0.000 N 
ATOM     19  C   UNL     1      11.173  13.744  16.893  0.00  0.00    +0.000 C 
ATOM     20  C   UNL     1      11.434  15.110  17.521  0.00  0.00    +0.000 C 
ATOM     21  C   UNL     1      10.122  15.825  17.844  0.00  0.00    +0.000 C 
ATOM     22  C   UNL     1       9.199  14.937  18.678  0.00  0.00    +0.000 C 
ATOM     23  C   UNL     1       8.977  13.580  18.013  0.00  0.00    +0.000 C 
ENDBRANCH  15  16
ENDBRANCH  14  15
ENDBRANCH   2  14
TORSDOF 12
ENDMDL
MODEL 6
REMARK VINA RESULT:      -6.3      5.668      7.413
REMARK  Name = 
REMARK  13 active torsions:
REMARK  status: ('A' for Active; 'I' for Inactive)
REMARK    1  A    between atoms: C_1  and  C_2
REMARK    2  A    between atoms: C_2  and  C_3
REMARK    3  A    between atoms: C_3  and  C_4
REMARK    4  A    between atoms: C_4  and  C_5
REMARK    5  A    between atoms: C_5  and  C_6
REMARK    6  A    between atoms: C_6  and  C_7
REMARK    7  A    between atoms: C_7  and  C_8
REMARK    8  A    between atoms: C_8  and  O_9
REMARK    9  A    between atoms: C_8  and  C_10
REMARK   10  A    between atoms: C_10  and  C_11
REMARK   11  A    between atoms: C_12  and  C_13
REMARK   12  A    between atoms: C_13  and  C_14
REMARK   13  A    between atoms: C_14  and  C_15
REMARK                            x       y       z     vdW  Elec       q    Type
REMARK                         _______ _______ _______ _____ _____    ______ ____
ROOT
ATOM      1  C   UNL     1       4.167   7.016  17.002  0.00  0.00    +0.000 C 
ATOM      2  C   UNL     1       3.588   7.610  18.058  0.00  0.00    +0.000 C 
ENDROOT
BRANCH   1   3
ATOM      3  C   UNL     1       5.543   6.404  17.024  0.00  0.00    +0.000 C 
BRANCH   3   4
ATOM      4  C   UNL     1       5.888   5.659  15.722  0.00  0.00    +0.000 C 
BRANCH   4   5
ATOM      5  O   UNL     1       7.299   5.538  15.570  0.00  0.00    +0.000 OA
ATOM      6  H   UNL     1       7.635   5.109  16.374  0.00  0.00    +0.000 HD
ENDBRANCH   4   5
BRANCH   4   7
ATOM      7  C   UNL     1       5.232   4.270  15.640  0.00  0.00    +0.000 C 
BRANCH   7   8
ATOM      8  C   UNL     1       4.792   3.753  17.007  0.00  0.00    +0.000 C 
BRANCH   8   9
ATOM      9  C   UNL     1       3.291   3.475  17.032  0.00  0.00    +0.000 C 
BRANCH   9  10
ATOM     10  C   UNL     1       2.978   2.264  17.894  0.00  0.00    +0.000 C 
BRANCH  10  11
ATOM     11  C   UNL     1       1.772   2.543  18.783  0.00  0.00    +0.000 C 
BRANCH  11  13
ATOM     12  C   UNL     1       1.311   4.454  20.332  0.00  0.00    +0.000 C 
ATOM     13  C   UNL     1       1.512   4.039  18.886  0.00  0.00    +0.000 C 
ENDBRANCH  11  13
ENDBRANCH  10  11
ENDBRANCH   9  10
ENDBRANCH   8   9
ENDBRANCH   7   8
ENDBRANCH   4   7
ENDBRANCH   3   4
ENDBRANCH   1   3
BRANCH   2  14
ATOM     14  C   UNL     1       2.201   8.191  17.985  0.00  0.00    +0.000 C 
BRANCH  14  15
ATOM     15  C   UNL     1       1.609   8.361  19.386  0.00  0.00    +0.000 C 
BRANCH  15  16
ATOM     16  C   UNL     1       0.947   9.717  19.565  0.00  0.00    +0.000 C 
ATOM     17  O   UNL     1       1.268  10.688  18.864  0.00  0.00    +0.000 OA
ATOM     18  N   UNL     1      -0.056   9.791  20.519  0.00  0.00    +0.000 N 
ATOM     19  C   UNL     1      -0.869  10.999  20.621  0.00  0.00    +0.000 C 
ATOM     20  C   UNL     1      -0.701  11.662  21.985  0.00  0.00    +0.000 C 
ATOM     21  C   UNL     1      -0.951  10.663  23.114  0.00  0.00    +0.000 C 
ATOM     22  C   UNL     1      -0.100   9.406  22.940  0.00  0.00    +0.000 C 
ATOM     23  C   UNL     1      -0.295   8.786  21.558  0.00  0.00    +0.000 C 
ENDBRANCH  15  16
ENDBRANCH  14  15
ENDBRANCH   2  14
TORSDOF 12
ENDMDL
MODEL 7
REMARK VINA RESULT:      -6.3      2.360     10.254
REMARK  Name = 
REMARK  13 active torsions:
REMARK  status: ('A' for Active; 'I' for Inactive)
REMARK    1  A    between atoms: C_1  and  C_2
REMARK    2  A    between atoms: C_2  and  C_3
REMARK    3  A    between atoms: C_3  and  C_4
REMARK    4  A    between atoms: C_4  and  C_5
REMARK    5  A    between atoms: C_5  and  C_6
REMARK    6  A    between atoms: C_6  and  C_7
REMARK    7  A    between atoms: C_7  and  C_8
REMARK    8  A    between atoms: C_8  and  O_9
REMARK    9  A    between atoms: C_8  and  C_10
REMARK   10  A    between atoms: C_10  and  C_11
REMARK   11  A    between atoms: C_12  and  C_13
REMARK   12  A    between atoms: C_13  and  C_14
REMARK   13  A    between atoms: C_14  and  C_15
REMARK                            x       y       z     vdW  Elec       q    Type
REMARK                         _______ _______ _______ _____ _____    ______ ____
ROOT
ATOM      1  C   UNL     1       8.862   9.466  18.664  0.00  0.00    +0.000 C 
ATOM      2  C   UNL     1       7.991   8.773  17.913  0.00  0.00    +0.000 C 
ENDROOT
BRANCH   1   3
ATOM      3  C   UNL     1       9.048  10.959  18.584  0.00  0.00    +0.000 C 
BRANCH   3   4
ATOM      4  C   UNL     1       9.832  11.530  19.779  0.00  0.00    +0.000 C 
BRANCH   4   5
ATOM      5  O   UNL     1       9.493  10.841  20.978  0.00  0.00    +0.000 OA
ATOM      6  H   UNL     1       9.454   9.895  20.761  0.00  0.00    +0.000 HD
ENDBRANCH   4   5
BRANCH   4   7
ATOM      7  C   UNL     1      11.355  11.489  19.565  0.00  0.00    +0.000 C 
BRANCH   7   8
ATOM      8  C   UNL     1      11.910  12.825  19.077  0.00  0.00    +0.000 C 
BRANCH   8   9
ATOM      9  C   UNL     1      12.217  12.780  17.583  0.00  0.00    +0.000 C 
BRANCH   9  10
ATOM     10  C   UNL     1      11.201  13.590  16.796  0.00  0.00    +0.000 C 
BRANCH  10  11
ATOM     11  C   UNL     1      10.776  14.821  17.588  0.00  0.00    +0.000 C 
BRANCH  11  13
ATOM     12  C   UNL     1      10.367  17.260  17.201  0.00  0.00    +0.000 C 
ATOM     13  C   UNL     1      11.297  16.092  16.931  0.00  0.00    +0.000 C 
ENDBRANCH  11  13
ENDBRANCH  10  11
ENDBRANCH   9  10
ENDBRANCH   8   9
ENDBRANCH   7   8
ENDBRANCH   4   7
ENDBRANCH   3   4
ENDBRANCH   1   3
BRANCH   2  14
ATOM     14  C   UNL     1       7.833   7.281  18.048  0.00  0.00    +0.000 C 
BRANCH  14  15
ATOM     15  C   UNL     1       6.553   6.806  17.359  0.00  0.00    +0.000 C 
BRANCH  15  16
ATOM     16  C   UNL     1       6.258   5.344  17.645  0.00  0.00    +0.000 C 
ATOM     17  O   UNL     1       7.051   4.450  17.310  0.00  0.00    +0.000 OA
ATOM     18  N   UNL     1       5.086   5.074  18.333  0.00  0.00    +0.000 N 
ATOM     19  C   UNL     1       4.824   3.720  18.813  0.00  0.00    +0.000 C 
ATOM     20  C   UNL     1       3.569   3.140  18.167  0.00  0.00    +0.000 C 
ATOM     21  C   UNL     1       2.380   4.086  18.333  0.00  0.00    +0.000 C 
ATOM     22  C   UNL     1       2.721   5.494  17.846  0.00  0.00    +0.000 C 
ATOM     23  C   UNL     1       3.987   6.025  18.514  0.00  0.00    +0.000 C 
ENDBRANCH  15  16
ENDBRANCH  14  15
ENDBRANCH   2  14
TORSDOF 12
ENDMDL
MODEL 8
REMARK VINA RESULT:      -6.3      1.172      1.458
REMARK  Name = 
REMARK  13 active torsions:
REMARK  status: ('A' for Active; 'I' for Inactive)
REMARK    1  A    between atoms: C_1  and  C_2
REMARK    2  A    between atoms: C_2  and  C_3
REMARK    3  A    between atoms: C_3  and  C_4
REMARK    4  A    between atoms: C_4  and  C_5
REMARK    5  A    between atoms: C_5  and  C_6
REMARK    6  A    between atoms: C_6  and  C_7
REMARK    7  A    between atoms: C_7  and  C_8
REMARK    8  A    between atoms: C_8  and  O_9
REMARK    9  A    between atoms: C_8  and  C_10
REMARK   10  A    between atoms: C_10  and  C_11
REMARK   11  A    between atoms: C_12  and  C_13
REMARK   12  A    between atoms: C_13  and  C_14
REMARK   13  A    between atoms: C_14  and  C_15
REMARK                            x       y       z     vdW  Elec       q    Type
REMARK                         _______ _______ _______ _____ _____    ______ ____
ROOT
ATOM      1  C   UNL     1       7.861   7.150  18.037  0.00  0.00    +0.000 C 
ATOM      2  C   UNL     1       8.018   8.469  17.839  0.00  0.00    +0.000 C 
ENDROOT
BRANCH   1   3
ATOM      3  C   UNL     1       7.170   6.225  17.069  0.00  0.00    +0.000 C 
BRANCH   3   4
ATOM      4  C   UNL     1       5.782   6.735  16.642  0.00  0.00    +0.000 C 
BRANCH   4   5
ATOM      5  O   UNL     1       5.452   6.261  15.340  0.00  0.00    +0.000 OA
ATOM      6  H   UNL     1       5.010   6.990  14.876  0.00  0.00    +0.000 HD
ENDBRANCH   4   5
BRANCH   4   7
ATOM      7  C   UNL     1       4.674   6.348  17.636  0.00  0.00    +0.000 C 
BRANCH   7   8
ATOM      8  C   UNL     1       3.544   7.374  17.676  0.00  0.00    +0.000 C 
BRANCH   8   9
ATOM      9  C   UNL     1       2.411   6.908  18.586  0.00  0.00    +0.000 C 
BRANCH   9  10
ATOM     10  C   UNL     1       2.263   5.398  18.538  0.00  0.00    +0.000 C 
BRANCH  10  11
ATOM     11  C   UNL     1       1.819   4.864  19.895  0.00  0.00    +0.000 C 
BRANCH  11  13
ATOM     12  C   UNL     1       1.143   2.802  18.648  0.00  0.00    +0.000 C 
ATOM     13  C   UNL     1       1.809   3.341  19.900  0.00  0.00    +0.000 C 
ENDBRANCH  11  13
ENDBRANCH  10  11
ENDBRANCH   9  10
ENDBRANCH   8   9
ENDBRANCH   7   8
ENDBRANCH   4   7
ENDBRANCH   3   4
ENDBRANCH   1   3
BRANCH   2  14
ATOM     14  C   UNL     1       8.734   9.345  18.833  0.00  0.00    +0.000 C 
BRANCH  14  15
ATOM     15  C   UNL     1       9.098  10.692  18.206  0.00  0.00    +0.000 C 
BRANCH  15  16
ATOM     16  C   UNL     1       9.742  11.634  19.209  0.00  0.00    +0.000 C 
ATOM     17  O   UNL     1       9.288  11.760  20.357  0.00  0.00    +0.000 OA
ATOM     18  N   UNL     1      10.879  12.302  18.784  0.00  0.00    +0.000 N 
ATOM     19  C   UNL     1      11.664  13.075  19.742  0.00  0.00    +0.000 C 
ATOM     20  C   UNL     1      11.694  14.553  19.365  0.00  0.00    +0.000 C 
ATOM     21  C   UNL     1      12.145  14.740  17.917  0.00  0.00    +0.000 C 
ATOM     22  C   UNL     1      11.312  13.885  16.963  0.00  0.00    +0.000 C 
ATOM     23  C   UNL     1      11.306  12.418  17.388  0.00  0.00    +0.000 C 
ENDBRANCH  15  16
ENDBRANCH  14  15
ENDBRANCH   2  14
TORSDOF 12
ENDMDL
MODEL 9
REMARK VINA RESULT:      -6.3      1.384      1.724
REMARK  Name = 
REMARK  13 active torsions:
REMARK  status: ('A' for Active; 'I' for Inactive)
REMARK    1  A    between atoms: C_1  and  C_2
REMARK    2  A    between atoms: C_2  and  C_3
REMARK    3  A    between atoms: C_3  and  C_4
REMARK    4  A    between atoms: C_4  and  C_5
REMARK    5  A    between atoms: C_5  and  C_6
REMARK    6  A    between atoms: C_6  and  C_7
REMARK    7  A    between atoms: C_7  and  C_8
REMARK    8  A    between atoms: C_8  and  O_9
REMARK    9  A    between atoms: C_8  and  C_10
REMARK   10  A    between atoms: C_10  and  C_11
REMARK   11  A    between atoms: C_12  and  C_13
REMARK   12  A    between atoms: C_13  and  C_14
REMARK   13  A    between atoms: C_14  and  C_15
REMARK                            x       y       z     vdW  Elec       q    Type
REMARK                         _______ _______ _______ _____ _____    ______ ____
ROOT
ATOM      1  C   UNL     1       6.442   7.406  17.572  0.00  0.00    +0.000 C 
ATOM      2  C   UNL     1       7.779   7.537  17.557  0.00  0.00    +0.000 C 
ENDROOT
BRANCH   1   3
ATOM      3  C   UNL     1       5.653   6.665  16.525  0.00  0.00    +0.000 C 
BRANCH   3   4
ATOM      4  C   UNL     1       4.890   5.456  17.094  0.00  0.00    +0.000 C 
BRANCH   4   5
ATOM      5  O   UNL     1       5.503   4.237  16.686  0.00  0.00    +0.000 OA
ATOM      6  H   UNL     1       4.790   3.593  16.545  0.00  0.00    +0.000 HD
ENDBRANCH   4   5
BRANCH   4   7
ATOM      7  C   UNL     1       4.772   5.495  18.627  0.00  0.00    +0.000 C 
BRANCH   7   8
ATOM      8  C   UNL     1       3.326   5.635  19.096  0.00  0.00    +0.000 C 
BRANCH   8   9
ATOM      9  C   UNL     1       2.351   5.423  17.942  0.00  0.00    +0.000 C 
BRANCH   9  10
ATOM     10  C   UNL     1       1.541   4.154  18.142  0.00  0.00    +0.000 C 
BRANCH  10  11
ATOM     11  C   UNL     1       2.297   2.950  17.594  0.00  0.00    +0.000 C 
BRANCH  11  13
ATOM     12  C   UNL     1       3.912   1.951  19.223  0.00  0.00    +0.000 C 
ATOM     13  C   UNL     1       2.498   1.899  18.677  0.00  0.00    +0.000 C 
ENDBRANCH  11  13
ENDBRANCH  10  11
ENDBRANCH   9  10
ENDBRANCH   8   9
ENDBRANCH   7   8
ENDBRANCH   4   7
ENDBRANCH   3   4
ENDBRANCH   1   3
BRANCH   2  14
ATOM     14  C   UNL     1       8.521   8.274  18.641  0.00  0.00    +0.000 C 
BRANCH  14  15
ATOM     15  C   UNL     1       8.630   9.763  18.307  0.00  0.00    +0.000 C 
BRANCH  15  16
ATOM     16  C   UNL     1       9.388  10.534  19.375  0.00  0.00    +0.000 C 
ATOM     17  O   UNL     1       9.058  10.472  20.569  0.00  0.00    +0.000 OA
ATOM     18  N   UNL     1      10.484  11.265  18.945  0.00  0.00    +0.000 N 
ATOM     19  C   UNL     1      11.375  11.877  19.928  0.00  0.00    +0.000 C 
ATOM     20  C   UNL     1      11.385  13.396  19.791  0.00  0.00    +0.000 C 
ATOM     21  C   UNL     1      11.686  13.815  18.352  0.00  0.00    +0.000 C 
ATOM     22  C   UNL     1      10.747  13.122  17.366  0.00  0.00    +0.000 C 
ATOM     23  C   UNL     1      10.765  11.606  17.549  0.00  0.00    +0.000 C 
ENDBRANCH  15  16
ENDBRANCH  14  15
ENDBRANCH   2  14
TORSDOF 12
ENDMDL
