MODEL 1
REMARK VINA RESULT:      -6.3      0.000      0.000
REMARK  Name = 
REMARK  9 active torsions:
REMARK  status: ('A' for Active; 'I' for Inactive)
REMARK    1  A    between atoms: C_1  and  C_2
REMARK    2  A    between atoms: C_7  and  C_8
REMARK    3  A    between atoms: C_8  and  C_9
REMARK    4  A    between atoms: C_8  and  N_19
REMARK    5  A    between atoms: N_11  and  C_12
REMARK    6  A    between atoms: C_12  and  C_13
REMARK    7  A    between atoms: C_13  and  N_14
REMARK    8  A    between atoms: N_19  and  C_20
REMARK    9  A    between atoms: N_19  and  C_21
REMARK                            x       y       z     vdW  Elec       q    Type
REMARK                         _______ _______ _______ _____ _____    ______ ____
ROOT
ATOM      1  C   UNL     1       3.941   4.837  18.885  0.00  0.00    +0.000 C 
ENDROOT
BRANCH   1   8
ATOM      2  C   UNL     1       6.898   5.567  19.334  0.00  0.00    +0.000 C 
ATOM      3  C   UNL     1       6.397   4.973  18.045  0.00  0.00    +0.000 A 
ATOM      4  C   UNL     1       7.327   4.773  17.008  0.00  0.00    +0.000 A 
ATOM      5  C   UNL     1       6.942   4.215  15.788  0.00  0.00    +0.000 A 
ATOM      6  C   UNL     1       5.620   3.844  15.586  0.00  0.00    +0.000 A 
ATOM      7  C   UNL     1       4.685   4.043  16.599  0.00  0.00    +0.000 A 
ATOM      8  C   UNL     1       5.043   4.627  17.833  0.00  0.00    +0.000 A 
ENDBRANCH   1   8
BRANCH   1   9
ATOM      9  C   UNL     1       2.809   5.716  18.236  0.00  0.00    +0.000 C 
ATOM     10  O   UNL     1       1.783   5.264  17.733  0.00  0.00    +0.000 OA
ATOM     11  N   UNL     1       3.046   7.085  18.277  0.00  0.00    +0.000 N 
ATOM     12  H   UNL     1       3.980   7.401  18.502  0.00  0.00    +0.000 HD
BRANCH  11  13
ATOM     13  C   UNL     1       2.157   8.004  17.585  0.00  0.00    +0.000 C 
BRANCH  13  14
ATOM     14  C   UNL     1       2.218   9.428  18.138  0.00  0.00    +0.000 C 
BRANCH  14  15
ATOM     15  N   UNL     1       1.076   9.721  18.986  0.00  0.00    +0.000 N 
ATOM     16  C   UNL     1      -0.023  10.447  18.611  0.00  0.00    +0.000 A 
ATOM     17  C   UNL     1      -0.889  10.483  19.683  0.00  0.00    +0.000 A 
ATOM     18  C   UNL     1      -0.282   9.765  20.740  0.00  0.00    +0.000 A 
ATOM     19  C   UNL     1       0.936   9.313  20.286  0.00  0.00    +0.000 A 
ENDBRANCH  14  15
ENDBRANCH  13  14
ENDBRANCH  11  13
ENDBRANCH   1   9
BRANCH   1  20
ATOM     20  N   UNL     1       3.394   3.543  19.394  0.00  0.00    +0.000 NA
ATOM     21  C   UNL     1       4.459   2.618  19.791  0.00  0.00    +0.000 C 
ATOM     22  C   UNL     1       2.480   3.720  20.527  0.00  0.00    +0.000 C 
ENDBRANCH   1  20
TORSDOF 6
ENDMDL
MODEL 2
REMARK VINA RESULT:      -6.3      4.184      6.513
REMARK  Name = 
REMARK  9 active torsions:
REMARK  status: ('A' for Active; 'I' for Inactive)
REMARK    1  A    between atoms: C_1  and  C_2
REMARK    2  A    between atoms: C_7  and  C_8
REMARK    3  A    between atoms: C_8  and  C_9
REMARK    4  A    between atoms: C_8  and  N_19
REMARK    5  A    between atoms: N_11  and  C_12
REMARK    6  A    between atoms: C_12  and  C_13
REMARK    7  A    between atoms: C_13  and  N_14
REMARK    8  A    between atoms: N_19  and  C_20
REMARK    9  A    between atoms: N_19  and  C_21
REMARK                            x       y       z     vdW  Elec       q    Type
REMARK                         _______ _______ _______ _____ _____    ______ ____
ROOT
ATOM      1  C   UNL     1       5.719   5.891  16.954  0.00  0.00    +0.000 C 
ENDROOT
BRANCH   1   8
ATOM      2  C   UNL     1       3.324   7.717  17.591  0.00  0.00    +0.000 C 
ATOM      3  C   UNL     1       3.557   6.412  18.301  0.00  0.00    +0.000 A 
ATOM      4  C   UNL     1       2.648   6.040  19.310  0.00  0.00    +0.000 A 
ATOM      5  C   UNL     1       2.790   4.839  20.005  0.00  0.00    +0.000 A 
ATOM      6  C   UNL     1       3.842   3.986  19.701  0.00  0.00    +0.000 A 
ATOM      7  C   UNL     1       4.756   4.343  18.712  0.00  0.00    +0.000 A 
ATOM      8  C   UNL     1       4.649   5.563  18.010  0.00  0.00    +0.000 A 
ENDBRANCH   1   8
BRANCH   1   9
ATOM      9  C   UNL     1       6.972   6.482  17.698  0.00  0.00    +0.000 C 
ATOM     10  O   UNL     1       7.646   5.865  18.520  0.00  0.00    +0.000 OA
ATOM     11  N   UNL     1       7.287   7.789  17.347  0.00  0.00    +0.000 N 
ATOM     12  H   UNL     1       6.599   8.327  16.839  0.00  0.00    +0.000 HD
BRANCH  11  13
ATOM     13  C   UNL     1       8.329   8.509  18.062  0.00  0.00    +0.000 C 
BRANCH  13  14
ATOM     14  C   UNL     1       8.136  10.025  18.038  0.00  0.00    +0.000 C 
BRANCH  14  15
ATOM     15  N   UNL     1       9.265  10.717  18.633  0.00  0.00    +0.000 N 
ATOM     16  C   UNL     1      10.306  11.276  17.940  0.00  0.00    +0.000 A 
ATOM     17  C   UNL     1      11.159  11.854  18.857  0.00  0.00    +0.000 A 
ATOM     18  C   UNL     1      10.617  11.622  20.143  0.00  0.00    +0.000 A 
ATOM     19  C   UNL     1       9.451  10.909  19.977  0.00  0.00    +0.000 A 
ENDBRANCH  14  15
ENDBRANCH  13  14
ENDBRANCH  11  13
ENDBRANCH   1   9
BRANCH   1  20
ATOM     20  N   UNL     1       6.090   4.696  16.138  0.00  0.00    +0.000 NA
ATOM     21  C   UNL     1       4.970   4.224  15.318  0.00  0.00    +0.000 C 
ATOM     22  C   UNL     1       7.242   4.940  15.265  0.00  0.00    +0.000 C 
ENDBRANCH   1  20
TORSDOF 6
ENDMDL
MODEL 3
REMARK VINA RESULT:      -6.3      2.640      6.905
REMARK  Name = 
REMARK  9 active torsions:
REMARK  status: ('A' for Active; 'I' for Inactive)
REMARK    1  A    between atoms: C_1  and  C_2
REMARK    2  A    between atoms: C_7  and  C_8
REMARK    3  A    between atoms: C_8  and  C_9
REMARK    4  A    between atoms: C_8  and  N_19
REMARK    5  A    between atoms: N_11  and  C_12
REMARK    6  A    between atoms: C_12  and  C_13
REMARK    7  A    between atoms: C_13  and  N_14
REMARK    8  A    between atoms: N_19  and  C_20
REMARK    9  A    between atoms: N_19  and  C_21
REMARK                            x       y       z     vdW  Elec       q    Type
REMARK                         _______ _______ _______ _____ _____    ______ ____
ROOT
ATOM      1  C   UNL     1       3.806   5.579  18.797  0.00  0.00    +0.000 C 
ENDROOT
BRANCH   1   8
ATOM      2  C   UNL     1       1.674   5.317  21.002  0.00  0.00    +0.000 C 
ATOM      3  C   UNL     1       1.845   4.291  19.915  0.00  0.00    +0.000 A 
ATOM      4  C   UNL     1       1.003   3.163  19.937  0.00  0.00    +0.000 A 
ATOM      5  C   UNL     1       1.091   2.175  18.956  0.00  0.00    +0.000 A 
ATOM      6  C   UNL     1       2.021   2.300  17.933  0.00  0.00    +0.000 A 
ATOM      7  C   UNL     1       2.867   3.405  17.901  0.00  0.00    +0.000 A 
ATOM      8  C   UNL     1       2.815   4.408  18.894  0.00  0.00    +0.000 A 
ENDBRANCH   1   8
BRANCH   1   9
ATOM      9  C   UNL     1       5.218   4.994  18.427  0.00  0.00    +0.000 C 
ATOM     10  O   UNL     1       6.105   4.753  19.243  0.00  0.00    +0.000 OA
ATOM     11  N   UNL     1       5.403   4.748  17.072  0.00  0.00    +0.000 N 
ATOM     12  H   UNL     1       4.745   5.150  16.419  0.00  0.00    +0.000 HD
BRANCH  11  13
ATOM     13  C   UNL     1       6.709   4.346  16.571  0.00  0.00    +0.000 C 
BRANCH  13  14
ATOM     14  C   UNL     1       7.227   5.251  15.454  0.00  0.00    +0.000 C 
BRANCH  14  15
ATOM     15  N   UNL     1       6.988   4.671  14.144  0.00  0.00    +0.000 N 
ATOM     16  C   UNL     1       6.036   3.730  13.856  0.00  0.00    +0.000 A 
ATOM     17  C   UNL     1       6.112   3.454  12.507  0.00  0.00    +0.000 A 
ATOM     18  C   UNL     1       7.153   4.247  11.972  0.00  0.00    +0.000 A 
ATOM     19  C   UNL     1       7.685   4.983  13.007  0.00  0.00    +0.000 A 
ENDBRANCH  14  15
ENDBRANCH  13  14
ENDBRANCH  11  13
ENDBRANCH   1   9
BRANCH   1  20
ATOM     20  N   UNL     1       3.371   6.605  17.803  0.00  0.00    +0.000 NA
ATOM     21  C   UNL     1       2.440   7.575  18.389  0.00  0.00    +0.000 C 
ATOM     22  C   UNL     1       4.496   7.334  17.209  0.00  0.00    +0.000 C 
ENDBRANCH   1  20
TORSDOF 6
ENDMDL
MODEL 4
REMARK VINA RESULT:      -6.2      2.030      5.022
REMARK  Name = 
REMARK  9 active torsions:
REMARK  status: ('A' for Active; 'I' for Inactive)
REMARK    1  A    between atoms: C_1  and  C_2
REMARK    2  A    between atoms: C_7  and  C_8
REMARK    3  A    between atoms: C_8  and  C_9
REMARK    4  A    between atoms: C_8  and  N_19
REMARK    5  A    between atoms: N_11  and  C_12
REMARK    6  A    between atoms: C_12  and  C_13
REMARK    7  A    between atoms: C_13  and  N_14
REMARK    8  A    between atoms: N_19  and  C_20
REMARK    9  A    between atoms: N_19  and  C_21
REMARK                            x       y       z     vdW  Elec       q    Type
REMARK                         _______ _______ _______ _____ _____    ______ ____
ROOT
ATOM      1  C   UNL     1       3.454   6.283  17.679  0.00  0.00    +0.000 C 
ENDROOT
BRANCH   1   8
ATOM      2  C   UNL     1       5.450   6.191  15.338  0.00  0.00    +0.000 C 
ATOM      3  C   UNL     1       5.851   5.885  16.755  0.00  0.00    +0.000 A 
ATOM      4  C   UNL     1       7.189   5.521  16.996  0.00  0.00    +0.000 A 
ATOM      5  C   UNL     1       7.640   5.235  18.286  0.00  0.00    +0.000 A 
ATOM      6  C   UNL     1       6.760   5.312  19.357  0.00  0.00    +0.000 A 
ATOM      7  C   UNL     1       5.431   5.662  19.134  0.00  0.00    +0.000 A 
ATOM      8  C   UNL     1       4.943   5.933  17.837  0.00  0.00    +0.000 A 
ENDBRANCH   1   8
BRANCH   1   9
ATOM      9  C   UNL     1       2.648   4.939  17.553  0.00  0.00    +0.000 C 
ATOM     10  O   UNL     1       1.426   4.850  17.653  0.00  0.00    +0.000 OA
ATOM     11  N   UNL     1       3.431   3.818  17.302  0.00  0.00    +0.000 N 
ATOM     12  H   UNL     1       4.430   3.894  17.437  0.00  0.00    +0.000 HD
BRANCH  11  13
ATOM     13  C   UNL     1       2.836   2.491  17.308  0.00  0.00    +0.000 C 
BRANCH  13  14
ATOM     14  C   UNL     1       3.217   1.669  18.539  0.00  0.00    +0.000 C 
BRANCH  14  15
ATOM     15  N   UNL     1       2.637   2.220  19.750  0.00  0.00    +0.000 N 
ATOM     16  C   UNL     1       3.343   2.739  20.802  0.00  0.00    +0.000 A 
ATOM     17  C   UNL     1       2.436   3.176  21.744  0.00  0.00    +0.000 A 
ATOM     18  C   UNL     1       1.142   2.898  21.244  0.00  0.00    +0.000 A 
ATOM     19  C   UNL     1       1.295   2.298  20.015  0.00  0.00    +0.000 A 
ENDBRANCH  14  15
ENDBRANCH  13  14
ENDBRANCH  11  13
ENDBRANCH   1   9
BRANCH   1  20
ATOM     20  N   UNL     1       2.946   7.112  18.814  0.00  0.00    +0.000 NA
ATOM     21  C   UNL     1       2.064   8.188  18.354  0.00  0.00    +0.000 C 
ATOM     22  C   UNL     1       2.234   6.319  19.821  0.00  0.00    +0.000 C 
ENDBRANCH   1  20
TORSDOF 6
ENDMDL
MODEL 5
REMARK VINA RESULT:      -6.2      1.375      1.759
REMARK  Name = 
REMARK  9 active torsions:
REMARK  status: ('A' for Active; 'I' for Inactive)
REMARK    1  A    between atoms: C_1  and  C_2
REMARK    2  A    between atoms: C_7  and  C_8
REMARK    3  A    between atoms: C_8  and  C_9
REMARK    4  A    between atoms: C_8  and  N_19
REMARK    5  A    between atoms: N_11  and  C_12
REMARK    6  A    between atoms: C_12  and  C_13
REMARK    7  A    between atoms: C_13  and  N_14
REMARK    8  A    between atoms: N_19  and  C_20
REMARK    9  A    between atoms: N_19  and  C_21
REMARK                            x       y       z     vdW  Elec       q    Type
REMARK                         _______ _______ _______ _____ _____    ______ ____
ROOT
ATOM      1  C   UNL     1       3.785   4.216  18.721  0.00  0.00    +0.000 C 
ENDROOT
BRANCH   1   8
ATOM      2  C   UNL     1       6.560   5.379  19.372  0.00  0.00    +0.000 C 
ATOM      3  C   UNL     1       6.157   4.978  17.980  0.00  0.00    +0.000 A 
ATOM      4  C   UNL     1       7.090   5.171  16.944  0.00  0.00    +0.000 A 
ATOM      5  C   UNL     1       6.796   4.811  15.628  0.00  0.00    +0.000 A 
ATOM      6  C   UNL     1       5.564   4.248  15.326  0.00  0.00    +0.000 A 
ATOM      7  C   UNL     1       4.626   4.058  16.337  0.00  0.00    +0.000 A 
ATOM      8  C   UNL     1       4.888   4.435  17.673  0.00  0.00    +0.000 A 
ENDBRANCH   1   8
BRANCH   1   9
ATOM      9  C   UNL     1       2.867   5.493  18.735  0.00  0.00    +0.000 C 
ATOM     10  O   UNL     1       2.189   5.871  17.782  0.00  0.00    +0.000 OA
ATOM     11  N   UNL     1       2.862   6.186  19.940  0.00  0.00    +0.000 N 
ATOM     12  H   UNL     1       3.581   5.972  20.618  0.00  0.00    +0.000 HD
BRANCH  11  13
ATOM     13  C   UNL     1       2.175   7.464  20.048  0.00  0.00    +0.000 C 
BRANCH  13  14
ATOM     14  C   UNL     1       1.065   7.460  21.099  0.00  0.00    +0.000 C 
BRANCH  14  15
ATOM     15  N   UNL     1       0.511   8.788  21.294  0.00  0.00    +0.000 N 
ATOM     16  C   UNL     1       0.217   9.354  22.506  0.00  0.00    +0.000 A 
ATOM     17  C   UNL     1      -0.267  10.624  22.272  0.00  0.00    +0.000 A 
ATOM     18  C   UNL     1      -0.276  10.820  20.871  0.00  0.00    +0.000 A 
ATOM     19  C   UNL     1       0.200   9.666  20.289  0.00  0.00    +0.000 A 
ENDBRANCH  14  15
ENDBRANCH  13  14
ENDBRANCH  11  13
ENDBRANCH   1   9
BRANCH   1  20
ATOM     20  N   UNL     1       2.987   2.982  18.450  0.00  0.00    +0.000 NA
ATOM     21  C   UNL     1       3.700   1.769  18.862  0.00  0.00    +0.000 C 
ATOM     22  C   UNL     1       1.675   3.000  19.103  0.00  0.00    +0.000 C 
ENDBRANCH   1  20
TORSDOF 6
ENDMDL
MODEL 6
REMARK VINA RESULT:      -6.2      2.525      7.056
REMARK  Name = 
REMARK  9 active torsions:
REMARK  status: ('A' for Active; 'I' for Inactive)
REMARK    1  A    between atoms: C_1  and  C_2
REMARK    2  A    between atoms: C_7  and  C_8
REMARK    3  A    between atoms: C_8  and  C_9
REMARK    4  A    between atoms: C_8  and  N_19
REMARK    5  A    between atoms: N_11  and  C_12
REMARK    6  A    between atoms: C_12  and  C_13
REMARK    7  A    between atoms: C_13  and  N_14
REMARK    8  A    between atoms: N_19  and  C_20
REMARK    9  A    between atoms: N_19  and  C_21
REMARK                            x       y       z     vdW  Elec       q    Type
REMARK                         _______ _______ _______ _____ _____    ______ ____
ROOT
ATOM      1  C   UNL     1       3.881   5.616  19.170  0.00  0.00    +0.000 C 
ENDROOT
BRANCH   1   8
ATOM      2  C   UNL     1       1.849   4.103  17.420  0.00  0.00    +0.000 C 
ATOM      3  C   UNL     1       1.936   3.911  18.910  0.00  0.00    +0.000 A 
ATOM      4  C   UNL     1       1.029   3.018  19.512  0.00  0.00    +0.000 A 
ATOM      5  C   UNL     1       1.056   2.776  20.886  0.00  0.00    +0.000 A 
ATOM      6  C   UNL     1       1.993   3.421  21.681  0.00  0.00    +0.000 A 
ATOM      7  C   UNL     1       2.892   4.314  21.103  0.00  0.00    +0.000 A 
ATOM      8  C   UNL     1       2.871   4.595  19.720  0.00  0.00    +0.000 A 
ENDBRANCH   1   8
BRANCH   1   9
ATOM      9  C   UNL     1       5.100   4.822  18.571  0.00  0.00    +0.000 C 
ATOM     10  O   UNL     1       6.017   4.352  19.240  0.00  0.00    +0.000 OA
ATOM     11  N   UNL     1       5.068   4.672  17.190  0.00  0.00    +0.000 N 
ATOM     12  H   UNL     1       4.423   5.244  16.661  0.00  0.00    +0.000 HD
BRANCH  11  13
ATOM     13  C   UNL     1       6.201   4.089  16.489  0.00  0.00    +0.000 C 
BRANCH  13  14
ATOM     14  C   UNL     1       6.894   5.073  15.547  0.00  0.00    +0.000 C 
BRANCH  14  15
ATOM     15  N   UNL     1       6.824   4.628  14.166  0.00  0.00    +0.000 N 
ATOM     16  C   UNL     1       7.641   5.056  13.154  0.00  0.00    +0.000 A 
ATOM     17  C   UNL     1       7.273   4.387  12.005  0.00  0.00    +0.000 A 
ATOM     18  C   UNL     1       6.191   3.539  12.338  0.00  0.00    +0.000 A 
ATOM     19  C   UNL     1       5.927   3.715  13.678  0.00  0.00    +0.000 A 
ENDBRANCH  14  15
ENDBRANCH  13  14
ENDBRANCH  11  13
ENDBRANCH   1   9
BRANCH   1  20
ATOM     20  N   UNL     1       3.270   6.517  18.147  0.00  0.00    +0.000 NA
ATOM     21  C   UNL     1       2.327   7.466  18.747  0.00  0.00    +0.000 C 
ATOM     22  C   UNL     1       4.270   7.269  17.383  0.00  0.00    +0.000 C 
ENDBRANCH   1  20
TORSDOF 6
ENDMDL
MODEL 7
REMARK VINA RESULT:      -6.1      2.750      5.494
REMARK  Name = 
REMARK  9 active torsions:
REMARK  status: ('A' for Active; 'I' for Inactive)
REMARK    1  A    between atoms: C_1  and  C_2
REMARK    2  A    between atoms: C_7  and  C_8
REMARK    3  A    between atoms: C_8  and  C_9
REMARK    4  A    between atoms: C_8  and  N_19
REMARK    5  A    between atoms: N_11  and  C_12
REMARK    6  A    between atoms: C_12  and  C_13
REMARK    7  A    between atoms: C_13  and  N_14
REMARK    8  A    between atoms: N_19  and  C_20
REMARK    9  A    between atoms: N_19  and  C_21
REMARK                            x       y       z     vdW  Elec       q    Type
REMARK                         _______ _______ _______ _____ _____    ______ ____
ROOT
ATOM      1  C   UNL     1       5.505   5.123  18.574  0.00  0.00    +0.000 C 
ENDROOT
BRANCH   1   8
ATOM      2  C   UNL     1       4.973   6.867  16.094  0.00  0.00    +0.000 C 
ATOM      3  C   UNL     1       4.123   6.941  17.333  0.00  0.00    +0.000 A 
ATOM      4  C   UNL     1       3.063   7.867  17.349  0.00  0.00    +0.000 A 
ATOM      5  C   UNL     1       2.222   7.986  18.456  0.00  0.00    +0.000 A 
ATOM      6  C   UNL     1       2.425   7.178  19.566  0.00  0.00    +0.000 A 
ATOM      7  C   UNL     1       3.475   6.263  19.571  0.00  0.00    +0.000 A 
ATOM      8  C   UNL     1       4.355   6.139  18.473  0.00  0.00    +0.000 A 
ENDBRANCH   1   8
BRANCH   1   9
ATOM      9  C   UNL     1       4.974   3.734  18.063  0.00  0.00    +0.000 C 
ATOM     10  O   UNL     1       4.686   3.490  16.893  0.00  0.00    +0.000 OA
ATOM     11  N   UNL     1       4.857   2.762  19.050  0.00  0.00    +0.000 N 
ATOM     12  H   UNL     1       4.898   3.055  20.016  0.00  0.00    +0.000 HD
BRANCH  11  13
ATOM     13  C   UNL     1       4.242   1.480  18.746  0.00  0.00    +0.000 C 
BRANCH  13  14
ATOM     14  C   UNL     1       2.741   1.584  18.477  0.00  0.00    +0.000 C 
BRANCH  14  15
ATOM     15  N   UNL     1       2.082   2.437  19.451  0.00  0.00    +0.000 N 
ATOM     16  C   UNL     1       1.208   3.448  19.156  0.00  0.00    +0.000 A 
ATOM     17  C   UNL     1       0.787   4.002  20.347  0.00  0.00    +0.000 A 
ATOM     18  C   UNL     1       1.441   3.307  21.390  0.00  0.00    +0.000 A 
ATOM     19  C   UNL     1       2.244   2.350  20.809  0.00  0.00    +0.000 A 
ENDBRANCH  14  15
ENDBRANCH  13  14
ENDBRANCH  11  13
ENDBRANCH   1   9
BRANCH   1  20
ATOM     20  N   UNL     1       6.709   5.557  17.804  0.00  0.00    +0.000 NA
ATOM     21  C   UNL     1       7.593   6.409  18.606  0.00  0.00    +0.000 C 
ATOM     22  C   UNL     1       7.488   4.429  17.285  0.00  0.00    +0.000 C 
ENDBRANCH   1  20
TORSDOF 6
ENDMDL
MODEL 8
REMARK VINA RESULT:      -6.1      2.136      6.220
REMARK  Name = 
REMARK  9 active torsions:
REMARK  status: ('A' for Active; 'I' for Inactive)
REMARK    1  A    between atoms: C_1  and  C_2
REMARK    2  A    between atoms: C_7  and  C_8
REMARK    3  A    between atoms: C_8  and  C_9
REMARK    4  A    between atoms: C_8  and  N_19
REMARK    5  A    between atoms: N_11  and  C_12
REMARK    6  A    between atoms: C_12  and  C_13
REMARK    7  A    between atoms: C_13  and  N_14
REMARK    8  A    between atoms: N_19  and  C_20
REMARK    9  A    between atoms: N_19  and  C_21
REMARK                            x       y       z     vdW  Elec       q    Type
REMARK                         _______ _______ _______ _____ _____    ______ ____
ROOT
ATOM      1  C   UNL     1       3.347   5.954  19.241  0.00  0.00    +0.000 C 
ENDROOT
BRANCH   1   8
ATOM      2  C   UNL     1       2.171   4.129  21.424  0.00  0.00    +0.000 C 
ATOM      3  C   UNL     1       2.291   3.699  19.987  0.00  0.00    +0.000 A 
ATOM      4  C   UNL     1       1.865   2.400  19.652  0.00  0.00    +0.000 A 
ATOM      5  C   UNL     1       1.933   1.933  18.338  0.00  0.00    +0.000 A 
ATOM      6  C   UNL     1       2.423   2.759  17.337  0.00  0.00    +0.000 A 
ATOM      7  C   UNL     1       2.857   4.044  17.653  0.00  0.00    +0.000 A 
ATOM      8  C   UNL     1       2.822   4.533  18.977  0.00  0.00    +0.000 A 
ENDBRANCH   1   8
BRANCH   1   9
ATOM      9  C   UNL     1       4.610   6.183  18.333  0.00  0.00    +0.000 C 
ATOM     10  O   UNL     1       4.569   6.617  17.183  0.00  0.00    +0.000 OA
ATOM     11  N   UNL     1       5.821   5.863  18.936  0.00  0.00    +0.000 N 
ATOM     12  H   UNL     1       5.801   5.318  19.788  0.00  0.00    +0.000 HD
BRANCH  11  13
ATOM     13  C   UNL     1       7.053   5.886  18.164  0.00  0.00    +0.000 C 
BRANCH  13  14
ATOM     14  C   UNL     1       7.400   4.531  17.548  0.00  0.00    +0.000 C 
BRANCH  14  15
ATOM     15  N   UNL     1       6.929   4.431  16.179  0.00  0.00    +0.000 N 
ATOM     16  C   UNL     1       5.871   3.669  15.759  0.00  0.00    +0.000 A 
ATOM     17  C   UNL     1       5.728   3.860  14.400  0.00  0.00    +0.000 A 
ATOM     18  C   UNL     1       6.743   4.755  13.991  0.00  0.00    +0.000 A 
ATOM     19  C   UNL     1       7.478   5.086  15.108  0.00  0.00    +0.000 A 
ENDBRANCH  14  15
ENDBRANCH  13  14
ENDBRANCH  11  13
ENDBRANCH   1   9
BRANCH   1  20
ATOM     20  N   UNL     1       2.306   6.996  18.990  0.00  0.00    +0.000 NA
ATOM     21  C   UNL     1       1.872   7.646  20.230  0.00  0.00    +0.000 C 
ATOM     22  C   UNL     1       2.752   8.029  18.050  0.00  0.00    +0.000 C 
ENDBRANCH   1  20
TORSDOF 6
ENDMDL
MODEL 9
REMARK VINA RESULT:      -6.1      1.332      1.603
REMARK  Name = 
REMARK  9 active torsions:
REMARK  status: ('A' for Active; 'I' for Inactive)
REMARK    1  A    between atoms: C_1  and  C_2
REMARK    2  A    between atoms: C_7  and  C_8
REMARK    3  A    between atoms: C_8  and  C_9
REMARK    4  A    between atoms: C_8  and  N_19
REMARK    5  A    between atoms: N_11  and  C_12
REMARK    6  A    between atoms: C_12  and  C_13
REMARK    7  A    between atoms: C_13  and  N_14
REMARK    8  A    between atoms: N_19  and  C_20
REMARK    9  A    between atoms: N_19  and  C_21
REMARK                            x       y       z     vdW  Elec       q    Type
REMARK                         _______ _______ _______ _____ _____    ______ ____
ROOT
ATOM      1  C   UNL     1       3.979   4.681  19.043  0.00  0.00    +0.000 C 
ENDROOT
BRANCH   1   8
ATOM      2  C   UNL     1       6.915   5.541  19.386  0.00  0.00    +0.000 C 
ATOM      3  C   UNL     1       6.376   5.002  18.089  0.00  0.00    +0.000 A 
ATOM      4  C   UNL     1       7.258   4.917  16.995  0.00  0.00    +0.000 A 
ATOM      5  C   UNL     1       6.835   4.416  15.763  0.00  0.00    +0.000 A 
ATOM      6  C   UNL     1       5.525   3.987  15.605  0.00  0.00    +0.000 A 
ATOM      7  C   UNL     1       4.638   4.072  16.675  0.00  0.00    +0.000 A 
ATOM      8  C   UNL     1       5.032   4.597  17.925  0.00  0.00    +0.000 A 
ENDBRANCH   1   8
BRANCH   1   9
ATOM      9  C   UNL     1       3.199   6.037  18.877  0.00  0.00    +0.000 C 
ATOM     10  O   UNL     1       3.104   6.657  17.820  0.00  0.00    +0.000 OA
ATOM     11  N   UNL     1       2.595   6.501  20.039  0.00  0.00    +0.000 N 
ATOM     12  H   UNL     1       2.869   6.085  20.919  0.00  0.00    +0.000 HD
BRANCH  11  13
ATOM     13  C   UNL     1       1.967   7.812  20.065  0.00  0.00    +0.000 C 
BRANCH  13  14
ATOM     14  C   UNL     1       1.311   8.136  21.407  0.00  0.00    +0.000 C 
BRANCH  14  15
ATOM     15  N   UNL     1       0.560   9.378  21.349  0.00  0.00    +0.000 N 
ATOM     16  C   UNL     1       0.479  10.203  20.259  0.00  0.00    +0.000 A 
ATOM     17  C   UNL     1      -0.340  11.261  20.593  0.00  0.00    +0.000 A 
ATOM     18  C   UNL     1      -0.752  11.070  21.932  0.00  0.00    +0.000 A 
ATOM     19  C   UNL     1      -0.173   9.904  22.380  0.00  0.00    +0.000 A 
ENDBRANCH  14  15
ENDBRANCH  13  14
ENDBRANCH  11  13
ENDBRANCH   1   9
BRANCH   1  20
ATOM     20  N   UNL     1       3.045   3.515  19.026  0.00  0.00    +0.000 NA
ATOM     21  C   UNL     1       3.079   2.769  20.287  0.00  0.00    +0.000 C 
ATOM     22  C   UNL     1       1.659   3.903  18.747  0.00  0.00    +0.000 C 
ENDBRANCH   1  20
TORSDOF 6
ENDMDL
