MODEL 1
REMARK VINA RESULT:      -7.1      0.000      0.000
REMARK  Name = 
REMARK  12 active torsions:
REMARK  status: ('A' for Active; 'I' for Inactive)
REMARK    1  A    between atoms: C_1  and  C_2
REMARK    2  A    between atoms: C_2  and  O_3
REMARK    3  A    between atoms: O_3  and  C_4
REMARK    4  A    between atoms: C_4  and  C_6
REMARK    5  A    between atoms: C_9  and  C_10
REMARK    6  A    between atoms: C_10  and  N_11
REMARK    7  A    between atoms: C_16  and  O_17
REMARK    8  A    between atoms: C_18  and  O_19
REMARK    9  A    between atoms: O_19  and  C_20
REMARK   10  A    between atoms: C_24  and  C_25
REMARK   11  A    between atoms: C_25  and  S_26
REMARK   12  A    between atoms: S_26  and  C_28
REMARK                            x       y       z     vdW  Elec       q    Type
REMARK                         _______ _______ _______ _____ _____    ______ ____
ROOT
ATOM      1  C   UNL     1       1.768   7.798  19.828  0.00  0.00    +0.000 A 
ATOM      2  C   UNL     1       2.585   6.656  19.884  0.00  0.00    +0.000 A 
ATOM      3  C   UNL     1       3.427   6.281  18.838  0.00  0.00    +0.000 A 
ATOM      4  C   UNL     1       4.157   5.047  18.833  0.00  0.00    +0.000 A 
ATOM      5  C   UNL     1       4.720   4.687  17.609  0.00  0.00    +0.000 A 
ATOM      6  C   UNL     1       4.862   5.599  16.550  0.00  0.00    +0.000 A 
ATOM      7  C   UNL     1       4.249   6.843  16.633  0.00  0.00    +0.000 A 
ATOM      8  C   UNL     1       3.457   7.168  17.731  0.00  0.00    +0.000 A 
ATOM      9  N   UNL     1       2.701   8.298  17.677  0.00  0.00    +0.000 NA
ATOM     10  C   UNL     1       1.848   8.611  18.702  0.00  0.00    +0.000 A 
ENDROOT
BRANCH   1  11
ATOM     11  C   UNL     1       0.871   8.059  20.966  0.00  0.00    +0.000 C 
ATOM     12  O   UNL     1      -0.230   7.545  21.121  0.00  0.00    +0.000 OA
BRANCH  11  13
ATOM     13  O   UNL     1       1.408   9.052  21.716  0.00  0.00    +0.000 OA
BRANCH  13  15
ATOM     14  C   UNL     1      -0.322  10.415  22.601  0.00  0.00    +0.000 C 
ATOM     15  C   UNL     1       0.732   9.373  22.931  0.00  0.00    +0.000 C 
ENDBRANCH  13  15
ENDBRANCH  11  13
ENDBRANCH   1  11
BRANCH   5  16
ATOM     16  O   UNL     1       5.069   3.389  17.342  0.00  0.00    +0.000 OA
ATOM     17  H   UNL     1       4.504   3.055  16.632  0.00  0.00    +0.000 HD
ENDBRANCH   5  16
BRANCH   6  18
ATOM     18  O   UNL     1       5.584   5.104  15.498  0.00  0.00    +0.000 OA
ATOM     19  C   UNL     1       6.994   5.208  15.487  0.00  0.00    +0.000 C 
ENDBRANCH   6  18
BRANCH   4  20
ATOM     20  C   UNL     1       4.200   4.105  20.034  0.00  0.00    +0.000 C 
BRANCH  20  21
ATOM     21  N   UNL     1       3.218   3.035  20.173  0.00  0.00    +0.000 NA
ATOM     22  C   UNL     1       2.163   2.906  19.182  0.00  0.00    +0.000 C 
ATOM     23  C   UNL     1       0.903   3.303  19.929  0.00  0.00    +0.000 C 
ATOM     24  C   UNL     1       1.157   2.848  21.357  0.00  0.00    +0.000 C 
ATOM     25  C   UNL     1       2.668   2.680  21.469  0.00  0.00    +0.000 C 
ENDBRANCH  20  21
ENDBRANCH   4  20
BRANCH  10  26
ATOM     26  C   UNL     1       0.988   9.835  18.466  0.00  0.00    +0.000 C 
BRANCH  26  27
ATOM     27  S   UNL     1       1.682  11.398  19.125  0.00  0.00    +0.000 S 
ATOM     28  O   UNL     1       2.337  12.184  17.931  0.00  0.00    +0.000 OA
BRANCH  27  29
ATOM     29  C   UNL     1       0.108  12.215  19.502  0.00  0.00    +0.000 A 
ATOM     30  C   UNL     1       0.091  13.397  20.256  0.00  0.00    +0.000 A 
ATOM     31  C   UNL     1      -1.124  13.932  20.691  0.00  0.00    +0.000 A 
ATOM     32  C   UNL     1      -2.314  13.299  20.351  0.00  0.00    +0.000 A 
ATOM     33  F   UNL     1      -3.472  13.766  20.837  0.00  0.00    +0.000 F 
ATOM     34  C   UNL     1      -2.318  12.180  19.529  0.00  0.00    +0.000 A 
ATOM     35  C   UNL     1      -1.104  11.646  19.090  0.00  0.00    +0.000 A 
ENDBRANCH  27  29
ENDBRANCH  26  27
ENDBRANCH  10  26
TORSDOF 10
ENDMDL
MODEL 2
REMARK VINA RESULT:      -6.9      1.066      1.220
REMARK  Name = 
REMARK  12 active torsions:
REMARK  status: ('A' for Active; 'I' for Inactive)
REMARK    1  A    between atoms: C_1  and  C_2
REMARK    2  A    between atoms: C_2  and  O_3
REMARK    3  A    between atoms: O_3  and  C_4
REMARK    4  A    between atoms: C_4  and  C_6
REMARK    5  A    between atoms: C_9  and  C_10
REMARK    6  A    between atoms: C_10  and  N_11
REMARK    7  A    between atoms: C_16  and  O_17
REMARK    8  A    between atoms: C_18  and  O_19
REMARK    9  A    between atoms: O_19  and  C_20
REMARK   10  A    between atoms: C_24  and  C_25
REMARK   11  A    between atoms: C_25  and  S_26
REMARK   12  A    between atoms: S_26  and  C_28
REMARK                            x       y       z     vdW  Elec       q    Type
REMARK                         _______ _______ _______ _____ _____    ______ ____
ROOT
ATOM      1  C   UNL     1       2.298   7.045  19.425  0.00  0.00    +0.000 A 
ATOM      2  C   UNL     1       3.271   6.031  19.379  0.00  0.00    +0.000 A 
ATOM      3  C   UNL     1       4.192   5.918  18.338  0.00  0.00    +0.000 A 
ATOM      4  C   UNL     1       5.094   4.811  18.216  0.00  0.00    +0.000 A 
ATOM      5  C   UNL     1       5.743   4.696  16.987  0.00  0.00    +0.000 A 
ATOM      6  C   UNL     1       5.784   5.750  16.058  0.00  0.00    +0.000 A 
ATOM      7  C   UNL     1       4.993   6.874  16.265  0.00  0.00    +0.000 A 
ATOM      8  C   UNL     1       4.128   6.938  17.354  0.00  0.00    +0.000 A 
ATOM      9  N   UNL     1       3.216   7.947  17.403  0.00  0.00    +0.000 NA
ATOM     10  C   UNL     1       2.295   8.000  18.414  0.00  0.00    +0.000 A 
ENDROOT
BRANCH   1  11
ATOM     11  C   UNL     1       1.337   7.025  20.539  0.00  0.00    +0.000 C 
ATOM     12  O   UNL     1       0.599   6.086  20.811  0.00  0.00    +0.000 OA
BRANCH  11  13
ATOM     13  O   UNL     1       1.314   8.256  21.106  0.00  0.00    +0.000 OA
BRANCH  13  15
ATOM     14  C   UNL     1       0.377   9.572  22.846  0.00  0.00    +0.000 C 
ATOM     15  C   UNL     1       0.067   8.685  21.653  0.00  0.00    +0.000 C 
ENDBRANCH  13  15
ENDBRANCH  11  13
ENDBRANCH   1  11
BRANCH   5  16
ATOM     16  O   UNL     1       6.285   3.506  16.578  0.00  0.00    +0.000 OA
ATOM     17  H   UNL     1       6.242   3.460  15.613  0.00  0.00    +0.000 HD
ENDBRANCH   5  16
BRANCH   6  18
ATOM     18  O   UNL     1       6.604   5.503  14.991  0.00  0.00    +0.000 OA
ATOM     19  C   UNL     1       6.168   4.676  13.932  0.00  0.00    +0.000 C 
ENDBRANCH   6  18
BRANCH   4  20
ATOM     20  C   UNL     1       5.235   3.735  19.291  0.00  0.00    +0.000 C 
BRANCH  20  21
ATOM     21  N   UNL     1       4.249   2.666  19.405  0.00  0.00    +0.000 NA
ATOM     22  C   UNL     1       3.567   2.199  18.210  0.00  0.00    +0.000 C 
ATOM     23  C   UNL     1       2.139   2.678  18.387  0.00  0.00    +0.000 C 
ATOM     24  C   UNL     1       1.914   2.638  19.889  0.00  0.00    +0.000 C 
ATOM     25  C   UNL     1       3.307   2.623  20.509  0.00  0.00    +0.000 C 
ENDBRANCH  20  21
ENDBRANCH   4  20
BRANCH  10  26
ATOM     26  C   UNL     1       1.273   9.112  18.290  0.00  0.00    +0.000 C 
BRANCH  26  27
ATOM     27  S   UNL     1       1.817  10.731  18.954  0.00  0.00    +0.000 S 
ATOM     28  O   UNL     1       2.501  11.533  17.789  0.00  0.00    +0.000 OA
BRANCH  27  29
ATOM     29  C   UNL     1       0.170  11.449  19.203  0.00  0.00    +0.000 A 
ATOM     30  C   UNL     1      -0.041  12.390  20.220  0.00  0.00    +0.000 A 
ATOM     31  C   UNL     1      -1.338  12.814  20.522  0.00  0.00    +0.000 A 
ATOM     32  C   UNL     1      -2.411  12.316  19.792  0.00  0.00    +0.000 A 
ATOM     33  F   UNL     1      -3.660  12.660  20.136  0.00  0.00    +0.000 F 
ATOM     34  C   UNL     1      -2.208  11.454  18.722  0.00  0.00    +0.000 A 
ATOM     35  C   UNL     1      -0.912  11.032  18.416  0.00  0.00    +0.000 A 
ENDBRANCH  27  29
ENDBRANCH  26  27
ENDBRANCH  10  26
TORSDOF 10
ENDMDL
MODEL 3
REMARK VINA RESULT:      -6.8      1.012      1.257
REMARK  Name = 
REMARK  12 active torsions:
REMARK  status: ('A' for Active; 'I' for Inactive)
REMARK    1  A    between atoms: C_1  and  C_2
REMARK    2  A    between atoms: C_2  and  O_3
REMARK    3  A    between atoms: O_3  and  C_4
REMARK    4  A    between atoms: C_4  and  C_6
REMARK    5  A    between atoms: C_9  and  C_10
REMARK    6  A    between atoms: C_10  and  N_11
REMARK    7  A    between atoms: C_16  and  O_17
REMARK    8  A    between atoms: C_18  and  O_19
REMARK    9  A    between atoms: O_19  and  C_20
REMARK   10  A    between atoms: C_24  and  C_25
REMARK   11  A    between atoms: C_25  and  S_26
REMARK   12  A    between atoms: S_26  and  C_28
REMARK                            x       y       z     vdW  Elec       q    Type
REMARK                         _______ _______ _______ _____ _____    ______ ____
ROOT
ATOM      1  C   UNL     1       1.432   8.768  19.606  0.00  0.00    +0.000 A 
ATOM      2  C   UNL     1       2.005   7.513  19.877  0.00  0.00    +0.000 A 
ATOM      3  C   UNL     1       2.905   6.893  19.010  0.00  0.00    +0.000 A 
ATOM      4  C   UNL     1       3.384   5.558  19.214  0.00  0.00    +0.000 A 
ATOM      5  C   UNL     1       4.041   4.982  18.126  0.00  0.00    +0.000 A 
ATOM      6  C   UNL     1       4.504   5.744  17.040  0.00  0.00    +0.000 A 
ATOM      7  C   UNL     1       4.129   7.078  16.932  0.00  0.00    +0.000 A 
ATOM      8  C   UNL     1       3.260   7.645  17.861  0.00  0.00    +0.000 A 
ATOM      9  N   UNL     1       2.744   8.877  17.603  0.00  0.00    +0.000 NA
ATOM     10  C   UNL     1       1.826   9.435  18.452  0.00  0.00    +0.000 A 
ENDROOT
BRANCH   1  11
ATOM     11  C   UNL     1       0.445   9.293  20.562  0.00  0.00    +0.000 C 
ATOM     12  O   UNL     1      -0.755   9.400  20.341  0.00  0.00    +0.000 OA
BRANCH  11  13
ATOM     13  O   UNL     1       1.107   9.760  21.649  0.00  0.00    +0.000 OA
BRANCH  13  15
ATOM     14  C   UNL     1      -0.580  10.126  23.279  0.00  0.00    +0.000 C 
ATOM     15  C   UNL     1       0.647   9.305  22.921  0.00  0.00    +0.000 C 
ENDBRANCH  13  15
ENDBRANCH  11  13
ENDBRANCH   1  11
BRANCH   5  16
ATOM     16  O   UNL     1       4.176   3.623  18.015  0.00  0.00    +0.000 OA
ATOM     17  H   UNL     1       4.948   3.431  17.465  0.00  0.00    +0.000 HD
ENDBRANCH   5  16
BRANCH   6  18
ATOM     18  O   UNL     1       5.266   5.028  16.158  0.00  0.00    +0.000 OA
ATOM     19  C   UNL     1       6.661   5.242  16.080  0.00  0.00    +0.000 C 
ENDBRANCH   6  18
BRANCH   4  20
ATOM     20  C   UNL     1       3.074   4.749  20.472  0.00  0.00    +0.000 C 
BRANCH  20  21
ATOM     21  N   UNL     1       1.963   3.806  20.493  0.00  0.00    +0.000 NA
ATOM     22  C   UNL     1       2.231   2.396  20.719  0.00  0.00    +0.000 C 
ATOM     23  C   UNL     1       1.938   1.742  19.382  0.00  0.00    +0.000 C 
ATOM     24  C   UNL     1       0.819   2.586  18.792  0.00  0.00    +0.000 C 
ATOM     25  C   UNL     1       0.867   3.910  19.546  0.00  0.00    +0.000 C 
ENDBRANCH  20  21
ENDBRANCH   4  20
BRANCH  10  26
ATOM     26  C   UNL     1       1.253  10.760  17.991  0.00  0.00    +0.000 C 
BRANCH  26  27
ATOM     27  S   UNL     1       1.971  12.232  18.812  0.00  0.00    +0.000 S 
ATOM     28  O   UNL     1       2.221  13.331  17.717  0.00  0.00    +0.000 OA
BRANCH  27  29
ATOM     29  C   UNL     1       0.494  12.730  19.740  0.00  0.00    +0.000 A 
ATOM     30  C   UNL     1       0.615  13.209  21.051  0.00  0.00    +0.000 A 
ATOM     31  C   UNL     1      -0.529  13.429  21.823  0.00  0.00    +0.000 A 
ATOM     32  C   UNL     1      -1.784  13.194  21.274  0.00  0.00    +0.000 A 
ATOM     33  F   UNL     1      -2.875  13.326  22.041  0.00  0.00    +0.000 F 
ATOM     34  C   UNL     1      -1.922  12.807  19.948  0.00  0.00    +0.000 A 
ATOM     35  C   UNL     1      -0.780  12.590  19.173  0.00  0.00    +0.000 A 
ENDBRANCH  27  29
ENDBRANCH  26  27
ENDBRANCH  10  26
TORSDOF 10
ENDMDL
MODEL 4
REMARK VINA RESULT:      -6.8      1.732      2.415
REMARK  Name = 
REMARK  12 active torsions:
REMARK  status: ('A' for Active; 'I' for Inactive)
REMARK    1  A    between atoms: C_1  and  C_2
REMARK    2  A    between atoms: C_2  and  O_3
REMARK    3  A    between atoms: O_3  and  C_4
REMARK    4  A    between atoms: C_4  and  C_6
REMARK    5  A    between atoms: C_9  and  C_10
REMARK    6  A    between atoms: C_10  and  N_11
REMARK    7  A    between atoms: C_16  and  O_17
REMARK    8  A    between atoms: C_18  and  O_19
REMARK    9  A    between atoms: O_19  and  C_20
REMARK   10  A    between atoms: C_24  and  C_25
REMARK   11  A    between atoms: C_25  and  S_26
REMARK   12  A    between atoms: S_26  and  C_28
REMARK                            x       y       z     vdW  Elec       q    Type
REMARK                         _______ _______ _______ _____ _____    ______ ____
ROOT
ATOM      1  C   UNL     1       0.653   8.863  20.741  0.00  0.00    +0.000 A 
ATOM      2  C   UNL     1       1.385   7.665  20.801  0.00  0.00    +0.000 A 
ATOM      3  C   UNL     1       2.239   7.252  19.779  0.00  0.00    +0.000 A 
ATOM      4  C   UNL     1       2.880   5.970  19.773  0.00  0.00    +0.000 A 
ATOM      5  C   UNL     1       3.464   5.595  18.563  0.00  0.00    +0.000 A 
ATOM      6  C   UNL     1       3.710   6.516  17.531  0.00  0.00    +0.000 A 
ATOM      7  C   UNL     1       3.183   7.799  17.619  0.00  0.00    +0.000 A 
ATOM      8  C   UNL     1       2.373   8.157  18.694  0.00  0.00    +0.000 A 
ATOM      9  N   UNL     1       1.700   9.338  18.638  0.00  0.00    +0.000 NA
ATOM     10  C   UNL     1       0.833   9.690  19.637  0.00  0.00    +0.000 A 
ENDROOT
BRANCH   1  11
ATOM     11  C   UNL     1      -0.267   9.163  21.850  0.00  0.00    +0.000 C 
ATOM     12  O   UNL     1      -1.062   8.368  22.335  0.00  0.00    +0.000 OA
BRANCH  11  13
ATOM     13  O   UNL     1      -0.178  10.486  22.134  0.00  0.00    +0.000 OA
BRANCH  13  15
ATOM     14  C   UNL     1      -1.067  12.518  22.981  0.00  0.00    +0.000 C 
ATOM     15  C   UNL     1      -1.119  11.003  23.074  0.00  0.00    +0.000 C 
ENDBRANCH  13  15
ENDBRANCH  11  13
ENDBRANCH   1  11
BRANCH   5  16
ATOM     16  O   UNL     1       3.731   4.282  18.280  0.00  0.00    +0.000 OA
ATOM     17  H   UNL     1       4.635   4.081  18.559  0.00  0.00    +0.000 HD
ENDBRANCH   5  16
BRANCH   6  18
ATOM     18  O   UNL     1       4.436   5.993  16.496  0.00  0.00    +0.000 OA
ATOM     19  C   UNL     1       5.686   6.552  16.145  0.00  0.00    +0.000 C 
ENDBRANCH   6  18
BRANCH   4  20
ATOM     20  C   UNL     1       2.811   5.004  20.954  0.00  0.00    +0.000 C 
BRANCH  20  21
ATOM     21  N   UNL     1       1.835   3.920  20.969  0.00  0.00    +0.000 NA
ATOM     22  C   UNL     1       2.299   2.547  21.071  0.00  0.00    +0.000 C 
ATOM     23  C   UNL     1       2.001   1.952  19.707  0.00  0.00    +0.000 C 
ATOM     24  C   UNL     1       0.745   2.676  19.251  0.00  0.00    +0.000 C 
ATOM     25  C   UNL     1       0.672   3.941  20.099  0.00  0.00    +0.000 C 
ENDBRANCH  20  21
ENDBRANCH   4  20
BRANCH  10  26
ATOM     26  C   UNL     1       0.070  10.977  19.397  0.00  0.00    +0.000 C 
BRANCH  26  27
ATOM     27  S   UNL     1      -0.961  10.985  17.882  0.00  0.00    +0.000 S 
ATOM     28  O   UNL     1      -1.164   9.496  17.420  0.00  0.00    +0.000 OA
BRANCH  27  29
ATOM     29  C   UNL     1      -2.512  11.520  18.655  0.00  0.00    +0.000 A 
ATOM     30  C   UNL     1      -3.741  11.200  18.062  0.00  0.00    +0.000 A 
ATOM     31  C   UNL     1      -4.923  11.753  18.560  0.00  0.00    +0.000 A 
ATOM     32  C   UNL     1      -4.874  12.602  19.660  0.00  0.00    +0.000 A 
ATOM     33  F   UNL     1      -5.997  13.197  20.086  0.00  0.00    +0.000 F 
ATOM     34  C   UNL     1      -3.675  12.855  20.314  0.00  0.00    +0.000 A 
ATOM     35  C   UNL     1      -2.493  12.300  19.820  0.00  0.00    +0.000 A 
ENDBRANCH  27  29
ENDBRANCH  26  27
ENDBRANCH  10  26
TORSDOF 10
ENDMDL
MODEL 5
REMARK VINA RESULT:      -6.8      3.617      8.405
REMARK  Name = 
REMARK  12 active torsions:
REMARK  status: ('A' for Active; 'I' for Inactive)
REMARK    1  A    between atoms: C_1  and  C_2
REMARK    2  A    between atoms: C_2  and  O_3
REMARK    3  A    between atoms: O_3  and  C_4
REMARK    4  A    between atoms: C_4  and  C_6
REMARK    5  A    between atoms: C_9  and  C_10
REMARK    6  A    between atoms: C_10  and  N_11
REMARK    7  A    between atoms: C_16  and  O_17
REMARK    8  A    between atoms: C_18  and  O_19
REMARK    9  A    between atoms: O_19  and  C_20
REMARK   10  A    between atoms: C_24  and  C_25
REMARK   11  A    between atoms: C_25  and  S_26
REMARK   12  A    between atoms: S_26  and  C_28
REMARK                            x       y       z     vdW  Elec       q    Type
REMARK                         _______ _______ _______ _____ _____    ______ ____
ROOT
ATOM      1  C   UNL     1       1.873   6.461  19.990  0.00  0.00    +0.000 A 
ATOM      2  C   UNL     1       1.319   7.617  20.565  0.00  0.00    +0.000 A 
ATOM      3  C   UNL     1       1.362   8.864  19.941  0.00  0.00    +0.000 A 
ATOM      4  C   UNL     1       0.924  10.068  20.581  0.00  0.00    +0.000 A 
ATOM      5  C   UNL     1       1.292  11.255  19.947  0.00  0.00    +0.000 A 
ATOM      6  C   UNL     1       1.756  11.285  18.622  0.00  0.00    +0.000 A 
ATOM      7  C   UNL     1       2.054  10.092  17.975  0.00  0.00    +0.000 A 
ATOM      8  C   UNL     1       1.945   8.877  18.648  0.00  0.00    +0.000 A 
ATOM      9  N   UNL     1       2.452   7.759  18.060  0.00  0.00    +0.000 NA
ATOM     10  C   UNL     1       2.436   6.561  18.722  0.00  0.00    +0.000 A 
ENDROOT
BRANCH   1  11
ATOM     11  C   UNL     1       1.826   5.214  20.771  0.00  0.00    +0.000 C 
ATOM     12  O   UNL     1       2.661   4.877  21.602  0.00  0.00    +0.000 OA
BRANCH  11  13
ATOM     13  O   UNL     1       0.797   4.460  20.313  0.00  0.00    +0.000 OA
BRANCH  13  15
ATOM     14  C   UNL     1       0.910   2.587  18.859  0.00  0.00    +0.000 C 
ATOM     15  C   UNL     1       0.995   3.047  20.304  0.00  0.00    +0.000 C 
ENDBRANCH  13  15
ENDBRANCH  11  13
ENDBRANCH   1  11
BRANCH   5  16
ATOM     16  O   UNL     1       1.318  12.445  20.627  0.00  0.00    +0.000 OA
ATOM     17  H   UNL     1       0.538  12.960  20.382  0.00  0.00    +0.000 HD
ENDBRANCH   5  16
BRANCH   6  18
ATOM     18  O   UNL     1       1.907  12.551  18.126  0.00  0.00    +0.000 OA
ATOM     19  C   UNL     1       3.185  13.152  18.079  0.00  0.00    +0.000 C 
ENDBRANCH   6  18
BRANCH   4  20
ATOM     20  C   UNL     1       0.231  10.078  21.942  0.00  0.00    +0.000 C 
BRANCH  20  21
ATOM     21  N   UNL     1      -1.117  10.616  22.084  0.00  0.00    +0.000 NA
ATOM     22  C   UNL     1      -1.722  11.322  20.967  0.00  0.00    +0.000 C 
ATOM     23  C   UNL     1      -1.775  12.767  21.427  0.00  0.00    +0.000 C 
ATOM     24  C   UNL     1      -1.978  12.673  22.931  0.00  0.00    +0.000 C 
ATOM     25  C   UNL     1      -1.547  11.262  23.312  0.00  0.00    +0.000 C 
ENDBRANCH  20  21
ENDBRANCH   4  20
BRANCH  10  26
ATOM     26  C   UNL     1       3.128   5.423  18.000  0.00  0.00    +0.000 C 
BRANCH  26  27
ATOM     27  S   UNL     1       4.816   5.045  18.604  0.00  0.00    +0.000 S 
ATOM     28  O   UNL     1       4.776   3.653  19.331  0.00  0.00    +0.000 OA
BRANCH  27  29
ATOM     29  C   UNL     1       5.592   4.781  16.986  0.00  0.00    +0.000 A 
ATOM     30  C   UNL     1       6.945   5.093  16.795  0.00  0.00    +0.000 A 
ATOM     31  C   UNL     1       7.498   5.052  15.512  0.00  0.00    +0.000 A 
ATOM     32  C   UNL     1       6.704   4.676  14.434  0.00  0.00    +0.000 A 
ATOM     33  F   UNL     1       7.213   4.716  13.195  0.00  0.00    +0.000 F 
ATOM     34  C   UNL     1       5.388   4.276  14.622  0.00  0.00    +0.000 A 
ATOM     35  C   UNL     1       4.835   4.313  15.904  0.00  0.00    +0.000 A 
ENDBRANCH  27  29
ENDBRANCH  26  27
ENDBRANCH  10  26
TORSDOF 10
ENDMDL
MODEL 6
REMARK VINA RESULT:      -6.8      4.172      8.828
REMARK  Name = 
REMARK  12 active torsions:
REMARK  status: ('A' for Active; 'I' for Inactive)
REMARK    1  A    between atoms: C_1  and  C_2
REMARK    2  A    between atoms: C_2  and  O_3
REMARK    3  A    between atoms: O_3  and  C_4
REMARK    4  A    between atoms: C_4  and  C_6
REMARK    5  A    between atoms: C_9  and  C_10
REMARK    6  A    between atoms: C_10  and  N_11
REMARK    7  A    between atoms: C_16  and  O_17
REMARK    8  A    between atoms: C_18  and  O_19
REMARK    9  A    between atoms: O_19  and  C_20
REMARK   10  A    between atoms: C_24  and  C_25
REMARK   11  A    between atoms: C_25  and  S_26
REMARK   12  A    between atoms: S_26  and  C_28
REMARK                            x       y       z     vdW  Elec       q    Type
REMARK                         _______ _______ _______ _____ _____    ______ ____
ROOT
ATOM      1  C   UNL     1      -0.422  10.982  20.378  0.00  0.00    +0.000 A 
ATOM      2  C   UNL     1      -1.711  11.461  20.088  0.00  0.00    +0.000 A 
ATOM      3  C   UNL     1      -2.378  11.155  18.901  0.00  0.00    +0.000 A 
ATOM      4  C   UNL     1      -3.631  11.749  18.540  0.00  0.00    +0.000 A 
ATOM      5  C   UNL     1      -4.024  11.565  17.214  0.00  0.00    +0.000 A 
ATOM      6  C   UNL     1      -3.430  10.602  16.382  0.00  0.00    +0.000 A 
ATOM      7  C   UNL     1      -2.283   9.944  16.810  0.00  0.00    +0.000 A 
ATOM      8  C   UNL     1      -1.695  10.269  18.029  0.00  0.00    +0.000 A 
ATOM      9  N   UNL     1      -0.463   9.767  18.313  0.00  0.00    +0.000 NA
ATOM     10  C   UNL     1       0.184  10.126  19.465  0.00  0.00    +0.000 A 
ENDROOT
BRANCH   1  11
ATOM     11  C   UNL     1       0.209  11.425  21.632  0.00  0.00    +0.000 C 
ATOM     12  O   UNL     1      -0.025  10.952  22.738  0.00  0.00    +0.000 OA
BRANCH  11  13
ATOM     13  O   UNL     1       0.966  12.517  21.368  0.00  0.00    +0.000 OA
BRANCH  13  15
ATOM     14  C   UNL     1       1.581  14.775  21.770  0.00  0.00    +0.000 C 
ATOM     15  C   UNL     1       0.435  13.777  21.776  0.00  0.00    +0.000 C 
ENDBRANCH  13  15
ENDBRANCH  11  13
ENDBRANCH   1  11
BRANCH   5  16
ATOM     16  O   UNL     1      -4.943  12.393  16.624  0.00  0.00    +0.000 OA
ATOM     17  H   UNL     1      -5.424  12.867  17.317  0.00  0.00    +0.000 HD
ENDBRANCH   5  16
BRANCH   6  18
ATOM     18  O   UNL     1      -4.061  10.461  15.176  0.00  0.00    +0.000 OA
ATOM     19  C   UNL     1      -3.338  10.036  14.038  0.00  0.00    +0.000 C 
ENDBRANCH   6  18
BRANCH   4  20
ATOM     20  C   UNL     1      -4.423  12.652  19.484  0.00  0.00    +0.000 C 
BRANCH  20  21
ATOM     21  N   UNL     1      -5.382  12.082  20.424  0.00  0.00    +0.000 NA
ATOM     22  C   UNL     1      -6.639  11.552  19.923  0.00  0.00    +0.000 C 
ATOM     23  C   UNL     1      -7.681  12.533  20.428  0.00  0.00    +0.000 C 
ATOM     24  C   UNL     1      -7.124  13.020  21.756  0.00  0.00    +0.000 C 
ATOM     25  C   UNL     1      -5.634  12.702  21.713  0.00  0.00    +0.000 C 
ENDBRANCH  20  21
ENDBRANCH   4  20
BRANCH  10  26
ATOM     26  C   UNL     1       1.590   9.582  19.605  0.00  0.00    +0.000 C 
BRANCH  26  27
ATOM     27  S   UNL     1       1.754   8.171  20.762  0.00  0.00    +0.000 S 
ATOM     28  O   UNL     1       0.315   7.766  21.248  0.00  0.00    +0.000 OA
BRANCH  27  29
ATOM     29  C   UNL     1       2.276   6.928  19.548  0.00  0.00    +0.000 A 
ATOM     30  C   UNL     1       2.037   5.568  19.785  0.00  0.00    +0.000 A 
ATOM     31  C   UNL     1       2.587   4.603  18.938  0.00  0.00    +0.000 A 
ATOM     32  C   UNL     1       3.351   5.002  17.847  0.00  0.00    +0.000 A 
ATOM     33  F   UNL     1       3.947   4.075  17.084  0.00  0.00    +0.000 F 
ATOM     34  C   UNL     1       3.521   6.347  17.548  0.00  0.00    +0.000 A 
ATOM     35  C   UNL     1       2.968   7.314  18.392  0.00  0.00    +0.000 A 
ENDBRANCH  27  29
ENDBRANCH  26  27
ENDBRANCH  10  26
TORSDOF 10
ENDMDL
MODEL 7
REMARK VINA RESULT:      -6.8      2.117      4.469
REMARK  Name = 
REMARK  12 active torsions:
REMARK  status: ('A' for Active; 'I' for Inactive)
REMARK    1  A    between atoms: C_1  and  C_2
REMARK    2  A    between atoms: C_2  and  O_3
REMARK    3  A    between atoms: O_3  and  C_4
REMARK    4  A    between atoms: C_4  and  C_6
REMARK    5  A    between atoms: C_9  and  C_10
REMARK    6  A    between atoms: C_10  and  N_11
REMARK    7  A    between atoms: C_16  and  O_17
REMARK    8  A    between atoms: C_18  and  O_19
REMARK    9  A    between atoms: O_19  and  C_20
REMARK   10  A    between atoms: C_24  and  C_25
REMARK   11  A    between atoms: C_25  and  S_26
REMARK   12  A    between atoms: S_26  and  C_28
REMARK                            x       y       z     vdW  Elec       q    Type
REMARK                         _______ _______ _______ _____ _____    ______ ____
ROOT
ATOM      1  C   UNL     1       1.798   8.624  18.899  0.00  0.00    +0.000 A 
ATOM      2  C   UNL     1       2.246   7.414  18.343  0.00  0.00    +0.000 A 
ATOM      3  C   UNL     1       2.319   6.230  19.076  0.00  0.00    +0.000 A 
ATOM      4  C   UNL     1       2.903   5.029  18.555  0.00  0.00    +0.000 A 
ATOM      5  C   UNL     1       3.160   4.029  19.493  0.00  0.00    +0.000 A 
ATOM      6  C   UNL     1       2.595   4.042  20.779  0.00  0.00    +0.000 A 
ATOM      7  C   UNL     1       1.920   5.176  21.217  0.00  0.00    +0.000 A 
ATOM      8  C   UNL     1       1.847   6.310  20.412  0.00  0.00    +0.000 A 
ATOM      9  N   UNL     1       1.375   7.465  20.954  0.00  0.00    +0.000 NA
ATOM     10  C   UNL     1       1.362   8.620  20.220  0.00  0.00    +0.000 A 
ENDROOT
BRANCH   1  11
ATOM     11  C   UNL     1       1.826   9.824  18.048  0.00  0.00    +0.000 C 
ATOM     12  O   UNL     1       2.826  10.272  17.501  0.00  0.00    +0.000 OA
BRANCH  11  13
ATOM     13  O   UNL     1       0.605  10.411  18.095  0.00  0.00    +0.000 OA
BRANCH  13  15
ATOM     14  C   UNL     1      -1.725  10.537  17.656  0.00  0.00    +0.000 C 
ATOM     15  C   UNL     1      -0.479   9.679  17.525  0.00  0.00    +0.000 C 
ENDBRANCH  13  15
ENDBRANCH  11  13
ENDBRANCH   1  11
BRANCH   5  16
ATOM     16  O   UNL     1       4.066   3.033  19.239  0.00  0.00    +0.000 OA
ATOM     17  H   UNL     1       3.896   2.676  18.357  0.00  0.00    +0.000 HD
ENDBRANCH   5  16
BRANCH   6  18
ATOM     18  O   UNL     1       2.832   2.898  21.490  0.00  0.00    +0.000 OA
ATOM     19  C   UNL     1       1.754   2.127  21.983  0.00  0.00    +0.000 C 
ENDBRANCH   6  18
BRANCH   4  20
ATOM     20  C   UNL     1       3.357   4.891  17.103  0.00  0.00    +0.000 C 
BRANCH  20  21
ATOM     21  N   UNL     1       4.775   4.902  16.765  0.00  0.00    +0.000 NA
ATOM     22  C   UNL     1       5.328   6.045  16.059  0.00  0.00    +0.000 C 
ATOM     23  C   UNL     1       5.649   5.507  14.677  0.00  0.00    +0.000 C 
ATOM     24  C   UNL     1       6.025   4.054  14.919  0.00  0.00    +0.000 C 
ATOM     25  C   UNL     1       5.446   3.706  16.286  0.00  0.00    +0.000 C 
ENDBRANCH  20  21
ENDBRANCH   4  20
BRANCH  10  26
ATOM     26  C   UNL     1       0.914   9.853  20.978  0.00  0.00    +0.000 C 
BRANCH  26  27
ATOM     27  S   UNL     1      -0.244   9.525  22.359  0.00  0.00    +0.000 S 
ATOM     28  O   UNL     1       0.561   9.618  23.706  0.00  0.00    +0.000 OA
BRANCH  27  29
ATOM     29  C   UNL     1      -1.221  11.046  22.215  0.00  0.00    +0.000 A 
ATOM     30  C   UNL     1      -1.199  11.787  21.026  0.00  0.00    +0.000 A 
ATOM     31  C   UNL     1      -1.811  13.042  20.971  0.00  0.00    +0.000 A 
ATOM     32  C   UNL     1      -2.462  13.538  22.095  0.00  0.00    +0.000 A 
ATOM     33  F   UNL     1      -2.977  14.774  22.068  0.00  0.00    +0.000 F 
ATOM     34  C   UNL     1      -2.571  12.776  23.252  0.00  0.00    +0.000 A 
ATOM     35  C   UNL     1      -1.963  11.520  23.306  0.00  0.00    +0.000 A 
ENDBRANCH  27  29
ENDBRANCH  26  27
ENDBRANCH  10  26
TORSDOF 10
ENDMDL
MODEL 8
REMARK VINA RESULT:      -6.8      4.306      8.623
REMARK  Name = 
REMARK  12 active torsions:
REMARK  status: ('A' for Active; 'I' for Inactive)
REMARK    1  A    between atoms: C_1  and  C_2
REMARK    2  A    between atoms: C_2  and  O_3
REMARK    3  A    between atoms: O_3  and  C_4
REMARK    4  A    between atoms: C_4  and  C_6
REMARK    5  A    between atoms: C_9  and  C_10
REMARK    6  A    between atoms: C_10  and  N_11
REMARK    7  A    between atoms: C_16  and  O_17
REMARK    8  A    between atoms: C_18  and  O_19
REMARK    9  A    between atoms: O_19  and  C_20
REMARK   10  A    between atoms: C_24  and  C_25
REMARK   11  A    between atoms: C_25  and  S_26
REMARK   12  A    between atoms: S_26  and  C_28
REMARK                            x       y       z     vdW  Elec       q    Type
REMARK                         _______ _______ _______ _____ _____    ______ ____
ROOT
ATOM      1  C   UNL     1      -0.529  10.813  19.923  0.00  0.00    +0.000 A 
ATOM      2  C   UNL     1      -1.835  11.247  19.639  0.00  0.00    +0.000 A 
ATOM      3  C   UNL     1      -2.482  10.953  18.439  0.00  0.00    +0.000 A 
ATOM      4  C   UNL     1      -3.756  11.507  18.088  0.00  0.00    +0.000 A 
ATOM      5  C   UNL     1      -4.133  11.350  16.754  0.00  0.00    +0.000 A 
ATOM      6  C   UNL     1      -3.495  10.439  15.896  0.00  0.00    +0.000 A 
ATOM      7  C   UNL     1      -2.325   9.814  16.310  0.00  0.00    +0.000 A 
ATOM      8  C   UNL     1      -1.758  10.124  17.544  0.00  0.00    +0.000 A 
ATOM      9  N   UNL     1      -0.508   9.664  17.820  0.00  0.00    +0.000 NA
ATOM     10  C   UNL     1       0.117  10.012  18.988  0.00  0.00    +0.000 A 
ENDROOT
BRANCH   1  11
ATOM     11  C   UNL     1       0.076  11.240  21.195  0.00  0.00    +0.000 C 
ATOM     12  O   UNL     1       1.225  11.643  21.323  0.00  0.00    +0.000 OA
BRANCH  11  13
ATOM     13  O   UNL     1      -0.800  10.977  22.196  0.00  0.00    +0.000 OA
BRANCH  13  15
ATOM     14  C   UNL     1      -2.675  12.032  23.198  0.00  0.00    +0.000 C 
ATOM     15  C   UNL     1      -1.166  12.075  23.030  0.00  0.00    +0.000 C 
ENDBRANCH  13  15
ENDBRANCH  11  13
ENDBRANCH   1  11
BRANCH   5  16
ATOM     16  O   UNL     1      -5.082  12.157  16.185  0.00  0.00    +0.000 OA
ATOM     17  H   UNL     1      -5.749  11.601  15.759  0.00  0.00    +0.000 HD
ENDBRANCH   5  16
BRANCH   6  18
ATOM     18  O   UNL     1      -4.113  10.311  14.682  0.00  0.00    +0.000 OA
ATOM     19  C   UNL     1      -3.372   9.927  13.541  0.00  0.00    +0.000 C 
ENDBRANCH   6  18
BRANCH   4  20
ATOM     20  C   UNL     1      -4.590  12.345  19.055  0.00  0.00    +0.000 C 
BRANCH  20  21
ATOM     21  N   UNL     1      -6.032  12.150  19.152  0.00  0.00    +0.000 NA
ATOM     22  C   UNL     1      -6.802  12.980  20.063  0.00  0.00    +0.000 C 
ATOM     23  C   UNL     1      -7.233  12.026  21.160  0.00  0.00    +0.000 C 
ATOM     24  C   UNL     1      -7.402  10.692  20.451  0.00  0.00    +0.000 C 
ATOM     25  C   UNL     1      -6.615  10.819  19.151  0.00  0.00    +0.000 C 
ENDBRANCH  20  21
ENDBRANCH   4  20
BRANCH  10  26
ATOM     26  C   UNL     1       1.544   9.521  19.120  0.00  0.00    +0.000 C 
BRANCH  26  27
ATOM     27  S   UNL     1       2.107   8.427  17.762  0.00  0.00    +0.000 S 
ATOM     28  O   UNL     1       3.603   8.781  17.436  0.00  0.00    +0.000 OA
BRANCH  27  29
ATOM     29  C   UNL     1       2.117   6.874  18.699  0.00  0.00    +0.000 A 
ATOM     30  C   UNL     1       1.919   6.888  20.087  0.00  0.00    +0.000 A 
ATOM     31  C   UNL     1       2.096   5.718  20.830  0.00  0.00    +0.000 A 
ATOM     32  C   UNL     1       2.444   4.538  20.182  0.00  0.00    +0.000 A 
ATOM     33  F   UNL     1       2.694   3.438  20.904  0.00  0.00    +0.000 F 
ATOM     34  C   UNL     1       2.554   4.489  18.798  0.00  0.00    +0.000 A 
ATOM     35  C   UNL     1       2.374   5.657  18.053  0.00  0.00    +0.000 A 
ENDBRANCH  27  29
ENDBRANCH  26  27
ENDBRANCH  10  26
TORSDOF 10
ENDMDL
MODEL 9
REMARK VINA RESULT:      -6.7      2.245      4.472
REMARK  Name = 
REMARK  12 active torsions:
REMARK  status: ('A' for Active; 'I' for Inactive)
REMARK    1  A    between atoms: C_1  and  C_2
REMARK    2  A    between atoms: C_2  and  O_3
REMARK    3  A    between atoms: O_3  and  C_4
REMARK    4  A    between atoms: C_4  and  C_6
REMARK    5  A    between atoms: C_9  and  C_10
REMARK    6  A    between atoms: C_10  and  N_11
REMARK    7  A    between atoms: C_16  and  O_17
REMARK    8  A    between atoms: C_18  and  O_19
REMARK    9  A    between atoms: O_19  and  C_20
REMARK   10  A    between atoms: C_24  and  C_25
REMARK   11  A    between atoms: C_25  and  S_26
REMARK   12  A    between atoms: S_26  and  C_28
REMARK                            x       y       z     vdW  Elec       q    Type
REMARK                         _______ _______ _______ _____ _____    ______ ____
ROOT
ATOM      1  C   UNL     1       1.625   9.186  19.062  0.00  0.00    +0.000 A 
ATOM      2  C   UNL     1       2.129   8.018  18.465  0.00  0.00    +0.000 A 
ATOM      3  C   UNL     1       2.222   6.804  19.147  0.00  0.00    +0.000 A 
ATOM      4  C   UNL     1       2.861   5.649  18.590  0.00  0.00    +0.000 A 
ATOM      5  C   UNL     1       3.125   4.616  19.490  0.00  0.00    +0.000 A 
ATOM      6  C   UNL     1       2.524   4.552  20.758  0.00  0.00    +0.000 A 
ATOM      7  C   UNL     1       1.799   5.642  21.225  0.00  0.00    +0.000 A 
ATOM      8  C   UNL     1       1.710   6.808  20.470  0.00  0.00    +0.000 A 
ATOM      9  N   UNL     1       1.184   7.921  21.049  0.00  0.00    +0.000 NA
ATOM     10  C   UNL     1       1.152   9.108  20.367  0.00  0.00    +0.000 A 
ENDROOT
BRANCH   1  11
ATOM     11  C   UNL     1       1.636  10.424  18.265  0.00  0.00    +0.000 C 
ATOM     12  O   UNL     1       2.642  10.961  17.820  0.00  0.00    +0.000 OA
BRANCH  11  13
ATOM     13  O   UNL     1       0.377  10.927  18.238  0.00  0.00    +0.000 OA
BRANCH  13  15
ATOM     14  C   UNL     1      -1.955  10.485  18.301  0.00  0.00    +0.000 C 
ATOM     15  C   UNL     1      -0.631  10.094  17.666  0.00  0.00    +0.000 C 
ENDBRANCH  13  15
ENDBRANCH  11  13
ENDBRANCH   1  11
BRANCH   5  16
ATOM     16  O   UNL     1       4.072   3.663  19.219  0.00  0.00    +0.000 OA
ATOM     17  H   UNL     1       4.600   3.515  20.015  0.00  0.00    +0.000 HD
ENDBRANCH   5  16
BRANCH   6  18
ATOM     18  O   UNL     1       2.779   3.385  21.424  0.00  0.00    +0.000 OA
ATOM     19  C   UNL     1       1.738   2.463  21.675  0.00  0.00    +0.000 C 
ENDBRANCH   6  18
BRANCH   4  20
ATOM     20  C   UNL     1       3.360   5.592  17.148  0.00  0.00    +0.000 C 
BRANCH  20  21
ATOM     21  N   UNL     1       4.731   5.968  16.822  0.00  0.00    +0.000 NA
ATOM     22  C   UNL     1       5.431   5.258  15.765  0.00  0.00    +0.000 C 
ATOM     23  C   UNL     1       6.492   4.456  16.496  0.00  0.00    +0.000 C 
ATOM     24  C   UNL     1       6.856   5.321  17.692  0.00  0.00    +0.000 C 
ATOM     25  C   UNL     1       5.692   6.291  17.863  0.00  0.00    +0.000 C 
ENDBRANCH  20  21
ENDBRANCH   4  20
BRANCH  10  26
ATOM     26  C   UNL     1       0.641  10.290  21.165  0.00  0.00    +0.000 C 
BRANCH  26  27
ATOM     27  S   UNL     1      -0.456   9.851  22.566  0.00  0.00    +0.000 S 
ATOM     28  O   UNL     1       0.442   9.602  23.832  0.00  0.00    +0.000 OA
BRANCH  27  29
ATOM     29  C   UNL     1      -1.233  11.477  22.775  0.00  0.00    +0.000 A 
ATOM     30  C   UNL     1      -0.559  12.637  22.370  0.00  0.00    +0.000 A 
ATOM     31  C   UNL     1      -1.080  13.894  22.685  0.00  0.00    +0.000 A 
ATOM     32  C   UNL     1      -2.281  13.986  23.379  0.00  0.00    +0.000 A 
ATOM     33  F   UNL     1      -2.737  15.190  23.752  0.00  0.00    +0.000 F 
ATOM     34  C   UNL     1      -3.006  12.848  23.706  0.00  0.00    +0.000 A 
ATOM     35  C   UNL     1      -2.488  11.589  23.389  0.00  0.00    +0.000 A 
ENDBRANCH  27  29
ENDBRANCH  26  27
ENDBRANCH  10  26
TORSDOF 10
ENDMDL
