MODEL 1
REMARK VINA RESULT:      -6.4      0.000      0.000
REMARK  Name = 
REMARK  7 active torsions:
REMARK  status: ('A' for Active; 'I' for Inactive)
REMARK    1  A    between atoms: C_1  and  C_2
REMARK    2  A    between atoms: C_5  and  C_6
REMARK    3  A    between atoms: N_10  and  C_11
REMARK    4  A    between atoms: C_11  and  C_12
REMARK    5  A    between atoms: C_12  and  N_13
REMARK    6  A    between atoms: C_14  and  C_16
REMARK    7  A    between atoms: C_16  and  N_17
REMARK                            x       y       z     vdW  Elec       q    Type
REMARK                         _______ _______ _______ _____ _____    ______ ____
ROOT
ATOM      1  C   UNL     1       2.713   7.254  18.257  0.00  0.00    +0.000 C 
ENDROOT
BRANCH   1   2
ATOM      2  N   UNL     1       1.982   8.034  19.251  0.00  0.00    +0.000 N 
ATOM      3  C   UNL     1       1.196   9.112  18.909  0.00  0.00    +0.000 C 
ATOM      4  O   UNL     1       1.174   9.612  17.784  0.00  0.00    +0.000 OA
ATOM      5  H   UNL     1       1.733   7.561  20.115  0.00  0.00    +0.000 HD
BRANCH   3   6
ATOM      6  C   UNL     1       0.330   9.684  20.024  0.00  0.00    +0.000 C 
BRANCH   6   7
ATOM      7  N   UNL     1       1.160  10.300  21.084  0.00  0.00    +0.000 NA
ATOM      8  C   UNL     1       1.103   9.560  22.373  0.00  0.00    +0.000 C 
ATOM      9  C   UNL     1      -0.268   9.621  23.066  0.00  0.00    +0.000 C 
ATOM     10  O   UNL     1      -0.649  10.982  23.313  0.00  0.00    +0.000 OA
ATOM     11  C   UNL     1      -0.668  11.741  22.098  0.00  0.00    +0.000 C 
ATOM     12  C   UNL     1       0.684  11.677  21.357  0.00  0.00    +0.000 C 
ENDBRANCH   6   7
ENDBRANCH   3   6
ENDBRANCH   1   2
BRANCH   1  13
ATOM     13  C   UNL     1       3.838   6.389  18.828  0.00  0.00    +0.000 C 
BRANCH  13  19
ATOM     14  C   UNL     1       5.156   5.387  16.230  0.00  0.00    +0.000 C 
ATOM     15  C   UNL     1       4.342   4.573  17.160  0.00  0.00    +0.000 A 
ATOM     16  C   UNL     1       3.895   3.275  17.061  0.00  0.00    +0.000 A 
ATOM     17  N   UNL     1       3.163   2.920  18.159  0.00  0.00    +0.000 NA
ATOM     18  C   UNL     1       3.140   3.980  18.938  0.00  0.00    +0.000 A 
ATOM     19  N   UNL     1       3.828   5.020  18.354  0.00  0.00    +0.000 N 
BRANCH  18  20
ATOM     20  C   UNL     1       2.436   4.004  20.297  0.00  0.00    +0.000 C 
ATOM     21  C   UNL     1       0.995   3.404  20.273  0.00  0.00    +0.000 C 
ATOM     22  C   UNL     1       1.318   2.714  21.608  0.00  0.00    +0.000 C 
ATOM     23  C   UNL     1       2.799   2.794  21.207  0.00  0.00    +0.000 C 
ENDBRANCH  18  20
ENDBRANCH  13  19
ENDBRANCH   1  13
TORSDOF 6
ENDMDL
MODEL 2
REMARK VINA RESULT:      -6.4      1.526      1.978
REMARK  Name = 
REMARK  7 active torsions:
REMARK  status: ('A' for Active; 'I' for Inactive)
REMARK    1  A    between atoms: C_1  and  C_2
REMARK    2  A    between atoms: C_5  and  C_6
REMARK    3  A    between atoms: N_10  and  C_11
REMARK    4  A    between atoms: C_11  and  C_12
REMARK    5  A    between atoms: C_12  and  N_13
REMARK    6  A    between atoms: C_14  and  C_16
REMARK    7  A    between atoms: C_16  and  N_17
REMARK                            x       y       z     vdW  Elec       q    Type
REMARK                         _______ _______ _______ _____ _____    ______ ____
ROOT
ATOM      1  C   UNL     1       2.251   7.057  18.376  0.00  0.00    +0.000 C 
ENDROOT
BRANCH   1   2
ATOM      2  N   UNL     1       1.834   8.260  19.090  0.00  0.00    +0.000 N 
ATOM      3  C   UNL     1       1.700   9.479  18.464  0.00  0.00    +0.000 C 
ATOM      4  O   UNL     1       2.074   9.701  17.312  0.00  0.00    +0.000 OA
ATOM      5  H   UNL     1       1.273   8.127  19.927  0.00  0.00    +0.000 HD
BRANCH   3   6
ATOM      6  C   UNL     1       1.052  10.583  19.290  0.00  0.00    +0.000 C 
BRANCH   6   7
ATOM      7  N   UNL     1      -0.331  10.221  19.675  0.00  0.00    +0.000 NA
ATOM      8  C   UNL     1      -1.317  10.444  18.583  0.00  0.00    +0.000 C 
ATOM      9  C   UNL     1      -1.537  11.925  18.236  0.00  0.00    +0.000 C 
ATOM     10  O   UNL     1      -1.973  12.655  19.391  0.00  0.00    +0.000 OA
ATOM     11  C   UNL     1      -1.037  12.527  20.467  0.00  0.00    +0.000 C 
ATOM     12  C   UNL     1      -0.767  11.051  20.823  0.00  0.00    +0.000 C 
ENDBRANCH   6   7
ENDBRANCH   3   6
ENDBRANCH   1   2
BRANCH   1  13
ATOM     13  C   UNL     1       3.609   6.500  18.804  0.00  0.00    +0.000 C 
BRANCH  13  19
ATOM     14  C   UNL     1       5.089   5.584  16.262  0.00  0.00    +0.000 C 
ATOM     15  C   UNL     1       4.421   4.700  17.244  0.00  0.00    +0.000 A 
ATOM     16  C   UNL     1       4.201   3.341  17.224  0.00  0.00    +0.000 A 
ATOM     17  N   UNL     1       3.535   2.934  18.346  0.00  0.00    +0.000 NA
ATOM     18  C   UNL     1       3.329   4.019  19.061  0.00  0.00    +0.000 A 
ATOM     19  N   UNL     1       3.834   5.124  18.412  0.00  0.00    +0.000 N 
BRANCH  18  20
ATOM     20  C   UNL     1       2.626   4.004  20.420  0.00  0.00    +0.000 C 
ATOM     21  C   UNL     1       1.115   3.620  20.346  0.00  0.00    +0.000 C 
ATOM     22  C   UNL     1       1.327   2.759  21.602  0.00  0.00    +0.000 C 
ATOM     23  C   UNL     1       2.807   2.669  21.200  0.00  0.00    +0.000 C 
ENDBRANCH  18  20
ENDBRANCH  13  19
ENDBRANCH   1  13
TORSDOF 6
ENDMDL
MODEL 3
REMARK VINA RESULT:      -6.4      1.053      3.261
REMARK  Name = 
REMARK  7 active torsions:
REMARK  status: ('A' for Active; 'I' for Inactive)
REMARK    1  A    between atoms: C_1  and  C_2
REMARK    2  A    between atoms: C_5  and  C_6
REMARK    3  A    between atoms: N_10  and  C_11
REMARK    4  A    between atoms: C_11  and  C_12
REMARK    5  A    between atoms: C_12  and  N_13
REMARK    6  A    between atoms: C_14  and  C_16
REMARK    7  A    between atoms: C_16  and  N_17
REMARK                            x       y       z     vdW  Elec       q    Type
REMARK                         _______ _______ _______ _____ _____    ______ ____
ROOT
ATOM      1  C   UNL     1       2.960   7.182  18.332  0.00  0.00    +0.000 C 
ENDROOT
BRANCH   1   2
ATOM      2  N   UNL     1       2.084   7.918  19.238  0.00  0.00    +0.000 N 
ATOM      3  C   UNL     1       1.492   9.110  18.883  0.00  0.00    +0.000 C 
ATOM      4  O   UNL     1       1.774   9.736  17.860  0.00  0.00    +0.000 OA
ATOM      5  H   UNL     1       1.602   7.380  19.952  0.00  0.00    +0.000 HD
BRANCH   3   6
ATOM      6  C   UNL     1       0.439   9.643  19.847  0.00  0.00    +0.000 C 
BRANCH   6   7
ATOM      7  N   UNL     1       1.067  10.310  21.009  0.00  0.00    +0.000 NA
ATOM      8  C   UNL     1       1.005   9.496  22.253  0.00  0.00    +0.000 C 
ATOM      9  C   UNL     1      -0.416   9.316  22.809  0.00  0.00    +0.000 C 
ATOM     10  O   UNL     1      -1.019  10.590  23.077  0.00  0.00    +0.000 OA
ATOM     11  C   UNL     1      -1.041  11.409  21.902  0.00  0.00    +0.000 C 
ATOM     12  C   UNL     1       0.367  11.585  21.296  0.00  0.00    +0.000 C 
ENDBRANCH   6   7
ENDBRANCH   3   6
ENDBRANCH   1   2
BRANCH   1  13
ATOM     13  C   UNL     1       2.472   5.776  17.977  0.00  0.00    +0.000 C 
BRANCH  13  19
ATOM     14  C   UNL     1       1.549   3.921  20.257  0.00  0.00    +0.000 C 
ATOM     15  C   UNL     1       2.892   3.929  19.634  0.00  0.00    +0.000 A 
ATOM     16  C   UNL     1       4.037   3.238  19.960  0.00  0.00    +0.000 A 
ATOM     17  N   UNL     1       5.061   3.554  19.113  0.00  0.00    +0.000 NA
ATOM     18  C   UNL     1       4.575   4.437  18.267  0.00  0.00    +0.000 A 
ATOM     19  N   UNL     1       3.259   4.712  18.565  0.00  0.00    +0.000 N 
BRANCH  18  20
ATOM     20  C   UNL     1       5.395   5.041  17.125  0.00  0.00    +0.000 C 
ATOM     21  C   UNL     1       6.901   4.632  17.144  0.00  0.00    +0.000 C 
ATOM     22  C   UNL     1       6.819   4.461  15.618  0.00  0.00    +0.000 C 
ATOM     23  C   UNL     1       5.311   4.228  15.800  0.00  0.00    +0.000 C 
ENDBRANCH  18  20
ENDBRANCH  13  19
ENDBRANCH   1  13
TORSDOF 6
ENDMDL
MODEL 4
REMARK VINA RESULT:      -6.3      2.048      3.809
REMARK  Name = 
REMARK  7 active torsions:
REMARK  status: ('A' for Active; 'I' for Inactive)
REMARK    1  A    between atoms: C_1  and  C_2
REMARK    2  A    between atoms: C_5  and  C_6
REMARK    3  A    between atoms: N_10  and  C_11
REMARK    4  A    between atoms: C_11  and  C_12
REMARK    5  A    between atoms: C_12  and  N_13
REMARK    6  A    between atoms: C_14  and  C_16
REMARK    7  A    between atoms: C_16  and  N_17
REMARK                            x       y       z     vdW  Elec       q    Type
REMARK                         _______ _______ _______ _____ _____    ______ ____
ROOT
ATOM      1  C   UNL     1       2.790   7.054  19.289  0.00  0.00    +0.000 C 
ENDROOT
BRANCH   1   2
ATOM      2  N   UNL     1       1.757   8.085  19.261  0.00  0.00    +0.000 N 
ATOM      3  C   UNL     1       1.627   8.969  18.212  0.00  0.00    +0.000 C 
ATOM      4  O   UNL     1       2.453   9.080  17.305  0.00  0.00    +0.000 OA
ATOM      5  H   UNL     1       0.913   7.906  19.796  0.00  0.00    +0.000 HD
BRANCH   3   6
ATOM      6  C   UNL     1       0.375   9.837  18.226  0.00  0.00    +0.000 C 
BRANCH   6   7
ATOM      7  N   UNL     1       0.249  10.573  19.504  0.00  0.00    +0.000 NA
ATOM      8  C   UNL     1      -1.101  11.165  19.706  0.00  0.00    +0.000 C 
ATOM      9  C   UNL     1      -1.433  12.305  18.731  0.00  0.00    +0.000 C 
ATOM     10  O   UNL     1      -0.463  13.357  18.833  0.00  0.00    +0.000 OA
ATOM     11  C   UNL     1       0.861  12.864  18.594  0.00  0.00    +0.000 C 
ATOM     12  C   UNL     1       1.219  11.695  19.536  0.00  0.00    +0.000 C 
ENDBRANCH   6   7
ENDBRANCH   3   6
ENDBRANCH   1   2
BRANCH   1  13
ATOM     13  C   UNL     1       2.461   5.801  18.477  0.00  0.00    +0.000 C 
BRANCH  13  19
ATOM     14  C   UNL     1       1.300   3.693  20.400  0.00  0.00    +0.000 C 
ATOM     15  C   UNL     1       2.673   3.700  19.847  0.00  0.00    +0.000 A 
ATOM     16  C   UNL     1       3.753   2.890  20.114  0.00  0.00    +0.000 A 
ATOM     17  N   UNL     1       4.840   3.257  19.372  0.00  0.00    +0.000 NA
ATOM     18  C   UNL     1       4.456   4.288  18.651  0.00  0.00    +0.000 A 
ATOM     19  N   UNL     1       3.146   4.607  18.928  0.00  0.00    +0.000 N 
BRANCH  18  20
ATOM     20  C   UNL     1       5.374   4.999  17.653  0.00  0.00    +0.000 C 
ATOM     21  C   UNL     1       6.882   4.622  17.803  0.00  0.00    +0.000 C 
ATOM     22  C   UNL     1       6.966   4.571  16.268  0.00  0.00    +0.000 C 
ATOM     23  C   UNL     1       5.455   4.292  16.269  0.00  0.00    +0.000 C 
ENDBRANCH  18  20
ENDBRANCH  13  19
ENDBRANCH   1  13
TORSDOF 6
ENDMDL
MODEL 5
REMARK VINA RESULT:      -6.2      1.393      1.638
REMARK  Name = 
REMARK  7 active torsions:
REMARK  status: ('A' for Active; 'I' for Inactive)
REMARK    1  A    between atoms: C_1  and  C_2
REMARK    2  A    between atoms: C_5  and  C_6
REMARK    3  A    between atoms: N_10  and  C_11
REMARK    4  A    between atoms: C_11  and  C_12
REMARK    5  A    between atoms: C_12  and  N_13
REMARK    6  A    between atoms: C_14  and  C_16
REMARK    7  A    between atoms: C_16  and  N_17
REMARK                            x       y       z     vdW  Elec       q    Type
REMARK                         _______ _______ _______ _____ _____    ______ ____
ROOT
ATOM      1  C   UNL     1       2.642   7.443  19.042  0.00  0.00    +0.000 C 
ENDROOT
BRANCH   1   2
ATOM      2  N   UNL     1       1.593   8.436  19.257  0.00  0.00    +0.000 N 
ATOM      3  C   UNL     1       1.359   9.464  18.371  0.00  0.00    +0.000 C 
ATOM      4  O   UNL     1       2.103   9.737  17.428  0.00  0.00    +0.000 OA
ATOM      5  H   UNL     1       0.800   8.152  19.825  0.00  0.00    +0.000 HD
BRANCH   3   6
ATOM      6  C   UNL     1       0.099  10.283  18.620  0.00  0.00    +0.000 C 
BRANCH   6   7
ATOM      7  N   UNL     1       0.431  11.646  19.092  0.00  0.00    +0.000 NA
ATOM      8  C   UNL     1       0.741  11.701  20.547  0.00  0.00    +0.000 C 
ATOM      9  C   UNL     1      -0.469  11.413  21.452  0.00  0.00    +0.000 C 
ATOM     10  O   UNL     1      -1.531  12.339  21.184  0.00  0.00    +0.000 OA
ATOM     11  C   UNL     1      -1.917  12.299  19.805  0.00  0.00    +0.000 C 
ATOM     12  C   UNL     1      -0.721  12.551  18.864  0.00  0.00    +0.000 C 
ENDBRANCH   6   7
ENDBRANCH   3   6
ENDBRANCH   1   2
BRANCH   1  13
ATOM     13  C   UNL     1       2.342   6.429  17.937  0.00  0.00    +0.000 C 
BRANCH  13  19
ATOM     14  C   UNL     1       4.971   6.118  16.362  0.00  0.00    +0.000 C 
ATOM     15  C   UNL     1       4.333   5.077  17.200  0.00  0.00    +0.000 A 
ATOM     16  C   UNL     1       4.660   3.755  17.393  0.00  0.00    +0.000 A 
ATOM     17  N   UNL     1       3.789   3.152  18.256  0.00  0.00    +0.000 NA
ATOM     18  C   UNL     1       2.919   4.077  18.599  0.00  0.00    +0.000 A 
ATOM     19  N   UNL     1       3.200   5.263  17.957  0.00  0.00    +0.000 N 
BRANCH  18  20
ATOM     20  C   UNL     1       1.772   3.824  19.582  0.00  0.00    +0.000 C 
ATOM     21  C   UNL     1       1.615   2.328  19.996  0.00  0.00    +0.000 C 
ATOM     22  C   UNL     1       1.372   2.808  21.437  0.00  0.00    +0.000 C 
ATOM     23  C   UNL     1       2.160   4.074  21.068  0.00  0.00    +0.000 C 
ENDBRANCH  18  20
ENDBRANCH  13  19
ENDBRANCH   1  13
TORSDOF 6
ENDMDL
MODEL 6
REMARK VINA RESULT:      -6.2      2.061      3.808
REMARK  Name = 
REMARK  7 active torsions:
REMARK  status: ('A' for Active; 'I' for Inactive)
REMARK    1  A    between atoms: C_1  and  C_2
REMARK    2  A    between atoms: C_5  and  C_6
REMARK    3  A    between atoms: N_10  and  C_11
REMARK    4  A    between atoms: C_11  and  C_12
REMARK    5  A    between atoms: C_12  and  N_13
REMARK    6  A    between atoms: C_14  and  C_16
REMARK    7  A    between atoms: C_16  and  N_17
REMARK                            x       y       z     vdW  Elec       q    Type
REMARK                         _______ _______ _______ _____ _____    ______ ____
ROOT
ATOM      1  C   UNL     1       2.360   6.873  18.843  0.00  0.00    +0.000 C 
ENDROOT
BRANCH   1   2
ATOM      2  N   UNL     1       1.825   8.183  19.205  0.00  0.00    +0.000 N 
ATOM      3  C   UNL     1       1.763   9.227  18.308  0.00  0.00    +0.000 C 
ATOM      4  O   UNL     1       2.296   9.207  17.198  0.00  0.00    +0.000 OA
ATOM      5  H   UNL     1       1.151   8.211  19.964  0.00  0.00    +0.000 HD
BRANCH   3   6
ATOM      6  C   UNL     1       0.984  10.453  18.768  0.00  0.00    +0.000 C 
BRANCH   6   7
ATOM      7  N   UNL     1      -0.350  10.075  19.285  0.00  0.00    +0.000 NA
ATOM      8  C   UNL     1      -1.448  10.337  18.315  0.00  0.00    +0.000 C 
ATOM      9  C   UNL     1      -1.699  11.830  18.048  0.00  0.00    +0.000 C 
ATOM     10  O   UNL     1      -2.007  12.517  19.269  0.00  0.00    +0.000 OA
ATOM     11  C   UNL     1      -0.961  12.350  20.233  0.00  0.00    +0.000 C 
ATOM     12  C   UNL     1      -0.658  10.861  20.504  0.00  0.00    +0.000 C 
ENDBRANCH   6   7
ENDBRANCH   3   6
ENDBRANCH   1   2
BRANCH   1  13
ATOM     13  C   UNL     1       3.030   6.120  19.993  0.00  0.00    +0.000 C 
BRANCH  13  19
ATOM     14  C   UNL     1       1.538   3.438  20.266  0.00  0.00    +0.000 C 
ATOM     15  C   UNL     1       2.935   3.611  19.811  0.00  0.00    +0.000 A 
ATOM     16  C   UNL     1       3.906   2.680  19.518  0.00  0.00    +0.000 A 
ATOM     17  N   UNL     1       5.069   3.285  19.134  0.00  0.00    +0.000 NA
ATOM     18  C   UNL     1       4.842   4.580  19.189  0.00  0.00    +0.000 A 
ATOM     19  N   UNL     1       3.557   4.823  19.621  0.00  0.00    +0.000 N 
BRANCH  18  20
ATOM     20  C   UNL     1       5.889   5.630  18.811  0.00  0.00    +0.000 C 
ATOM     21  C   UNL     1       7.218   5.026  18.258  0.00  0.00    +0.000 C 
ATOM     22  C   UNL     1       7.219   6.140  17.197  0.00  0.00    +0.000 C 
ATOM     23  C   UNL     1       5.696   6.215  17.382  0.00  0.00    +0.000 C 
ENDBRANCH  18  20
ENDBRANCH  13  19
ENDBRANCH   1  13
TORSDOF 6
ENDMDL
MODEL 7
REMARK VINA RESULT:      -6.2      2.402      7.305
REMARK  Name = 
REMARK  7 active torsions:
REMARK  status: ('A' for Active; 'I' for Inactive)
REMARK    1  A    between atoms: C_1  and  C_2
REMARK    2  A    between atoms: C_5  and  C_6
REMARK    3  A    between atoms: N_10  and  C_11
REMARK    4  A    between atoms: C_11  and  C_12
REMARK    5  A    between atoms: C_12  and  N_13
REMARK    6  A    between atoms: C_14  and  C_16
REMARK    7  A    between atoms: C_16  and  N_17
REMARK                            x       y       z     vdW  Elec       q    Type
REMARK                         _______ _______ _______ _____ _____    ______ ____
ROOT
ATOM      1  C   UNL     1       2.063   9.558  18.090  0.00  0.00    +0.000 C 
ENDROOT
BRANCH   1   2
ATOM      2  N   UNL     1       1.954   8.218  18.660  0.00  0.00    +0.000 N 
ATOM      3  C   UNL     1       2.852   7.217  18.363  0.00  0.00    +0.000 C 
ATOM      4  O   UNL     1       3.707   7.304  17.480  0.00  0.00    +0.000 OA
ATOM      5  H   UNL     1       1.478   8.135  19.553  0.00  0.00    +0.000 HD
BRANCH   3   6
ATOM      6  C   UNL     1       2.734   5.949  19.199  0.00  0.00    +0.000 C 
BRANCH   6   7
ATOM      7  N   UNL     1       3.253   4.773  18.464  0.00  0.00    +0.000 NA
ATOM      8  C   UNL     1       2.184   3.991  17.786  0.00  0.00    +0.000 C 
ATOM      9  C   UNL     1       1.228   3.275  18.755  0.00  0.00    +0.000 C 
ATOM     10  O   UNL     1       1.953   2.389  19.618  0.00  0.00    +0.000 OA
ATOM     11  C   UNL     1       2.968   3.092  20.345  0.00  0.00    +0.000 C 
ATOM     12  C   UNL     1       3.929   3.850  19.406  0.00  0.00    +0.000 C 
ENDBRANCH   6   7
ENDBRANCH   3   6
ENDBRANCH   1   2
BRANCH   1  13
ATOM     13  C   UNL     1       0.871  10.472  18.380  0.00  0.00    +0.000 C 
BRANCH  13  19
ATOM     14  C   UNL     1       2.366  13.117  17.878  0.00  0.00    +0.000 C 
ATOM     15  C   UNL     1       1.870  12.636  19.187  0.00  0.00    +0.000 A 
ATOM     16  C   UNL     1       2.032  13.151  20.453  0.00  0.00    +0.000 A 
ATOM     17  N   UNL     1       1.400  12.377  21.385  0.00  0.00    +0.000 NA
ATOM     18  C   UNL     1       0.853  11.382  20.719  0.00  0.00    +0.000 A 
ATOM     19  N   UNL     1       1.136  11.489  19.376  0.00  0.00    +0.000 N 
BRANCH  18  20
ATOM     20  C   UNL     1       0.022  10.284  21.390  0.00  0.00    +0.000 C 
ATOM     21  C   UNL     1       0.863   9.301  22.263  0.00  0.00    +0.000 C 
ATOM     22  C   UNL     1      -0.259   9.359  23.313  0.00  0.00    +0.000 C 
ATOM     23  C   UNL     1      -0.632  10.730  22.730  0.00  0.00    +0.000 C 
ENDBRANCH  18  20
ENDBRANCH  13  19
ENDBRANCH   1  13
TORSDOF 6
ENDMDL
MODEL 8
REMARK VINA RESULT:      -6.1      2.041      3.829
REMARK  Name = 
REMARK  7 active torsions:
REMARK  status: ('A' for Active; 'I' for Inactive)
REMARK    1  A    between atoms: C_1  and  C_2
REMARK    2  A    between atoms: C_5  and  C_6
REMARK    3  A    between atoms: N_10  and  C_11
REMARK    4  A    between atoms: C_11  and  C_12
REMARK    5  A    between atoms: C_12  and  N_13
REMARK    6  A    between atoms: C_14  and  C_16
REMARK    7  A    between atoms: C_16  and  N_17
REMARK                            x       y       z     vdW  Elec       q    Type
REMARK                         _______ _______ _______ _____ _____    ______ ____
ROOT
ATOM      1  C   UNL     1       2.587   6.761  19.683  0.00  0.00    +0.000 C 
ENDROOT
BRANCH   1   2
ATOM      2  N   UNL     1       1.888   7.985  19.303  0.00  0.00    +0.000 N 
ATOM      3  C   UNL     1       1.285   8.807  20.230  0.00  0.00    +0.000 C 
ATOM      4  O   UNL     1       1.135   8.506  21.415  0.00  0.00    +0.000 OA
ATOM      5  H   UNL     1       2.178   8.432  18.438  0.00  0.00    +0.000 HD
BRANCH   3   6
ATOM      6  C   UNL     1       0.790  10.149  19.706  0.00  0.00    +0.000 C 
BRANCH   6   7
ATOM      7  N   UNL     1      -0.656  10.324  19.968  0.00  0.00    +0.000 NA
ATOM      8  C   UNL     1      -1.417  10.766  18.768  0.00  0.00    +0.000 C 
ATOM      9  C   UNL     1      -1.075  12.191  18.304  0.00  0.00    +0.000 C 
ATOM     10  O   UNL     1      -1.312  13.135  19.357  0.00  0.00    +0.000 OA
ATOM     11  C   UNL     1      -0.564  12.798  20.532  0.00  0.00    +0.000 C 
ATOM     12  C   UNL     1      -0.857  11.360  21.009  0.00  0.00    +0.000 C 
ENDBRANCH   6   7
ENDBRANCH   3   6
ENDBRANCH   1   2
BRANCH   1  13
ATOM     13  C   UNL     1       2.444   5.611  18.684  0.00  0.00    +0.000 C 
BRANCH  13  19
ATOM     14  C   UNL     1       1.356   3.387  20.518  0.00  0.00    +0.000 C 
ATOM     15  C   UNL     1       2.717   3.448  19.941  0.00  0.00    +0.000 A 
ATOM     16  C   UNL     1       3.816   2.644  20.147  0.00  0.00    +0.000 A 
ATOM     17  N   UNL     1       4.882   3.068  19.405  0.00  0.00    +0.000 NA
ATOM     18  C   UNL     1       4.468   4.128  18.744  0.00  0.00    +0.000 A 
ATOM     19  N   UNL     1       3.157   4.409  19.062  0.00  0.00    +0.000 N 
BRANCH  18  20
ATOM     20  C   UNL     1       5.355   4.905  17.768  0.00  0.00    +0.000 C 
ATOM     21  C   UNL     1       6.883   4.677  17.985  0.00  0.00    +0.000 C 
ATOM     22  C   UNL     1       7.035   4.605  16.457  0.00  0.00    +0.000 C 
ATOM     23  C   UNL     1       5.559   4.183  16.404  0.00  0.00    +0.000 C 
ENDBRANCH  18  20
ENDBRANCH  13  19
ENDBRANCH   1  13
TORSDOF 6
ENDMDL
MODEL 9
REMARK VINA RESULT:      -6.1      1.940      3.668
REMARK  Name = 
REMARK  7 active torsions:
REMARK  status: ('A' for Active; 'I' for Inactive)
REMARK    1  A    between atoms: C_1  and  C_2
REMARK    2  A    between atoms: C_5  and  C_6
REMARK    3  A    between atoms: N_10  and  C_11
REMARK    4  A    between atoms: C_11  and  C_12
REMARK    5  A    between atoms: C_12  and  N_13
REMARK    6  A    between atoms: C_14  and  C_16
REMARK    7  A    between atoms: C_16  and  N_17
REMARK                            x       y       z     vdW  Elec       q    Type
REMARK                         _______ _______ _______ _____ _____    ______ ____
ROOT
ATOM      1  C   UNL     1       2.915   5.999  19.470  0.00  0.00    +0.000 C 
ENDROOT
BRANCH   1   2
ATOM      2  N   UNL     1       2.208   7.180  19.958  0.00  0.00    +0.000 N 
ATOM      3  C   UNL     1       2.007   8.295  19.174  0.00  0.00    +0.000 C 
ATOM      4  O   UNL     1       2.539   8.463  18.076  0.00  0.00    +0.000 OA
ATOM      5  H   UNL     1       1.536   7.038  20.707  0.00  0.00    +0.000 HD
BRANCH   3   6
ATOM      6  C   UNL     1       1.070   9.350  19.747  0.00  0.00    +0.000 C 
BRANCH   6   7
ATOM      7  N   UNL     1       0.725  10.368  18.729  0.00  0.00    +0.000 NA
ATOM      8  C   UNL     1       1.410  11.670  18.950  0.00  0.00    +0.000 C 
ATOM      9  C   UNL     1       0.941  12.414  20.211  0.00  0.00    +0.000 C 
ATOM     10  O   UNL     1      -0.472  12.653  20.161  0.00  0.00    +0.000 OA
ATOM     11  C   UNL     1      -1.198  11.429  20.003  0.00  0.00    +0.000 C 
ATOM     12  C   UNL     1      -0.732  10.638  18.763  0.00  0.00    +0.000 C 
ENDBRANCH   6   7
ENDBRANCH   3   6
ENDBRANCH   1   2
BRANCH   1  13
ATOM     13  C   UNL     1       2.238   5.293  18.295  0.00  0.00    +0.000 C 
BRANCH  13  19
ATOM     14  C   UNL     1       0.780   2.747  19.234  0.00  0.00    +0.000 C 
ATOM     15  C   UNL     1       2.097   2.794  18.560  0.00  0.00    +0.000 A 
ATOM     16  C   UNL     1       3.007   1.796  18.296  0.00  0.00    +0.000 A 
ATOM     17  N   UNL     1       4.106   2.288  17.652  0.00  0.00    +0.000 NA
ATOM     18  C   UNL     1       3.900   3.581  17.516  0.00  0.00    +0.000 A 
ATOM     19  N   UNL     1       2.694   3.936  18.079  0.00  0.00    +0.000 N 
BRANCH  18  20
ATOM     20  C   UNL     1       4.889   4.517  16.818  0.00  0.00    +0.000 C 
ATOM     21  C   UNL     1       6.234   4.702  17.588  0.00  0.00    +0.000 C 
ATOM     22  C   UNL     1       6.959   4.606  16.235  0.00  0.00    +0.000 C 
ATOM     23  C   UNL     1       5.745   3.815  15.725  0.00  0.00    +0.000 C 
ENDBRANCH  18  20
ENDBRANCH  13  19
ENDBRANCH   1  13
TORSDOF 6
ENDMDL
