MODEL 1
REMARK VINA RESULT:      -8.7      0.000      0.000
REMARK  Name = 
REMARK  6 active torsions:
REMARK  status: ('A' for Active; 'I' for Inactive)
REMARK    1  A    between atoms: C_1  and  O_2
REMARK    2  A    between atoms: O_2  and  C_3
REMARK    3  A    between atoms: C_4  and  C_5
REMARK    4  A    between atoms: C_7  and  C_8
REMARK    5  A    between atoms: N_14  and  C_15
REMARK    6  A    between atoms: C_19  and  N_20
REMARK                            x       y       z     vdW  Elec       q    Type
REMARK                         _______ _______ _______ _____ _____    ______ ____
ROOT
ATOM      1  C   UNL     1       2.426   8.125  18.260  0.00  0.00    +0.000 A 
ATOM      2  C   UNL     1       3.752   7.945  17.769  0.00  0.00    +0.000 A 
ATOM      3  C   UNL     1       3.934   6.588  17.562  0.00  0.00    +0.000 A 
ATOM      4  N   UNL     1       2.768   6.017  18.065  0.00  0.00    +0.000 N 
ATOM      5  N   UNL     1       1.793   6.943  18.257  0.00  0.00    +0.000 NA
ENDROOT
BRANCH   1   7
ATOM      6  C   UNL     1       0.956   9.549  19.794  0.00  0.00    +0.000 A 
ATOM      7  C   UNL     1       1.796   9.405  18.650  0.00  0.00    +0.000 A 
ATOM      8  C   UNL     1       2.107  10.539  17.870  0.00  0.00    +0.000 A 
ATOM      9  C   UNL     1       1.643  11.815  18.188  0.00  0.00    +0.000 A 
ATOM     10  C   UNL     1       0.859  11.922  19.328  0.00  0.00    +0.000 A 
ATOM     11  O   UNL     1       0.347  13.093  19.796  0.00  0.00    +0.000 OA
ATOM     12  C   UNL     1      -0.329  12.803  20.933  0.00  0.00    +0.000 A 
ATOM     13  C   UNL     1      -0.255  11.456  21.201  0.00  0.00    +0.000 A 
ATOM     14  C   UNL     1       0.502  10.855  20.147  0.00  0.00    +0.000 A 
BRANCH   6  16
ATOM     15  C   UNL     1       1.384   8.401  21.832  0.00  0.00    +0.000 C 
ATOM     16  O   UNL     1       0.728   8.425  20.569  0.00  0.00    +0.000 OA
ENDBRANCH   6  16
ENDBRANCH   1   7
BRANCH   3  17
ATOM     17  C   UNL     1       5.078   5.891  16.945  0.00  0.00    +0.000 A 
ATOM     18  C   UNL     1       5.145   5.739  15.552  0.00  0.00    +0.000 A 
ATOM     19  C   UNL     1       6.228   5.090  14.950  0.00  0.00    +0.000 A 
ATOM     20  C   UNL     1       7.269   4.595  15.730  0.00  0.00    +0.000 A 
ATOM     21  C   UNL     1       7.212   4.719  17.114  0.00  0.00    +0.000 A 
ATOM     22  C   UNL     1       6.112   5.337  17.717  0.00  0.00    +0.000 A 
ENDBRANCH   3  17
BRANCH   4  23
ATOM     23  C   UNL     1       2.524   4.668  18.447  0.00  0.00    +0.000 A 
ATOM     24  C   UNL     1       2.267   3.707  17.457  0.00  0.00    +0.000 A 
ATOM     25  C   UNL     1       2.040   2.376  17.813  0.00  0.00    +0.000 A 
ATOM     26  C   UNL     1       2.027   2.001  19.157  0.00  0.00    +0.000 A 
ATOM     27  C   UNL     1       2.247   2.968  20.147  0.00  0.00    +0.000 A 
ATOM     28  C   UNL     1       2.501   4.301  19.801  0.00  0.00    +0.000 A 
BRANCH  27  29
ATOM     29  N   UNL     1       2.199   2.585  21.564  0.00  0.00    +0.000 N 
ATOM     30  O   UNL     1       3.239   2.148  22.077  0.00  0.00    +0.000 OA
ATOM     31  O   UNL     1       1.125   2.717  22.162  0.00  0.00    +0.000 OA
ENDBRANCH  27  29
ENDBRANCH   4  23
TORSDOF 5
ENDMDL
MODEL 2
REMARK VINA RESULT:      -8.7      0.034      1.028
REMARK  Name = 
REMARK  6 active torsions:
REMARK  status: ('A' for Active; 'I' for Inactive)
REMARK    1  A    between atoms: C_1  and  O_2
REMARK    2  A    between atoms: O_2  and  C_3
REMARK    3  A    between atoms: C_4  and  C_5
REMARK    4  A    between atoms: C_7  and  C_8
REMARK    5  A    between atoms: N_14  and  C_15
REMARK    6  A    between atoms: C_19  and  N_20
REMARK                            x       y       z     vdW  Elec       q    Type
REMARK                         _______ _______ _______ _____ _____    ______ ____
ROOT
ATOM      1  C   UNL     1       2.409   8.134  18.265  0.00  0.00    +0.000 A 
ATOM      2  C   UNL     1       3.736   7.959  17.773  0.00  0.00    +0.000 A 
ATOM      3  C   UNL     1       3.922   6.604  17.562  0.00  0.00    +0.000 A 
ATOM      4  N   UNL     1       2.758   6.028  18.065  0.00  0.00    +0.000 N 
ATOM      5  N   UNL     1       1.780   6.951  18.260  0.00  0.00    +0.000 NA
ENDROOT
BRANCH   1   7
ATOM      6  C   UNL     1       0.945   9.553  19.810  0.00  0.00    +0.000 A 
ATOM      7  C   UNL     1       1.775   9.411  18.659  0.00  0.00    +0.000 A 
ATOM      8  C   UNL     1       2.074  10.546  17.875  0.00  0.00    +0.000 A 
ATOM      9  C   UNL     1       1.605  11.819  18.195  0.00  0.00    +0.000 A 
ATOM     10  C   UNL     1       0.831  11.924  19.341  0.00  0.00    +0.000 A 
ATOM     11  O   UNL     1       0.316  13.093  19.812  0.00  0.00    +0.000 OA
ATOM     12  C   UNL     1      -0.348  12.801  20.955  0.00  0.00    +0.000 A 
ATOM     13  C   UNL     1      -0.265  11.455  21.224  0.00  0.00    +0.000 A 
ATOM     14  C   UNL     1       0.487  10.856  20.165  0.00  0.00    +0.000 A 
BRANCH   6  16
ATOM     15  C   UNL     1       1.357   8.431  21.865  0.00  0.00    +0.000 C 
ATOM     16  O   UNL     1       0.730   8.428  20.588  0.00  0.00    +0.000 OA
ENDBRANCH   6  16
ENDBRANCH   1   7
BRANCH   3  17
ATOM     17  C   UNL     1       5.068   5.912  16.943  0.00  0.00    +0.000 A 
ATOM     18  C   UNL     1       6.108   5.414  17.741  0.00  0.00    +0.000 A 
ATOM     19  C   UNL     1       7.197   4.747  17.171  0.00  0.00    +0.000 A 
ATOM     20  C   UNL     1       7.257   4.554  15.794  0.00  0.00    +0.000 A 
ATOM     21  C   UNL     1       6.245   5.057  14.983  0.00  0.00    +0.000 A 
ATOM     22  C   UNL     1       5.174   5.755  15.551  0.00  0.00    +0.000 A 
ENDBRANCH   3  17
BRANCH   4  23
ATOM     23  C   UNL     1       2.518   4.677  18.444  0.00  0.00    +0.000 A 
ATOM     24  C   UNL     1       2.261   3.718  17.451  0.00  0.00    +0.000 A 
ATOM     25  C   UNL     1       2.038   2.386  17.804  0.00  0.00    +0.000 A 
ATOM     26  C   UNL     1       2.029   2.006  19.147  0.00  0.00    +0.000 A 
ATOM     27  C   UNL     1       2.249   2.972  20.140  0.00  0.00    +0.000 A 
ATOM     28  C   UNL     1       2.500   4.306  19.796  0.00  0.00    +0.000 A 
BRANCH  27  29
ATOM     29  N   UNL     1       2.206   2.585  21.556  0.00  0.00    +0.000 N 
ATOM     30  O   UNL     1       1.122   2.690  22.147  0.00  0.00    +0.000 OA
ATOM     31  O   UNL     1       3.251   2.179  22.076  0.00  0.00    +0.000 OA
ENDBRANCH  27  29
ENDBRANCH   4  23
TORSDOF 5
ENDMDL
MODEL 3
REMARK VINA RESULT:      -8.0      2.365      4.727
REMARK  Name = 
REMARK  6 active torsions:
REMARK  status: ('A' for Active; 'I' for Inactive)
REMARK    1  A    between atoms: C_1  and  O_2
REMARK    2  A    between atoms: O_2  and  C_3
REMARK    3  A    between atoms: C_4  and  C_5
REMARK    4  A    between atoms: C_7  and  C_8
REMARK    5  A    between atoms: N_14  and  C_15
REMARK    6  A    between atoms: C_19  and  N_20
REMARK                            x       y       z     vdW  Elec       q    Type
REMARK                         _______ _______ _______ _____ _____    ______ ____
ROOT
ATOM      1  C   UNL     1       1.078   8.041  20.803  0.00  0.00    +0.000 A 
ATOM      2  C   UNL     1       0.561   6.713  20.751  0.00  0.00    +0.000 A 
ATOM      3  C   UNL     1       1.547   5.908  20.208  0.00  0.00    +0.000 A 
ATOM      4  N   UNL     1       2.542   6.808  19.836  0.00  0.00    +0.000 N 
ATOM      5  N   UNL     1       2.357   8.029  20.403  0.00  0.00    +0.000 NA
ENDROOT
BRANCH   1   7
ATOM      6  C   UNL     1      -0.037  10.312  20.424  0.00  0.00    +0.000 A 
ATOM      7  C   UNL     1       0.367   9.246  21.282  0.00  0.00    +0.000 A 
ATOM      8  C   UNL     1       0.029   9.291  22.651  0.00  0.00    +0.000 A 
ATOM      9  C   UNL     1      -0.714  10.334  23.204  0.00  0.00    +0.000 A 
ATOM     10  C   UNL     1      -1.120  11.334  22.332  0.00  0.00    +0.000 A 
ATOM     11  O   UNL     1      -1.872  12.408  22.697  0.00  0.00    +0.000 OA
ATOM     12  C   UNL     1      -2.090  13.138  21.578  0.00  0.00    +0.000 A 
ATOM     13  C   UNL     1      -1.486  12.542  20.495  0.00  0.00    +0.000 A 
ATOM     14  C   UNL     1      -0.825  11.367  20.972  0.00  0.00    +0.000 A 
BRANCH   6  16
ATOM     15  C   UNL     1       1.325  11.013  18.607  0.00  0.00    +0.000 C 
ATOM     16  O   UNL     1       0.258  10.197  19.077  0.00  0.00    +0.000 OA
ENDBRANCH   6  16
ENDBRANCH   1   7
BRANCH   3  17
ATOM     17  C   UNL     1       1.566   4.440  20.058  0.00  0.00    +0.000 A 
ATOM     18  C   UNL     1       1.855   3.621  21.160  0.00  0.00    +0.000 A 
ATOM     19  C   UNL     1       1.867   2.228  21.038  0.00  0.00    +0.000 A 
ATOM     20  C   UNL     1       1.576   1.630  19.815  0.00  0.00    +0.000 A 
ATOM     21  C   UNL     1       1.306   2.425  18.706  0.00  0.00    +0.000 A 
ATOM     22  C   UNL     1       1.329   3.819  18.821  0.00  0.00    +0.000 A 
ENDBRANCH   3  17
BRANCH   4  23
ATOM     23  C   UNL     1       3.623   6.625  18.928  0.00  0.00    +0.000 A 
ATOM     24  C   UNL     1       3.488   7.058  17.600  0.00  0.00    +0.000 A 
ATOM     25  C   UNL     1       4.543   6.901  16.699  0.00  0.00    +0.000 A 
ATOM     26  C   UNL     1       5.723   6.273  17.103  0.00  0.00    +0.000 A 
ATOM     27  C   UNL     1       5.843   5.807  18.420  0.00  0.00    +0.000 A 
ATOM     28  C   UNL     1       4.801   5.984  19.339  0.00  0.00    +0.000 A 
BRANCH  27  29
ATOM     29  N   UNL     1       7.069   5.116  18.840  0.00  0.00    +0.000 N 
ATOM     30  O   UNL     1       7.437   5.262  20.014  0.00  0.00    +0.000 OA
ATOM     31  O   UNL     1       7.662   4.432  17.999  0.00  0.00    +0.000 OA
ENDBRANCH  27  29
ENDBRANCH   4  23
TORSDOF 5
ENDMDL
MODEL 4
REMARK VINA RESULT:      -7.9      0.870      1.037
REMARK  Name = 
REMARK  6 active torsions:
REMARK  status: ('A' for Active; 'I' for Inactive)
REMARK    1  A    between atoms: C_1  and  O_2
REMARK    2  A    between atoms: O_2  and  C_3
REMARK    3  A    between atoms: C_4  and  C_5
REMARK    4  A    between atoms: C_7  and  C_8
REMARK    5  A    between atoms: N_14  and  C_15
REMARK    6  A    between atoms: C_19  and  N_20
REMARK                            x       y       z     vdW  Elec       q    Type
REMARK                         _______ _______ _______ _____ _____    ______ ____
ROOT
ATOM      1  C   UNL     1       1.827   8.125  18.398  0.00  0.00    +0.000 A 
ATOM      2  C   UNL     1       3.192   8.166  17.989  0.00  0.00    +0.000 A 
ATOM      3  C   UNL     1       3.593   6.861  17.757  0.00  0.00    +0.000 A 
ATOM      4  N   UNL     1       2.501   6.102  18.170  0.00  0.00    +0.000 N 
ATOM      5  N   UNL     1       1.385   6.862  18.323  0.00  0.00    +0.000 NA
ENDROOT
BRANCH   1   7
ATOM      6  C   UNL     1       0.950   9.821  20.100  0.00  0.00    +0.000 A 
ATOM      7  C   UNL     1       0.986   9.280  18.781  0.00  0.00    +0.000 A 
ATOM      8  C   UNL     1       0.237   9.898  17.757  0.00  0.00    +0.000 A 
ATOM      9  C   UNL     1      -0.526  11.043  17.977  0.00  0.00    +0.000 A 
ATOM     10  C   UNL     1      -0.508  11.562  19.263  0.00  0.00    +0.000 A 
ATOM     11  O   UNL     1      -1.173  12.687  19.644  0.00  0.00    +0.000 OA
ATOM     12  C   UNL     1      -0.891  12.890  20.952  0.00  0.00    +0.000 A 
ATOM     13  C   UNL     1      -0.049  11.907  21.417  0.00  0.00    +0.000 A 
ATOM     14  C   UNL     1       0.198  11.011  20.329  0.00  0.00    +0.000 A 
BRANCH   6  16
ATOM     15  C   UNL     1       1.075   8.765  22.227  0.00  0.00    +0.000 C 
ATOM     16  O   UNL     1       1.749   9.224  21.060  0.00  0.00    +0.000 OA
ENDBRANCH   6  16
ENDBRANCH   1   7
BRANCH   3  17
ATOM     17  C   UNL     1       4.865   6.369  17.197  0.00  0.00    +0.000 A 
ATOM     18  C   UNL     1       4.904   5.825  15.905  0.00  0.00    +0.000 A 
ATOM     19  C   UNL     1       6.104   5.363  15.354  0.00  0.00    +0.000 A 
ATOM     20  C   UNL     1       7.287   5.450  16.081  0.00  0.00    +0.000 A 
ATOM     21  C   UNL     1       7.266   5.968  17.372  0.00  0.00    +0.000 A 
ATOM     22  C   UNL     1       6.060   6.398  17.934  0.00  0.00    +0.000 A 
ENDBRANCH   3  17
BRANCH   4  23
ATOM     23  C   UNL     1       2.445   4.719  18.500  0.00  0.00    +0.000 A 
ATOM     24  C   UNL     1       2.343   3.769  17.471  0.00  0.00    +0.000 A 
ATOM     25  C   UNL     1       2.303   2.406  17.775  0.00  0.00    +0.000 A 
ATOM     26  C   UNL     1       2.321   1.983  19.106  0.00  0.00    +0.000 A 
ATOM     27  C   UNL     1       2.384   2.934  20.133  0.00  0.00    +0.000 A 
ATOM     28  C   UNL     1       2.452   4.302  19.839  0.00  0.00    +0.000 A 
BRANCH  27  29
ATOM     29  N   UNL     1       2.368   2.496  21.535  0.00  0.00    +0.000 N 
ATOM     30  O   UNL     1       1.306   2.619  22.163  0.00  0.00    +0.000 OA
ATOM     31  O   UNL     1       3.412   2.033  22.007  0.00  0.00    +0.000 OA
ENDBRANCH  27  29
ENDBRANCH   4  23
TORSDOF 5
ENDMDL
MODEL 5
REMARK VINA RESULT:      -7.8      2.434      4.648
REMARK  Name = 
REMARK  6 active torsions:
REMARK  status: ('A' for Active; 'I' for Inactive)
REMARK    1  A    between atoms: C_1  and  O_2
REMARK    2  A    between atoms: O_2  and  C_3
REMARK    3  A    between atoms: C_4  and  C_5
REMARK    4  A    between atoms: C_7  and  C_8
REMARK    5  A    between atoms: N_14  and  C_15
REMARK    6  A    between atoms: C_19  and  N_20
REMARK                            x       y       z     vdW  Elec       q    Type
REMARK                         _______ _______ _______ _____ _____    ______ ____
ROOT
ATOM      1  C   UNL     1       1.143   8.112  20.837  0.00  0.00    +0.000 A 
ATOM      2  C   UNL     1       0.627   6.782  20.829  0.00  0.00    +0.000 A 
ATOM      3  C   UNL     1       1.581   5.973  20.235  0.00  0.00    +0.000 A 
ATOM      4  N   UNL     1       2.550   6.872  19.796  0.00  0.00    +0.000 N 
ATOM      5  N   UNL     1       2.396   8.098  20.361  0.00  0.00    +0.000 NA
ENDROOT
BRANCH   1   7
ATOM      6  C   UNL     1       0.204  10.473  20.546  0.00  0.00    +0.000 A 
ATOM      7  C   UNL     1       0.460   9.320  21.346  0.00  0.00    +0.000 A 
ATOM      8  C   UNL     1      -0.008   9.281  22.677  0.00  0.00    +0.000 A 
ATOM      9  C   UNL     1      -0.740  10.325  23.242  0.00  0.00    +0.000 A 
ATOM     10  C   UNL     1      -1.000  11.413  22.423  0.00  0.00    +0.000 A 
ATOM     11  O   UNL     1      -1.721  12.503  22.804  0.00  0.00    +0.000 OA
ATOM     12  C   UNL     1      -1.785  13.330  21.735  0.00  0.00    +0.000 A 
ATOM     13  C   UNL     1      -1.113  12.782  20.667  0.00  0.00    +0.000 A 
ATOM     14  C   UNL     1      -0.571  11.532  21.104  0.00  0.00    +0.000 A 
BRANCH   6  16
ATOM     15  C   UNL     1      -0.380  10.138  18.266  0.00  0.00    +0.000 C 
ATOM     16  O   UNL     1       0.624  10.444  19.227  0.00  0.00    +0.000 OA
ENDBRANCH   6  16
ENDBRANCH   1   7
BRANCH   3  17
ATOM     17  C   UNL     1       1.594   4.505  20.099  0.00  0.00    +0.000 A 
ATOM     18  C   UNL     1       1.375   3.910  18.847  0.00  0.00    +0.000 A 
ATOM     19  C   UNL     1       1.394   2.519  18.698  0.00  0.00    +0.000 A 
ATOM     20  C   UNL     1       1.647   1.701  19.795  0.00  0.00    +0.000 A 
ATOM     21  C   UNL     1       1.847   2.271  21.048  0.00  0.00    +0.000 A 
ATOM     22  C   UNL     1       1.793   3.660  21.203  0.00  0.00    +0.000 A 
ENDBRANCH   3  17
BRANCH   4  23
ATOM     23  C   UNL     1       3.574   6.682  18.826  0.00  0.00    +0.000 A 
ATOM     24  C   UNL     1       3.391   7.173  17.524  0.00  0.00    +0.000 A 
ATOM     25  C   UNL     1       4.391   7.008  16.564  0.00  0.00    +0.000 A 
ATOM     26  C   UNL     1       5.563   6.319  16.883  0.00  0.00    +0.000 A 
ATOM     27  C   UNL     1       5.730   5.798  18.173  0.00  0.00    +0.000 A 
ATOM     28  C   UNL     1       4.744   5.979  19.151  0.00  0.00    +0.000 A 
BRANCH  27  29
ATOM     29  N   UNL     1       6.946   5.042  18.502  0.00  0.00    +0.000 N 
ATOM     30  O   UNL     1       7.507   4.427  17.583  0.00  0.00    +0.000 OA
ATOM     31  O   UNL     1       7.336   5.059  19.674  0.00  0.00    +0.000 OA
ENDBRANCH  27  29
ENDBRANCH   4  23
TORSDOF 5
ENDMDL
MODEL 6
REMARK VINA RESULT:      -7.7      1.445      1.788
REMARK  Name = 
REMARK  6 active torsions:
REMARK  status: ('A' for Active; 'I' for Inactive)
REMARK    1  A    between atoms: C_1  and  O_2
REMARK    2  A    between atoms: O_2  and  C_3
REMARK    3  A    between atoms: C_4  and  C_5
REMARK    4  A    between atoms: C_7  and  C_8
REMARK    5  A    between atoms: N_14  and  C_15
REMARK    6  A    between atoms: C_19  and  N_20
REMARK                            x       y       z     vdW  Elec       q    Type
REMARK                         _______ _______ _______ _____ _____    ______ ____
ROOT
ATOM      1  C   UNL     1       2.230   8.150  18.700  0.00  0.00    +0.000 A 
ATOM      2  C   UNL     1       3.453   7.885  18.016  0.00  0.00    +0.000 A 
ATOM      3  C   UNL     1       3.681   6.522  18.091  0.00  0.00    +0.000 A 
ATOM      4  N   UNL     1       2.667   6.063  18.927  0.00  0.00    +0.000 N 
ATOM      5  N   UNL     1       1.685   6.988  19.088  0.00  0.00    +0.000 NA
ENDROOT
BRANCH   1   7
ATOM      6  C   UNL     1       0.743   9.773  20.001  0.00  0.00    +0.000 A 
ATOM      7  C   UNL     1       1.601   9.473  18.903  0.00  0.00    +0.000 A 
ATOM      8  C   UNL     1       1.932  10.490  17.982  0.00  0.00    +0.000 A 
ATOM      9  C   UNL     1       1.470  11.799  18.117  0.00  0.00    +0.000 A 
ATOM     10  C   UNL     1       0.668  12.062  19.218  0.00  0.00    +0.000 A 
ATOM     11  O   UNL     1       0.155  13.286  19.515  0.00  0.00    +0.000 OA
ATOM     12  C   UNL     1      -0.542  13.155  20.668  0.00  0.00    +0.000 A 
ATOM     13  C   UNL     1      -0.481  11.856  21.117  0.00  0.00    +0.000 A 
ATOM     14  C   UNL     1       0.291  11.116  20.167  0.00  0.00    +0.000 A 
BRANCH   6  16
ATOM     15  C   UNL     1       1.158   8.890  22.170  0.00  0.00    +0.000 C 
ATOM     16  O   UNL     1       0.496   8.764  20.917  0.00  0.00    +0.000 OA
ENDBRANCH   6  16
ENDBRANCH   1   7
BRANCH   3  17
ATOM     17  C   UNL     1       4.736   5.722  17.440  0.00  0.00    +0.000 A 
ATOM     18  C   UNL     1       6.071   5.842  17.854  0.00  0.00    +0.000 A 
ATOM     19  C   UNL     1       7.081   5.084  17.254  0.00  0.00    +0.000 A 
ATOM     20  C   UNL     1       6.772   4.183  16.239  0.00  0.00    +0.000 A 
ATOM     21  C   UNL     1       5.457   4.064  15.801  0.00  0.00    +0.000 A 
ATOM     22  C   UNL     1       4.453   4.848  16.378  0.00  0.00    +0.000 A 
ENDBRANCH   3  17
BRANCH   4  23
ATOM     23  C   UNL     1       2.585   4.837  19.646  0.00  0.00    +0.000 A 
ATOM     24  C   UNL     1       1.473   4.593  20.468  0.00  0.00    +0.000 A 
ATOM     25  C   UNL     1       1.368   3.390  21.169  0.00  0.00    +0.000 A 
ATOM     26  C   UNL     1       2.388   2.440  21.088  0.00  0.00    +0.000 A 
ATOM     27  C   UNL     1       3.515   2.700  20.297  0.00  0.00    +0.000 A 
ATOM     28  C   UNL     1       3.618   3.892  19.569  0.00  0.00    +0.000 A 
BRANCH  27  29
ATOM     29  N   UNL     1       4.606   1.719  20.237  0.00  0.00    +0.000 N 
ATOM     30  O   UNL     1       4.703   1.029  19.211  0.00  0.00    +0.000 OA
ATOM     31  O   UNL     1       5.361   1.635  21.212  0.00  0.00    +0.000 OA
ENDBRANCH  27  29
ENDBRANCH   4  23
TORSDOF 5
ENDMDL
MODEL 7
REMARK VINA RESULT:      -7.5      2.679      4.538
REMARK  Name = 
REMARK  6 active torsions:
REMARK  status: ('A' for Active; 'I' for Inactive)
REMARK    1  A    between atoms: C_1  and  O_2
REMARK    2  A    between atoms: O_2  and  C_3
REMARK    3  A    between atoms: C_4  and  C_5
REMARK    4  A    between atoms: C_7  and  C_8
REMARK    5  A    between atoms: N_14  and  C_15
REMARK    6  A    between atoms: C_19  and  N_20
REMARK                            x       y       z     vdW  Elec       q    Type
REMARK                         _______ _______ _______ _____ _____    ______ ____
ROOT
ATOM      1  C   UNL     1       2.402   8.000  18.604  0.00  0.00    +0.000 A 
ATOM      2  C   UNL     1       1.627   6.803  18.577  0.00  0.00    +0.000 A 
ATOM      3  C   UNL     1       2.511   5.741  18.489  0.00  0.00    +0.000 A 
ATOM      4  N   UNL     1       3.750   6.355  18.327  0.00  0.00    +0.000 N 
ATOM      5  N   UNL     1       3.703   7.678  18.632  0.00  0.00    +0.000 NA
ENDROOT
BRANCH   1   7
ATOM      6  C   UNL     1       0.932   9.825  19.628  0.00  0.00    +0.000 A 
ATOM      7  C   UNL     1       1.886   9.384  18.663  0.00  0.00    +0.000 A 
ATOM      8  C   UNL     1       2.426  10.312  17.748  0.00  0.00    +0.000 A 
ATOM      9  C   UNL     1       2.082  11.663  17.762  0.00  0.00    +0.000 A 
ATOM     10  C   UNL     1       1.179  12.061  18.737  0.00  0.00    +0.000 A 
ATOM     11  O   UNL     1       0.756  13.343  18.909  0.00  0.00    +0.000 OA
ATOM     12  C   UNL     1      -0.088  13.343  19.968  0.00  0.00    +0.000 A 
ATOM     13  C   UNL     1      -0.210  12.072  20.480  0.00  0.00    +0.000 A 
ATOM     14  C   UNL     1       0.596  11.211  19.672  0.00  0.00    +0.000 A 
BRANCH   6  16
ATOM     15  C   UNL     1       1.114   8.923  21.820  0.00  0.00    +0.000 C 
ATOM     16  O   UNL     1       0.475   8.897  20.548  0.00  0.00    +0.000 OA
ENDBRANCH   6  16
ENDBRANCH   1   7
BRANCH   3  17
ATOM     17  C   UNL     1       2.230   4.295  18.558  0.00  0.00    +0.000 A 
ATOM     18  C   UNL     1       1.514   3.765  19.641  0.00  0.00    +0.000 A 
ATOM     19  C   UNL     1       1.230   2.398  19.717  0.00  0.00    +0.000 A 
ATOM     20  C   UNL     1       1.645   1.539  18.704  0.00  0.00    +0.000 A 
ATOM     21  C   UNL     1       2.374   2.042  17.631  0.00  0.00    +0.000 A 
ATOM     22  C   UNL     1       2.687   3.404  17.573  0.00  0.00    +0.000 A 
ENDBRANCH   3  17
BRANCH   4  23
ATOM     23  C   UNL     1       4.967   5.802  17.839  0.00  0.00    +0.000 A 
ATOM     24  C   UNL     1       5.982   5.460  18.747  0.00  0.00    +0.000 A 
ATOM     25  C   UNL     1       7.176   4.902  18.288  0.00  0.00    +0.000 A 
ATOM     26  C   UNL     1       7.385   4.719  16.919  0.00  0.00    +0.000 A 
ATOM     27  C   UNL     1       6.386   5.095  16.011  0.00  0.00    +0.000 A 
ATOM     28  C   UNL     1       5.174   5.631  16.463  0.00  0.00    +0.000 A 
BRANCH  27  29
ATOM     29  N   UNL     1       6.615   4.937  14.569  0.00  0.00    +0.000 N 
ATOM     30  O   UNL     1       7.630   5.461  14.087  0.00  0.00    +0.000 OA
ATOM     31  O   UNL     1       5.783   4.294  13.919  0.00  0.00    +0.000 OA
ENDBRANCH  27  29
ENDBRANCH   4  23
TORSDOF 5
ENDMDL
MODEL 8
REMARK VINA RESULT:      -7.5      2.569      4.580
REMARK  Name = 
REMARK  6 active torsions:
REMARK  status: ('A' for Active; 'I' for Inactive)
REMARK    1  A    between atoms: C_1  and  O_2
REMARK    2  A    between atoms: O_2  and  C_3
REMARK    3  A    between atoms: C_4  and  C_5
REMARK    4  A    between atoms: C_7  and  C_8
REMARK    5  A    between atoms: N_14  and  C_15
REMARK    6  A    between atoms: C_19  and  N_20
REMARK                            x       y       z     vdW  Elec       q    Type
REMARK                         _______ _______ _______ _____ _____    ______ ____
ROOT
ATOM      1  C   UNL     1       1.485   8.452  19.758  0.00  0.00    +0.000 A 
ATOM      2  C   UNL     1       0.950   7.281  20.371  0.00  0.00    +0.000 A 
ATOM      3  C   UNL     1       1.772   6.222  20.024  0.00  0.00    +0.000 A 
ATOM      4  N   UNL     1       2.668   6.782  19.117  0.00  0.00    +0.000 N 
ATOM      5  N   UNL     1       2.637   8.140  19.148  0.00  0.00    +0.000 NA
ENDROOT
BRANCH   1   7
ATOM      6  C   UNL     1       0.731  10.528  21.048  0.00  0.00    +0.000 A 
ATOM      7  C   UNL     1       0.922   9.818  19.826  0.00  0.00    +0.000 A 
ATOM      8  C   UNL     1       0.626  10.453  18.601  0.00  0.00    +0.000 A 
ATOM      9  C   UNL     1       0.172  11.769  18.533  0.00  0.00    +0.000 A 
ATOM     10  C   UNL     1       0.032  12.440  19.739  0.00  0.00    +0.000 A 
ATOM     11  O   UNL     1      -0.373  13.734  19.853  0.00  0.00    +0.000 OA
ATOM     12  C   UNL     1      -0.356  14.040  21.171  0.00  0.00    +0.000 A 
ATOM     13  C   UNL     1       0.059  12.955  21.907  0.00  0.00    +0.000 A 
ATOM     14  C   UNL     1       0.298  11.886  20.988  0.00  0.00    +0.000 A 
BRANCH   6  16
ATOM     15  C   UNL     1       0.027   9.561  23.103  0.00  0.00    +0.000 C 
ATOM     16  O   UNL     1       1.095   9.892  22.223  0.00  0.00    +0.000 OA
ENDBRANCH   6  16
ENDBRANCH   1   7
BRANCH   3  17
ATOM     17  C   UNL     1       1.734   4.826  20.499  0.00  0.00    +0.000 A 
ATOM     18  C   UNL     1       0.822   3.916  19.943  0.00  0.00    +0.000 A 
ATOM     19  C   UNL     1       0.779   2.586  20.374  0.00  0.00    +0.000 A 
ATOM     20  C   UNL     1       1.657   2.141  21.358  0.00  0.00    +0.000 A 
ATOM     21  C   UNL     1       2.555   3.032  21.935  0.00  0.00    +0.000 A 
ATOM     22  C   UNL     1       2.573   4.370  21.528  0.00  0.00    +0.000 A 
ENDBRANCH   3  17
BRANCH   4  23
ATOM     23  C   UNL     1       3.507   6.132  18.168  0.00  0.00    +0.000 A 
ATOM     24  C   UNL     1       3.097   4.912  17.608  0.00  0.00    +0.000 A 
ATOM     25  C   UNL     1       3.900   4.268  16.664  0.00  0.00    +0.000 A 
ATOM     26  C   UNL     1       5.134   4.813  16.303  0.00  0.00    +0.000 A 
ATOM     27  C   UNL     1       5.559   6.012  16.891  0.00  0.00    +0.000 A 
ATOM     28  C   UNL     1       4.750   6.680  17.819  0.00  0.00    +0.000 A 
BRANCH  27  29
ATOM     29  N   UNL     1       6.871   6.571  16.541  0.00  0.00    +0.000 N 
ATOM     30  O   UNL     1       7.213   7.625  17.096  0.00  0.00    +0.000 OA
ATOM     31  O   UNL     1       7.556   5.960  15.714  0.00  0.00    +0.000 OA
ENDBRANCH  27  29
ENDBRANCH   4  23
TORSDOF 5
ENDMDL
MODEL 9
REMARK VINA RESULT:      -7.5      2.320      4.138
REMARK  Name = 
REMARK  6 active torsions:
REMARK  status: ('A' for Active; 'I' for Inactive)
REMARK    1  A    between atoms: C_1  and  O_2
REMARK    2  A    between atoms: O_2  and  C_3
REMARK    3  A    between atoms: C_4  and  C_5
REMARK    4  A    between atoms: C_7  and  C_8
REMARK    5  A    between atoms: N_14  and  C_15
REMARK    6  A    between atoms: C_19  and  N_20
REMARK                            x       y       z     vdW  Elec       q    Type
REMARK                         _______ _______ _______ _____ _____    ______ ____
ROOT
ATOM      1  C   UNL     1       2.181   8.833  18.388  0.00  0.00    +0.000 A 
ATOM      2  C   UNL     1       1.418   7.648  18.605  0.00  0.00    +0.000 A 
ATOM      3  C   UNL     1       2.276   6.572  18.459  0.00  0.00    +0.000 A 
ATOM      4  N   UNL     1       3.466   7.154  18.028  0.00  0.00    +0.000 N 
ATOM      5  N   UNL     1       3.468   8.499  18.216  0.00  0.00    +0.000 NA
ENDROOT
BRANCH   1   7
ATOM      6  C   UNL     1       0.461  10.606  19.049  0.00  0.00    +0.000 A 
ATOM      7  C   UNL     1       1.678  10.223  18.412  0.00  0.00    +0.000 A 
ATOM      8  C   UNL     1       2.493  11.212  17.822  0.00  0.00    +0.000 A 
ATOM      9  C   UNL     1       2.168  12.567  17.857  0.00  0.00    +0.000 A 
ATOM     10  C   UNL     1       0.995  12.905  18.516  0.00  0.00    +0.000 A 
ATOM     11  O   UNL     1       0.542  14.180  18.667  0.00  0.00    +0.000 OA
ATOM     12  C   UNL     1      -0.604  14.111  19.385  0.00  0.00    +0.000 A 
ATOM     13  C   UNL     1      -0.892  12.803  19.698  0.00  0.00    +0.000 A 
ATOM     14  C   UNL     1       0.134  11.992  19.119  0.00  0.00    +0.000 A 
BRANCH   6  16
ATOM     15  C   UNL     1      -0.220   9.601  21.093  0.00  0.00    +0.000 C 
ATOM     16  O   UNL     1      -0.277   9.614  19.671  0.00  0.00    +0.000 OA
ENDBRANCH   6  16
ENDBRANCH   1   7
BRANCH   3  17
ATOM     17  C   UNL     1       2.017   5.141  18.706  0.00  0.00    +0.000 A 
ATOM     18  C   UNL     1       2.114   4.214  17.657  0.00  0.00    +0.000 A 
ATOM     19  C   UNL     1       1.881   2.853  17.876  0.00  0.00    +0.000 A 
ATOM     20  C   UNL     1       1.562   2.393  19.150  0.00  0.00    +0.000 A 
ATOM     21  C   UNL     1       1.443   3.298  20.199  0.00  0.00    +0.000 A 
ATOM     22  C   UNL     1       1.641   4.664  19.972  0.00  0.00    +0.000 A 
ENDBRANCH   3  17
BRANCH   4  23
ATOM     23  C   UNL     1       4.580   6.544  17.386  0.00  0.00    +0.000 A 
ATOM     24  C   UNL     1       4.598   6.441  15.986  0.00  0.00    +0.000 A 
ATOM     25  C   UNL     1       5.690   5.860  15.339  0.00  0.00    +0.000 A 
ATOM     26  C   UNL     1       6.752   5.340  16.082  0.00  0.00    +0.000 A 
ATOM     27  C   UNL     1       6.716   5.410  17.481  0.00  0.00    +0.000 A 
ATOM     28  C   UNL     1       5.638   6.015  18.140  0.00  0.00    +0.000 A 
BRANCH  27  29
ATOM     29  N   UNL     1       7.814   4.834  18.268  0.00  0.00    +0.000 N 
ATOM     30  O   UNL     1       8.541   3.996  17.713  0.00  0.00    +0.000 OA
ATOM     31  O   UNL     1       7.948   5.214  19.436  0.00  0.00    +0.000 OA
ENDBRANCH  27  29
ENDBRANCH   4  23
TORSDOF 5
ENDMDL
