MODEL 1
REMARK VINA RESULT:      -6.5      0.000      0.000
REMARK  Name = 
REMARK  7 active torsions:
REMARK  status: ('A' for Active; 'I' for Inactive)
REMARK    1  A    between atoms: C_1  and  O_2
REMARK    2  A    between atoms: O_2  and  C_3
REMARK    3  A    between atoms: C_6  and  C_7
REMARK    4  A    between atoms: C_7  and  C_8
REMARK    5  A    between atoms: N_10  and  C_11
REMARK    6  A    between atoms: C_14  and  O_15
REMARK    7  A    between atoms: O_15  and  C_16
REMARK                            x       y       z     vdW  Elec       q    Type
REMARK                         _______ _______ _______ _____ _____    ______ ____
ROOT
ATOM      1  C   UNL     1       2.689   5.032  17.947  0.00  0.00    +0.000 C 
ATOM      2  O   UNL     1       1.488   4.871  17.753  0.00  0.00    +0.000 OA
ATOM      3  N   UNL     1       3.268   6.228  18.344  0.00  0.00    +0.000 N 
ATOM      4  H   UNL     1       4.245   6.363  18.113  0.00  0.00    +0.000 HD
ENDROOT
BRANCH   3   5
ATOM      5  C   UNL     1       2.508   7.372  18.669  0.00  0.00    +0.000 A 
ATOM      6  C   UNL     1       2.256   8.319  17.681  0.00  0.00    +0.000 A 
ATOM      7  C   UNL     1       1.452   9.420  17.980  0.00  0.00    +0.000 A 
ATOM      8  C   UNL     1       0.979   9.567  19.275  0.00  0.00    +0.000 A 
ATOM      9  N   UNL     1       1.244   8.697  20.269  0.00  0.00    +0.000 NA
ATOM     10  C   UNL     1       1.987   7.611  19.940  0.00  0.00    +0.000 A 
BRANCH   8  11
ATOM     11  O   UNL     1       0.192  10.674  19.518  0.00  0.00    +0.000 OA
ATOM     12  C   UNL     1       0.547  11.355  20.718  0.00  0.00    +0.000 C 
ENDBRANCH   8  11
ENDBRANCH   3   5
BRANCH   1  13
ATOM     13  C   UNL     1       3.675   3.901  17.749  0.00  0.00    +0.000 C 
BRANCH  13  17
ATOM     14  C   UNL     1       7.058   4.905  15.233  0.00  0.00    +0.000 A 
ATOM     15  C   UNL     1       5.793   4.681  14.691  0.00  0.00    +0.000 A 
ATOM     16  C   UNL     1       4.715   4.348  15.514  0.00  0.00    +0.000 A 
ATOM     17  C   UNL     1       4.886   4.212  16.898  0.00  0.00    +0.000 A 
ATOM     18  C   UNL     1       6.154   4.456  17.441  0.00  0.00    +0.000 A 
ATOM     19  C   UNL     1       7.236   4.790  16.611  0.00  0.00    +0.000 A 
BRANCH  14  21
ATOM     20  C   UNL     1       7.641   5.181  12.951  0.00  0.00    +0.000 C 
ATOM     21  O   UNL     1       8.031   5.201  14.318  0.00  0.00    +0.000 OA
ENDBRANCH  14  21
ENDBRANCH  13  17
ENDBRANCH   1  13
TORSDOF 5
ENDMDL
MODEL 2
REMARK VINA RESULT:      -6.4      1.116      1.248
REMARK  Name = 
REMARK  7 active torsions:
REMARK  status: ('A' for Active; 'I' for Inactive)
REMARK    1  A    between atoms: C_1  and  O_2
REMARK    2  A    between atoms: O_2  and  C_3
REMARK    3  A    between atoms: C_6  and  C_7
REMARK    4  A    between atoms: C_7  and  C_8
REMARK    5  A    between atoms: N_10  and  C_11
REMARK    6  A    between atoms: C_14  and  O_15
REMARK    7  A    between atoms: O_15  and  C_16
REMARK                            x       y       z     vdW  Elec       q    Type
REMARK                         _______ _______ _______ _____ _____    ______ ____
ROOT
ATOM      1  C   UNL     1       2.748   5.148  19.498  0.00  0.00    +0.000 C 
ATOM      2  O   UNL     1       1.581   4.788  19.386  0.00  0.00    +0.000 OA
ATOM      3  N   UNL     1       3.158   6.468  19.608  0.00  0.00    +0.000 N 
ATOM      4  H   UNL     1       4.105   6.679  19.318  0.00  0.00    +0.000 HD
ENDROOT
BRANCH   3   5
ATOM      5  C   UNL     1       2.248   7.543  19.707  0.00  0.00    +0.000 A 
ATOM      6  C   UNL     1       2.029   8.348  18.593  0.00  0.00    +0.000 A 
ATOM      7  C   UNL     1       1.084   9.372  18.666  0.00  0.00    +0.000 A 
ATOM      8  C   UNL     1       0.435   9.594  19.871  0.00  0.00    +0.000 A 
ATOM      9  N   UNL     1       0.658   8.867  20.983  0.00  0.00    +0.000 NA
ATOM     10  C   UNL     1       1.546   7.848  20.871  0.00  0.00    +0.000 A 
BRANCH   8  11
ATOM     11  O   UNL     1      -0.487  10.621  19.890  0.00  0.00    +0.000 OA
ATOM     12  C   UNL     1      -0.436  11.390  21.087  0.00  0.00    +0.000 C 
ENDBRANCH   8  11
ENDBRANCH   3   5
BRANCH   1  13
ATOM     13  C   UNL     1       3.881   4.144  19.511  0.00  0.00    +0.000 C 
BRANCH  13  17
ATOM     14  C   UNL     1       6.775   4.690  16.332  0.00  0.00    +0.000 A 
ATOM     15  C   UNL     1       5.459   4.317  16.058  0.00  0.00    +0.000 A 
ATOM     16  C   UNL     1       4.541   4.135  17.095  0.00  0.00    +0.000 A 
ATOM     17  C   UNL     1       4.928   4.302  18.431  0.00  0.00    +0.000 A 
ATOM     18  C   UNL     1       6.245   4.695  18.701  0.00  0.00    +0.000 A 
ATOM     19  C   UNL     1       7.166   4.876  17.658  0.00  0.00    +0.000 A 
BRANCH  14  21
ATOM     20  C   UNL     1       6.948   4.651  13.967  0.00  0.00    +0.000 C 
ATOM     21  O   UNL     1       7.578   4.812  15.231  0.00  0.00    +0.000 OA
ENDBRANCH  14  21
ENDBRANCH  13  17
ENDBRANCH   1  13
TORSDOF 5
ENDMDL
MODEL 3
REMARK VINA RESULT:      -6.3      0.753      1.187
REMARK  Name = 
REMARK  7 active torsions:
REMARK  status: ('A' for Active; 'I' for Inactive)
REMARK    1  A    between atoms: C_1  and  O_2
REMARK    2  A    between atoms: O_2  and  C_3
REMARK    3  A    between atoms: C_6  and  C_7
REMARK    4  A    between atoms: C_7  and  C_8
REMARK    5  A    between atoms: N_10  and  C_11
REMARK    6  A    between atoms: C_14  and  O_15
REMARK    7  A    between atoms: O_15  and  C_16
REMARK                            x       y       z     vdW  Elec       q    Type
REMARK                         _______ _______ _______ _____ _____    ______ ____
ROOT
ATOM      1  C   UNL     1       2.737   4.821  17.943  0.00  0.00    +0.000 C 
ATOM      2  O   UNL     1       1.537   4.652  17.753  0.00  0.00    +0.000 OA
ATOM      3  N   UNL     1       3.302   6.001  18.402  0.00  0.00    +0.000 N 
ATOM      4  H   UNL     1       4.274   6.165  18.168  0.00  0.00    +0.000 HD
ENDROOT
BRANCH   3   5
ATOM      5  C   UNL     1       2.528   7.113  18.801  0.00  0.00    +0.000 A 
ATOM      6  C   UNL     1       2.078   7.186  20.116  0.00  0.00    +0.000 A 
ATOM      7  C   UNL     1       1.368   8.312  20.532  0.00  0.00    +0.000 A 
ATOM      8  C   UNL     1       1.078   9.298  19.601  0.00  0.00    +0.000 A 
ATOM      9  N   UNL     1       1.454   9.237  18.309  0.00  0.00    +0.000 NA
ATOM     10  C   UNL     1       2.184   8.155  17.942  0.00  0.00    +0.000 A 
BRANCH   8  11
ATOM     11  O   UNL     1       0.370  10.389  20.064  0.00  0.00    +0.000 OA
ATOM     12  C   UNL     1      -0.369  11.046  19.039  0.00  0.00    +0.000 C 
ENDBRANCH   8  11
ENDBRANCH   3   5
BRANCH   1  13
ATOM     13  C   UNL     1       3.738   3.720  17.668  0.00  0.00    +0.000 C 
BRANCH  13  17
ATOM     14  C   UNL     1       7.102   4.930  15.218  0.00  0.00    +0.000 A 
ATOM     15  C   UNL     1       5.856   4.652  14.654  0.00  0.00    +0.000 A 
ATOM     16  C   UNL     1       4.784   4.253  15.456  0.00  0.00    +0.000 A 
ATOM     17  C   UNL     1       4.944   4.103  16.840  0.00  0.00    +0.000 A 
ATOM     18  C   UNL     1       6.191   4.401  17.405  0.00  0.00    +0.000 A 
ATOM     19  C   UNL     1       7.266   4.801  16.596  0.00  0.00    +0.000 A 
BRANCH  14  21
ATOM     20  C   UNL     1       7.722   5.204  12.945  0.00  0.00    +0.000 C 
ATOM     21  O   UNL     1       8.071   5.287  14.321  0.00  0.00    +0.000 OA
ENDBRANCH  14  21
ENDBRANCH  13  17
ENDBRANCH   1  13
TORSDOF 5
ENDMDL
MODEL 4
REMARK VINA RESULT:      -6.3      1.228      1.601
REMARK  Name = 
REMARK  7 active torsions:
REMARK  status: ('A' for Active; 'I' for Inactive)
REMARK    1  A    between atoms: C_1  and  O_2
REMARK    2  A    between atoms: O_2  and  C_3
REMARK    3  A    between atoms: C_6  and  C_7
REMARK    4  A    between atoms: C_7  and  C_8
REMARK    5  A    between atoms: N_10  and  C_11
REMARK    6  A    between atoms: C_14  and  O_15
REMARK    7  A    between atoms: O_15  and  C_16
REMARK                            x       y       z     vdW  Elec       q    Type
REMARK                         _______ _______ _______ _____ _____    ______ ____
ROOT
ATOM      1  C   UNL     1       2.744   5.120  19.429  0.00  0.00    +0.000 C 
ATOM      2  O   UNL     1       1.570   4.793  19.572  0.00  0.00    +0.000 OA
ATOM      3  N   UNL     1       3.180   6.423  19.242  0.00  0.00    +0.000 N 
ATOM      4  H   UNL     1       4.068   6.546  18.770  0.00  0.00    +0.000 HD
ENDROOT
BRANCH   3   5
ATOM      5  C   UNL     1       2.311   7.534  19.302  0.00  0.00    +0.000 A 
ATOM      6  C   UNL     1       1.708   7.856  20.515  0.00  0.00    +0.000 A 
ATOM      7  C   UNL     1       0.900   8.990  20.595  0.00  0.00    +0.000 A 
ATOM      8  C   UNL     1       0.670   9.726  19.444  0.00  0.00    +0.000 A 
ATOM      9  N   UNL     1       1.195   9.416  18.242  0.00  0.00    +0.000 NA
ATOM     10  C   UNL     1       2.016   8.338  18.202  0.00  0.00    +0.000 A 
BRANCH   8  11
ATOM     11  O   UNL     1      -0.140  10.836  19.577  0.00  0.00    +0.000 OA
ATOM     12  C   UNL     1       0.381  11.986  18.917  0.00  0.00    +0.000 C 
ENDBRANCH   8  11
ENDBRANCH   3   5
BRANCH   1  13
ATOM     13  C   UNL     1       3.853   4.089  19.429  0.00  0.00    +0.000 C 
BRANCH  13  17
ATOM     14  C   UNL     1       6.817   4.655  16.319  0.00  0.00    +0.000 A 
ATOM     15  C   UNL     1       5.550   4.149  16.029  0.00  0.00    +0.000 A 
ATOM     16  C   UNL     1       4.609   3.963  17.044  0.00  0.00    +0.000 A 
ATOM     17  C   UNL     1       4.925   4.260  18.376  0.00  0.00    +0.000 A 
ATOM     18  C   UNL     1       6.192   4.786  18.661  0.00  0.00    +0.000 A 
ATOM     19  C   UNL     1       7.136   4.972  17.639  0.00  0.00    +0.000 A 
BRANCH  14  21
ATOM     20  C   UNL     1       7.032   4.786  13.961  0.00  0.00    +0.000 C 
ATOM     21  O   UNL     1       7.651   4.768  15.240  0.00  0.00    +0.000 OA
ENDBRANCH  14  21
ENDBRANCH  13  17
ENDBRANCH   1  13
TORSDOF 5
ENDMDL
MODEL 5
REMARK VINA RESULT:      -6.3      0.611      1.229
REMARK  Name = 
REMARK  7 active torsions:
REMARK  status: ('A' for Active; 'I' for Inactive)
REMARK    1  A    between atoms: C_1  and  O_2
REMARK    2  A    between atoms: O_2  and  C_3
REMARK    3  A    between atoms: C_6  and  C_7
REMARK    4  A    between atoms: C_7  and  C_8
REMARK    5  A    between atoms: N_10  and  C_11
REMARK    6  A    between atoms: C_14  and  O_15
REMARK    7  A    between atoms: O_15  and  C_16
REMARK                            x       y       z     vdW  Elec       q    Type
REMARK                         _______ _______ _______ _____ _____    ______ ____
ROOT
ATOM      1  C   UNL     1       2.773   4.914  17.871  0.00  0.00    +0.000 C 
ATOM      2  O   UNL     1       1.578   4.664  17.989  0.00  0.00    +0.000 OA
ATOM      3  N   UNL     1       3.338   6.166  18.066  0.00  0.00    +0.000 N 
ATOM      4  H   UNL     1       4.214   6.352  17.593  0.00  0.00    +0.000 HD
ENDROOT
BRANCH   3   5
ATOM      5  C   UNL     1       2.595   7.274  18.528  0.00  0.00    +0.000 A 
ATOM      6  C   UNL     1       2.296   8.304  17.641  0.00  0.00    +0.000 A 
ATOM      7  C   UNL     1       1.508   9.370  18.075  0.00  0.00    +0.000 A 
ATOM      8  C   UNL     1       1.098   9.400  19.399  0.00  0.00    +0.000 A 
ATOM      9  N   UNL     1       1.410   8.446  20.298  0.00  0.00    +0.000 NA
ATOM     10  C   UNL     1       2.136   7.397  19.839  0.00  0.00    +0.000 A 
BRANCH   8  11
ATOM     11  O   UNL     1       0.324  10.478  19.777  0.00  0.00    +0.000 OA
ATOM     12  C   UNL     1      -0.611  10.867  18.775  0.00  0.00    +0.000 C 
ENDBRANCH   8  11
ENDBRANCH   3   5
BRANCH   1  13
ATOM     13  C   UNL     1       3.765   3.842  17.475  0.00  0.00    +0.000 C 
BRANCH  13  17
ATOM     14  C   UNL     1       7.023   4.967  14.848  0.00  0.00    +0.000 A 
ATOM     15  C   UNL     1       7.142   5.066  16.235  0.00  0.00    +0.000 A 
ATOM     16  C   UNL     1       6.080   4.709  17.067  0.00  0.00    +0.000 A 
ATOM     17  C   UNL     1       4.865   4.265  16.527  0.00  0.00    +0.000 A 
ATOM     18  C   UNL     1       4.756   4.150  15.135  0.00  0.00    +0.000 A 
ATOM     19  C   UNL     1       5.825   4.509  14.301  0.00  0.00    +0.000 A 
BRANCH  14  21
ATOM     20  C   UNL     1       7.983   5.461  12.736  0.00  0.00    +0.000 C 
ATOM     21  O   UNL     1       8.127   5.369  14.147  0.00  0.00    +0.000 OA
ENDBRANCH  14  21
ENDBRANCH  13  17
ENDBRANCH   1  13
TORSDOF 5
ENDMDL
MODEL 6
REMARK VINA RESULT:      -6.2      1.601      7.620
REMARK  Name = 
REMARK  7 active torsions:
REMARK  status: ('A' for Active; 'I' for Inactive)
REMARK    1  A    between atoms: C_1  and  O_2
REMARK    2  A    between atoms: O_2  and  C_3
REMARK    3  A    between atoms: C_6  and  C_7
REMARK    4  A    between atoms: C_7  and  C_8
REMARK    5  A    between atoms: N_10  and  C_11
REMARK    6  A    between atoms: C_14  and  O_15
REMARK    7  A    between atoms: O_15  and  C_16
REMARK                            x       y       z     vdW  Elec       q    Type
REMARK                         _______ _______ _______ _____ _____    ______ ____
ROOT
ATOM      1  C   UNL     1       2.938   5.796  18.479  0.00  0.00    +0.000 C 
ATOM      2  O   UNL     1       2.175   5.185  17.738  0.00  0.00    +0.000 OA
ATOM      3  N   UNL     1       4.297   5.950  18.254  0.00  0.00    +0.000 N 
ATOM      4  H   UNL     1       4.879   6.120  19.066  0.00  0.00    +0.000 HD
ENDROOT
BRANCH   3   5
ATOM      5  C   UNL     1       4.931   5.499  17.077  0.00  0.00    +0.000 A 
ATOM      6  C   UNL     1       5.319   4.165  16.986  0.00  0.00    +0.000 A 
ATOM      7  C   UNL     1       5.887   3.699  15.800  0.00  0.00    +0.000 A 
ATOM      8  C   UNL     1       6.106   4.598  14.768  0.00  0.00    +0.000 A 
ATOM      9  N   UNL     1       5.790   5.906  14.839  0.00  0.00    +0.000 NA
ATOM     10  C   UNL     1       5.195   6.323  15.984  0.00  0.00    +0.000 A 
BRANCH   8  11
ATOM     11  O   UNL     1       6.674   4.086  13.619  0.00  0.00    +0.000 OA
ATOM     12  C   UNL     1       5.714   3.527  12.728  0.00  0.00    +0.000 C 
ENDBRANCH   8  11
ENDBRANCH   3   5
BRANCH   1  13
ATOM     13  C   UNL     1       2.443   6.443  19.755  0.00  0.00    +0.000 C 
BRANCH  13  17
ATOM     14  C   UNL     1       0.828  10.432  19.246  0.00  0.00    +0.000 A 
ATOM     15  C   UNL     1       1.488   9.779  18.205  0.00  0.00    +0.000 A 
ATOM     16  C   UNL     1       2.012   8.497  18.387  0.00  0.00    +0.000 A 
ATOM     17  C   UNL     1       1.904   7.851  19.626  0.00  0.00    +0.000 A 
ATOM     18  C   UNL     1       1.225   8.502  20.663  0.00  0.00    +0.000 A 
ATOM     19  C   UNL     1       0.700   9.790  20.476  0.00  0.00    +0.000 A 
BRANCH  14  21
ATOM     20  C   UNL     1       0.129  12.554  20.042  0.00  0.00    +0.000 C 
ATOM     21  O   UNL     1       0.383  11.690  18.943  0.00  0.00    +0.000 OA
ENDBRANCH  14  21
ENDBRANCH  13  17
ENDBRANCH   1  13
TORSDOF 5
ENDMDL
MODEL 7
REMARK VINA RESULT:      -6.2      6.689      8.704
REMARK  Name = 
REMARK  7 active torsions:
REMARK  status: ('A' for Active; 'I' for Inactive)
REMARK    1  A    between atoms: C_1  and  O_2
REMARK    2  A    between atoms: O_2  and  C_3
REMARK    3  A    between atoms: C_6  and  C_7
REMARK    4  A    between atoms: C_7  and  C_8
REMARK    5  A    between atoms: N_10  and  C_11
REMARK    6  A    between atoms: C_14  and  O_15
REMARK    7  A    between atoms: O_15  and  C_16
REMARK                            x       y       z     vdW  Elec       q    Type
REMARK                         _______ _______ _______ _____ _____    ______ ____
ROOT
ATOM      1  C   UNL     1       8.603   9.276  18.632  0.00  0.00    +0.000 C 
ATOM      2  O   UNL     1       7.915   9.674  17.698  0.00  0.00    +0.000 OA
ATOM      3  N   UNL     1       8.656   7.960  19.065  0.00  0.00    +0.000 N 
ATOM      4  H   UNL     1       8.929   7.805  20.028  0.00  0.00    +0.000 HD
ENDROOT
BRANCH   3   5
ATOM      5  C   UNL     1       7.990   6.910  18.396  0.00  0.00    +0.000 A 
ATOM      6  C   UNL     1       7.397   7.163  17.163  0.00  0.00    +0.000 A 
ATOM      7  C   UNL     1       6.793   6.114  16.468  0.00  0.00    +0.000 A 
ATOM      8  C   UNL     1       6.748   4.862  17.060  0.00  0.00    +0.000 A 
ATOM      9  N   UNL     1       7.267   4.592  18.274  0.00  0.00    +0.000 NA
ATOM     10  C   UNL     1       7.890   5.617  18.907  0.00  0.00    +0.000 A 
BRANCH   8  11
ATOM     11  O   UNL     1       6.136   3.861  16.333  0.00  0.00    +0.000 OA
ATOM     12  C   UNL     1       6.247   4.053  14.925  0.00  0.00    +0.000 C 
ENDBRANCH   8  11
ENDBRANCH   3   5
BRANCH   1  13
ATOM     13  C   UNL     1       9.472  10.225  19.429  0.00  0.00    +0.000 C 
BRANCH  13  17
ATOM     14  C   UNL     1      10.520  14.025  17.627  0.00  0.00    +0.000 A 
ATOM     15  C   UNL     1       9.446  13.913  18.512  0.00  0.00    +0.000 A 
ATOM     16  C   UNL     1       9.115  12.680  19.076  0.00  0.00    +0.000 A 
ATOM     17  C   UNL     1       9.840  11.526  18.750  0.00  0.00    +0.000 A 
ATOM     18  C   UNL     1      10.928  11.645  17.876  0.00  0.00    +0.000 A 
ATOM     19  C   UNL     1      11.258  12.886  17.310  0.00  0.00    +0.000 A 
BRANCH  14  21
ATOM     20  C   UNL     1      12.063  15.758  17.136  0.00  0.00    +0.000 C 
ATOM     21  O   UNL     1      10.723  15.283  17.129  0.00  0.00    +0.000 OA
ENDBRANCH  14  21
ENDBRANCH  13  17
ENDBRANCH   1  13
TORSDOF 5
ENDMDL
MODEL 8
REMARK VINA RESULT:      -6.1      1.329      1.924
REMARK  Name = 
REMARK  7 active torsions:
REMARK  status: ('A' for Active; 'I' for Inactive)
REMARK    1  A    between atoms: C_1  and  O_2
REMARK    2  A    between atoms: O_2  and  C_3
REMARK    3  A    between atoms: C_6  and  C_7
REMARK    4  A    between atoms: C_7  and  C_8
REMARK    5  A    between atoms: N_10  and  C_11
REMARK    6  A    between atoms: C_14  and  O_15
REMARK    7  A    between atoms: O_15  and  C_16
REMARK                            x       y       z     vdW  Elec       q    Type
REMARK                         _______ _______ _______ _____ _____    ______ ____
ROOT
ATOM      1  C   UNL     1       2.502   5.390  20.013  0.00  0.00    +0.000 C 
ATOM      2  O   UNL     1       1.355   5.116  20.352  0.00  0.00    +0.000 OA
ATOM      3  N   UNL     1       2.923   6.647  19.606  0.00  0.00    +0.000 N 
ATOM      4  H   UNL     1       3.740   6.686  19.008  0.00  0.00    +0.000 HD
ENDROOT
BRANCH   3   5
ATOM      5  C   UNL     1       2.082   7.781  19.639  0.00  0.00    +0.000 A 
ATOM      6  C   UNL     1       1.840   8.478  18.459  0.00  0.00    +0.000 A 
ATOM      7  C   UNL     1       0.959   9.560  18.475  0.00  0.00    +0.000 A 
ATOM      8  C   UNL     1       0.400   9.946  19.682  0.00  0.00    +0.000 A 
ATOM      9  N   UNL     1       0.650   9.326  20.852  0.00  0.00    +0.000 NA
ATOM     10  C   UNL     1       1.471   8.248  20.802  0.00  0.00    +0.000 A 
BRANCH   8  11
ATOM     11  O   UNL     1      -0.462  11.024  19.642  0.00  0.00    +0.000 OA
ATOM     12  C   UNL     1      -0.011  12.123  20.429  0.00  0.00    +0.000 C 
ENDBRANCH   8  11
ENDBRANCH   3   5
BRANCH   1  13
ATOM     13  C   UNL     1       3.589   4.338  19.997  0.00  0.00    +0.000 C 
BRANCH  13  17
ATOM     14  C   UNL     1       6.460   4.403  16.751  0.00  0.00    +0.000 A 
ATOM     15  C   UNL     1       6.820   4.779  18.046  0.00  0.00    +0.000 A 
ATOM     16  C   UNL     1       5.881   4.762  19.079  0.00  0.00    +0.000 A 
ATOM     17  C   UNL     1       4.553   4.388  18.832  0.00  0.00    +0.000 A 
ATOM     18  C   UNL     1       4.200   3.994  17.536  0.00  0.00    +0.000 A 
ATOM     19  C   UNL     1       5.145   4.012  16.499  0.00  0.00    +0.000 A 
BRANCH  14  21
ATOM     20  C   UNL     1       7.082   4.800  14.497  0.00  0.00    +0.000 C 
ATOM     21  O   UNL     1       7.467   4.485  15.828  0.00  0.00    +0.000 OA
ENDBRANCH  14  21
ENDBRANCH  13  17
ENDBRANCH   1  13
TORSDOF 5
ENDMDL
MODEL 9
REMARK VINA RESULT:      -6.1      1.569      2.052
REMARK  Name = 
REMARK  7 active torsions:
REMARK  status: ('A' for Active; 'I' for Inactive)
REMARK    1  A    between atoms: C_1  and  O_2
REMARK    2  A    between atoms: O_2  and  C_3
REMARK    3  A    between atoms: C_6  and  C_7
REMARK    4  A    between atoms: C_7  and  C_8
REMARK    5  A    between atoms: N_10  and  C_11
REMARK    6  A    between atoms: C_14  and  O_15
REMARK    7  A    between atoms: O_15  and  C_16
REMARK                            x       y       z     vdW  Elec       q    Type
REMARK                         _______ _______ _______ _____ _____    ______ ____
ROOT
ATOM      1  C   UNL     1       2.461   5.331  19.982  0.00  0.00    +0.000 C 
ATOM      2  O   UNL     1       1.309   4.970  20.205  0.00  0.00    +0.000 OA
ATOM      3  N   UNL     1       2.854   6.651  19.822  0.00  0.00    +0.000 N 
ATOM      4  H   UNL     1       3.697   6.816  19.285  0.00  0.00    +0.000 HD
ENDROOT
BRANCH   3   5
ATOM      5  C   UNL     1       1.971   7.737  20.006  0.00  0.00    +0.000 A 
ATOM      6  C   UNL     1       1.438   7.969  21.270  0.00  0.00    +0.000 A 
ATOM      7  C   UNL     1       0.616   9.078  21.471  0.00  0.00    +0.000 A 
ATOM      8  C   UNL     1       0.304   9.882  20.385  0.00  0.00    +0.000 A 
ATOM      9  N   UNL     1       0.762   9.659  19.137  0.00  0.00    +0.000 NA
ATOM     10  C   UNL     1       1.597   8.603  18.979  0.00  0.00    +0.000 A 
BRANCH   8  11
ATOM     11  O   UNL     1      -0.515  10.963  20.638  0.00  0.00    +0.000 OA
ATOM     12  C   UNL     1      -0.717  11.192  22.029  0.00  0.00    +0.000 C 
ENDBRANCH   8  11
ENDBRANCH   3   5
BRANCH   1  13
ATOM     13  C   UNL     1       3.585   4.328  19.843  0.00  0.00    +0.000 C 
BRANCH  13  17
ATOM     14  C   UNL     1       6.506   5.328  16.802  0.00  0.00    +0.000 A 
ATOM     15  C   UNL     1       5.248   4.827  16.463  0.00  0.00    +0.000 A 
ATOM     16  C   UNL     1       4.322   4.500  17.455  0.00  0.00    +0.000 A 
ATOM     17  C   UNL     1       4.644   4.648  18.811  0.00  0.00    +0.000 A 
ATOM     18  C   UNL     1       5.900   5.168  19.147  0.00  0.00    +0.000 A 
ATOM     19  C   UNL     1       6.829   5.496  18.148  0.00  0.00    +0.000 A 
BRANCH  14  21
ATOM     20  C   UNL     1       7.031   4.901  14.529  0.00  0.00    +0.000 C 
ATOM     21  O   UNL     1       7.326   5.587  15.738  0.00  0.00    +0.000 OA
ENDBRANCH  14  21
ENDBRANCH  13  17
ENDBRANCH   1  13
TORSDOF 5
ENDMDL
