MODEL 1
REMARK VINA RESULT:      -4.9      0.000      0.000
REMARK  Name = 
REMARK  10 active torsions:
REMARK  status: ('A' for Active; 'I' for Inactive)
REMARK    1  A    between atoms: C_1  and  C_2
REMARK    2  A    between atoms: C_2  and  C_3
REMARK    3  A    between atoms: C_3  and  C_4
REMARK    4  A    between atoms: C_4  and  O_5
REMARK    5  A    between atoms: C_4  and  C_6
REMARK    6  A    between atoms: C_4  and  C_9
REMARK    7  A    between atoms: C_6  and  C_7
REMARK    8  A    between atoms: C_7  and  O_8
REMARK    9  A    between atoms: C_9  and  C_10
REMARK   10  A    between atoms: C_10  and  O_12
REMARK                            x       y       z     vdW  Elec       q    Type
REMARK                         _______ _______ _______ _____ _____    ______ ____
ROOT
ATOM      1  C   UNL     1       5.614   4.915  16.789  0.00  0.00    +0.000 C 
ENDROOT
BRANCH   1   2
ATOM      2  O   UNL     1       6.722   3.989  16.818  0.00  0.00    +0.000 OA
ATOM      3  H   UNL     1       6.581   3.378  17.566  0.00  0.00    +0.000 HD
ENDBRANCH   1   2
BRANCH   1   4
ATOM      4  C   UNL     1       5.996   6.150  17.652  0.00  0.00    +0.000 C 
BRANCH   4   6
ATOM      5  C   UNL     1       7.826   5.818  19.360  0.00  0.00    +0.000 C 
ATOM      6  C   UNL     1       7.491   6.314  17.959  0.00  0.00    +0.000 C 
ENDBRANCH   4   6
ENDBRANCH   1   4
BRANCH   1   7
ATOM      7  C   UNL     1       4.368   4.179  17.343  0.00  0.00    +0.000 C 
BRANCH   7   8
ATOM      8  C   UNL     1       4.339   3.988  18.860  0.00  0.00    +0.000 C 
BRANCH   8   9
ATOM      9  O   UNL     1       5.329   3.056  19.275  0.00  0.00    +0.000 OA
ATOM     10  H   UNL     1       5.606   3.314  20.177  0.00  0.00    +0.000 HD
ENDBRANCH   8   9
ENDBRANCH   7   8
ENDBRANCH   1   7
BRANCH   1  11
ATOM     11  C   UNL     1       5.497   5.337  15.306  0.00  0.00    +0.000 C 
BRANCH  11  12
ATOM     12  C   UNL     1       6.545   4.754  14.392  0.00  0.00    +0.000 C 
ATOM     13  O   UNL     1       6.407   3.748  13.713  0.00  0.00    +0.000 OA
BRANCH  12  14
ATOM     14  O   UNL     1       7.717   5.431  14.426  0.00  0.00    +0.000 OA
ATOM     15  H   UNL     1       7.623   6.405  14.451  0.00  0.00    +0.000 HD
ENDBRANCH  12  14
ENDBRANCH  11  12
ENDBRANCH   1  11
TORSDOF 9
ENDMDL
MODEL 2
REMARK VINA RESULT:      -4.9      1.898      2.743
REMARK  Name = 
REMARK  10 active torsions:
REMARK  status: ('A' for Active; 'I' for Inactive)
REMARK    1  A    between atoms: C_1  and  C_2
REMARK    2  A    between atoms: C_2  and  C_3
REMARK    3  A    between atoms: C_3  and  C_4
REMARK    4  A    between atoms: C_4  and  O_5
REMARK    5  A    between atoms: C_4  and  C_6
REMARK    6  A    between atoms: C_4  and  C_9
REMARK    7  A    between atoms: C_6  and  C_7
REMARK    8  A    between atoms: C_7  and  O_8
REMARK    9  A    between atoms: C_9  and  C_10
REMARK   10  A    between atoms: C_10  and  O_12
REMARK                            x       y       z     vdW  Elec       q    Type
REMARK                         _______ _______ _______ _____ _____    ______ ____
ROOT
ATOM      1  C   UNL     1       4.894   4.155  17.468  0.00  0.00    +0.000 C 
ENDROOT
BRANCH   1   2
ATOM      2  O   UNL     1       5.655   3.677  18.598  0.00  0.00    +0.000 OA
ATOM      3  H   UNL     1       6.443   3.215  18.253  0.00  0.00    +0.000 HD
ENDBRANCH   1   2
BRANCH   1   4
ATOM      4  C   UNL     1       4.568   5.656  17.708  0.00  0.00    +0.000 C 
BRANCH   4   6
ATOM      5  C   UNL     1       2.888   6.167  19.521  0.00  0.00    +0.000 C 
ATOM      6  C   UNL     1       3.102   5.978  18.025  0.00  0.00    +0.000 C 
ENDBRANCH   4   6
ENDBRANCH   1   4
BRANCH   1   7
ATOM      7  C   UNL     1       3.613   3.290  17.359  0.00  0.00    +0.000 C 
BRANCH   7   8
ATOM      8  C   UNL     1       3.405   2.281  18.489  0.00  0.00    +0.000 C 
BRANCH   8   9
ATOM      9  O   UNL     1       4.159   1.098  18.262  0.00  0.00    +0.000 OA
ATOM     10  H   UNL     1       3.648   0.546  17.638  0.00  0.00    +0.000 HD
ENDBRANCH   8   9
ENDBRANCH   7   8
ENDBRANCH   1   7
BRANCH   1  11
ATOM     11  C   UNL     1       5.857   4.021  16.265  0.00  0.00    +0.000 C 
BRANCH  11  12
ATOM     12  C   UNL     1       7.163   4.761  16.408  0.00  0.00    +0.000 C 
ATOM     13  O   UNL     1       7.454   5.796  15.827  0.00  0.00    +0.000 OA
BRANCH  12  14
ATOM     14  O   UNL     1       8.044   4.133  17.221  0.00  0.00    +0.000 OA
ATOM     15  H   UNL     1       8.406   4.693  17.938  0.00  0.00    +0.000 HD
ENDBRANCH  12  14
ENDBRANCH  11  12
ENDBRANCH   1  11
TORSDOF 9
ENDMDL
MODEL 3
REMARK VINA RESULT:      -4.8      1.209      2.061
REMARK  Name = 
REMARK  10 active torsions:
REMARK  status: ('A' for Active; 'I' for Inactive)
REMARK    1  A    between atoms: C_1  and  C_2
REMARK    2  A    between atoms: C_2  and  C_3
REMARK    3  A    between atoms: C_3  and  C_4
REMARK    4  A    between atoms: C_4  and  O_5
REMARK    5  A    between atoms: C_4  and  C_6
REMARK    6  A    between atoms: C_4  and  C_9
REMARK    7  A    between atoms: C_6  and  C_7
REMARK    8  A    between atoms: C_7  and  O_8
REMARK    9  A    between atoms: C_9  and  C_10
REMARK   10  A    between atoms: C_10  and  O_12
REMARK                            x       y       z     vdW  Elec       q    Type
REMARK                         _______ _______ _______ _____ _____    ______ ____
ROOT
ATOM      1  C   UNL     1       5.341   4.650  16.975  0.00  0.00    +0.000 C 
ENDROOT
BRANCH   1   2
ATOM      2  O   UNL     1       6.652   4.093  17.216  0.00  0.00    +0.000 OA
ATOM      3  H   UNL     1       7.125   4.696  17.822  0.00  0.00    +0.000 HD
ENDBRANCH   1   2
BRANCH   1   4
ATOM      4  C   UNL     1       5.176   5.902  17.880  0.00  0.00    +0.000 C 
BRANCH   4   6
ATOM      5  C   UNL     1       2.951   7.059  18.167  0.00  0.00    +0.000 C 
ATOM      6  C   UNL     1       4.234   6.990  17.348  0.00  0.00    +0.000 C 
ENDBRANCH   4   6
ENDBRANCH   1   4
BRANCH   1   7
ATOM      7  C   UNL     1       4.294   3.554  17.298  0.00  0.00    +0.000 C 
BRANCH   7   8
ATOM      8  C   UNL     1       4.046   3.303  18.786  0.00  0.00    +0.000 C 
BRANCH   8   9
ATOM      9  O   UNL     1       5.180   2.703  19.399  0.00  0.00    +0.000 OA
ATOM     10  H   UNL     1       5.214   1.775  19.094  0.00  0.00    +0.000 HD
ENDBRANCH   8   9
ENDBRANCH   7   8
ENDBRANCH   1   7
BRANCH   1  11
ATOM     11  C   UNL     1       5.370   5.084  15.491  0.00  0.00    +0.000 C 
BRANCH  11  12
ATOM     12  C   UNL     1       6.594   4.653  14.723  0.00  0.00    +0.000 C 
ATOM     13  O   UNL     1       7.620   5.306  14.608  0.00  0.00    +0.000 OA
BRANCH  12  14
ATOM     14  O   UNL     1       6.440   3.461  14.101  0.00  0.00    +0.000 OA
ATOM     15  H   UNL     1       5.673   2.937  14.411  0.00  0.00    +0.000 HD
ENDBRANCH  12  14
ENDBRANCH  11  12
ENDBRANCH   1  11
TORSDOF 9
ENDMDL
MODEL 4
REMARK VINA RESULT:      -4.8      0.765      1.221
REMARK  Name = 
REMARK  10 active torsions:
REMARK  status: ('A' for Active; 'I' for Inactive)
REMARK    1  A    between atoms: C_1  and  C_2
REMARK    2  A    between atoms: C_2  and  C_3
REMARK    3  A    between atoms: C_3  and  C_4
REMARK    4  A    between atoms: C_4  and  O_5
REMARK    5  A    between atoms: C_4  and  C_6
REMARK    6  A    between atoms: C_4  and  C_9
REMARK    7  A    between atoms: C_6  and  C_7
REMARK    8  A    between atoms: C_7  and  O_8
REMARK    9  A    between atoms: C_9  and  C_10
REMARK   10  A    between atoms: C_10  and  O_12
REMARK                            x       y       z     vdW  Elec       q    Type
REMARK                         _______ _______ _______ _____ _____    ______ ____
ROOT
ATOM      1  C   UNL     1       5.871   4.458  16.607  0.00  0.00    +0.000 C 
ENDROOT
BRANCH   1   2
ATOM      2  O   UNL     1       5.747   3.061  16.265  0.00  0.00    +0.000 OA
ATOM      3  H   UNL     1       6.469   2.579  16.713  0.00  0.00    +0.000 HD
ENDBRANCH   1   2
BRANCH   1   4
ATOM      4  C   UNL     1       7.283   4.681  17.218  0.00  0.00    +0.000 C 
BRANCH   4   6
ATOM      5  C   UNL     1       7.854   5.753  19.431  0.00  0.00    +0.000 C 
ATOM      6  C   UNL     1       7.483   6.001  17.974  0.00  0.00    +0.000 C 
ENDBRANCH   4   6
ENDBRANCH   1   4
BRANCH   1   7
ATOM      7  C   UNL     1       4.741   4.802  17.610  0.00  0.00    +0.000 C 
BRANCH   7   8
ATOM      8  C   UNL     1       4.202   3.623  18.421  0.00  0.00    +0.000 C 
BRANCH   8   9
ATOM      9  O   UNL     1       5.214   3.070  19.253  0.00  0.00    +0.000 OA
ATOM     10  H   UNL     1       5.253   2.113  19.061  0.00  0.00    +0.000 HD
ENDBRANCH   8   9
ENDBRANCH   7   8
ENDBRANCH   1   7
BRANCH   1  11
ATOM     11  C   UNL     1       5.770   5.202  15.255  0.00  0.00    +0.000 C 
BRANCH  11  12
ATOM     12  C   UNL     1       6.785   4.785  14.220  0.00  0.00    +0.000 C 
ATOM     13  O   UNL     1       7.760   5.441  13.885  0.00  0.00    +0.000 OA
BRANCH  12  14
ATOM     14  O   UNL     1       6.488   3.604  13.629  0.00  0.00    +0.000 OA
ATOM     15  H   UNL     1       5.793   3.086  14.083  0.00  0.00    +0.000 HD
ENDBRANCH  12  14
ENDBRANCH  11  12
ENDBRANCH   1  11
TORSDOF 9
ENDMDL
MODEL 5
REMARK VINA RESULT:      -4.8      1.832      4.250
REMARK  Name = 
REMARK  10 active torsions:
REMARK  status: ('A' for Active; 'I' for Inactive)
REMARK    1  A    between atoms: C_1  and  C_2
REMARK    2  A    between atoms: C_2  and  C_3
REMARK    3  A    between atoms: C_3  and  C_4
REMARK    4  A    between atoms: C_4  and  O_5
REMARK    5  A    between atoms: C_4  and  C_6
REMARK    6  A    between atoms: C_4  and  C_9
REMARK    7  A    between atoms: C_6  and  C_7
REMARK    8  A    between atoms: C_7  and  O_8
REMARK    9  A    between atoms: C_9  and  C_10
REMARK   10  A    between atoms: C_10  and  O_12
REMARK                            x       y       z     vdW  Elec       q    Type
REMARK                         _______ _______ _______ _____ _____    ______ ____
ROOT
ATOM      1  C   UNL     1       4.589   4.525  18.662  0.00  0.00    +0.000 C 
ENDROOT
BRANCH   1   2
ATOM      2  O   UNL     1       5.235   3.346  19.188  0.00  0.00    +0.000 OA
ATOM      3  H   UNL     1       6.161   3.350  18.877  0.00  0.00    +0.000 HD
ENDBRANCH   1   2
BRANCH   1   4
ATOM      4  C   UNL     1       3.516   4.984  19.688  0.00  0.00    +0.000 C 
BRANCH   4   6
ATOM      5  C   UNL     1       1.249   3.987  20.179  0.00  0.00    +0.000 C 
ATOM      6  C   UNL     1       2.057   4.861  19.228  0.00  0.00    +0.000 C 
ENDBRANCH   4   6
ENDBRANCH   1   4
BRANCH   1   7
ATOM      7  C   UNL     1       3.966   4.153  17.293  0.00  0.00    +0.000 C 
BRANCH   7   8
ATOM      8  C   UNL     1       4.913   4.242  16.095  0.00  0.00    +0.000 C 
BRANCH   8   9
ATOM      9  O   UNL     1       5.878   3.198  16.128  0.00  0.00    +0.000 OA
ATOM     10  H   UNL     1       6.730   3.585  15.850  0.00  0.00    +0.000 HD
ENDBRANCH   8   9
ENDBRANCH   7   8
ENDBRANCH   1   7
BRANCH   1  11
ATOM     11  C   UNL     1       5.714   5.584  18.583  0.00  0.00    +0.000 C 
BRANCH  11  12
ATOM     12  C   UNL     1       7.067   5.114  19.055  0.00  0.00    +0.000 C 
ATOM     13  O   UNL     1       7.579   5.405  20.126  0.00  0.00    +0.000 OA
BRANCH  12  14
ATOM     14  O   UNL     1       7.718   4.359  18.140  0.00  0.00    +0.000 OA
ATOM     15  H   UNL     1       8.487   3.866  18.493  0.00  0.00    +0.000 HD
ENDBRANCH  12  14
ENDBRANCH  11  12
ENDBRANCH   1  11
TORSDOF 9
ENDMDL
MODEL 6
REMARK VINA RESULT:      -4.8      1.626      4.274
REMARK  Name = 
REMARK  10 active torsions:
REMARK  status: ('A' for Active; 'I' for Inactive)
REMARK    1  A    between atoms: C_1  and  C_2
REMARK    2  A    between atoms: C_2  and  C_3
REMARK    3  A    between atoms: C_3  and  C_4
REMARK    4  A    between atoms: C_4  and  O_5
REMARK    5  A    between atoms: C_4  and  C_6
REMARK    6  A    between atoms: C_4  and  C_9
REMARK    7  A    between atoms: C_6  and  C_7
REMARK    8  A    between atoms: C_7  and  O_8
REMARK    9  A    between atoms: C_9  and  C_10
REMARK   10  A    between atoms: C_10  and  O_12
REMARK                            x       y       z     vdW  Elec       q    Type
REMARK                         _______ _______ _______ _____ _____    ______ ____
ROOT
ATOM      1  C   UNL     1       5.370   4.668  17.201  0.00  0.00    +0.000 C 
ENDROOT
BRANCH   1   2
ATOM      2  O   UNL     1       6.555   3.845  17.250  0.00  0.00    +0.000 OA
ATOM      3  H   UNL     1       6.348   3.056  17.788  0.00  0.00    +0.000 HD
ENDBRANCH   1   2
BRANCH   1   4
ATOM      4  C   UNL     1       4.139   3.756  17.461  0.00  0.00    +0.000 C 
BRANCH   4   6
ATOM      5  C   UNL     1       1.703   4.378  17.692  0.00  0.00    +0.000 C 
ATOM      6  C   UNL     1       3.060   4.338  18.384  0.00  0.00    +0.000 C 
ENDBRANCH   4   6
ENDBRANCH   1   4
BRANCH   1   7
ATOM      7  C   UNL     1       5.315   5.337  15.804  0.00  0.00    +0.000 C 
BRANCH   7   8
ATOM      8  C   UNL     1       6.471   4.989  14.865  0.00  0.00    +0.000 C 
BRANCH   8   9
ATOM      9  O   UNL     1       7.671   5.636  15.271  0.00  0.00    +0.000 OA
ATOM     10  H   UNL     1       8.409   5.033  15.058  0.00  0.00    +0.000 HD
ENDBRANCH   8   9
ENDBRANCH   7   8
ENDBRANCH   1   7
BRANCH   1  11
ATOM     11  C   UNL     1       5.535   5.661  18.375  0.00  0.00    +0.000 C 
BRANCH  11  12
ATOM     12  C   UNL     1       6.932   5.760  18.935  0.00  0.00    +0.000 C 
ATOM     13  O   UNL     1       7.290   5.321  20.018  0.00  0.00    +0.000 OA
BRANCH  12  14
ATOM     14  O   UNL     1       7.778   6.449  18.135  0.00  0.00    +0.000 OA
ATOM     15  H   UNL     1       8.449   6.979  18.613  0.00  0.00    +0.000 HD
ENDBRANCH  12  14
ENDBRANCH  11  12
ENDBRANCH   1  11
TORSDOF 9
ENDMDL
MODEL 7
REMARK VINA RESULT:      -4.7      1.936      3.079
REMARK  Name = 
REMARK  10 active torsions:
REMARK  status: ('A' for Active; 'I' for Inactive)
REMARK    1  A    between atoms: C_1  and  C_2
REMARK    2  A    between atoms: C_2  and  C_3
REMARK    3  A    between atoms: C_3  and  C_4
REMARK    4  A    between atoms: C_4  and  O_5
REMARK    5  A    between atoms: C_4  and  C_6
REMARK    6  A    between atoms: C_4  and  C_9
REMARK    7  A    between atoms: C_6  and  C_7
REMARK    8  A    between atoms: C_7  and  O_8
REMARK    9  A    between atoms: C_9  and  C_10
REMARK   10  A    between atoms: C_10  and  O_12
REMARK                            x       y       z     vdW  Elec       q    Type
REMARK                         _______ _______ _______ _____ _____    ______ ____
ROOT
ATOM      1  C   UNL     1       4.813   4.011  17.818  0.00  0.00    +0.000 C 
ENDROOT
BRANCH   1   2
ATOM      2  O   UNL     1       5.561   3.460  18.923  0.00  0.00    +0.000 OA
ATOM      3  H   UNL     1       6.205   4.135  19.212  0.00  0.00    +0.000 HD
ENDBRANCH   1   2
BRANCH   1   4
ATOM      4  C   UNL     1       4.333   5.433  18.221  0.00  0.00    +0.000 C 
BRANCH   4   6
ATOM      5  C   UNL     1       2.331   5.776  19.720  0.00  0.00    +0.000 C 
ATOM      6  C   UNL     1       2.813   5.633  18.282  0.00  0.00    +0.000 C 
ENDBRANCH   4   6
ENDBRANCH   1   4
BRANCH   1   7
ATOM      7  C   UNL     1       3.627   3.056  17.527  0.00  0.00    +0.000 C 
BRANCH   7   8
ATOM      8  C   UNL     1       3.398   1.958  18.567  0.00  0.00    +0.000 C 
BRANCH   8   9
ATOM      9  O   UNL     1       4.275   0.860  18.351  0.00  0.00    +0.000 OA
ATOM     10  H   UNL     1       4.813   0.759  19.161  0.00  0.00    +0.000 HD
ENDBRANCH   8   9
ENDBRANCH   7   8
ENDBRANCH   1   7
BRANCH   1  11
ATOM     11  C   UNL     1       5.840   4.119  16.667  0.00  0.00    +0.000 C 
BRANCH  11  12
ATOM     12  C   UNL     1       7.147   4.773  17.037  0.00  0.00    +0.000 C 
ATOM     13  O   UNL     1       7.884   4.412  17.942  0.00  0.00    +0.000 OA
BRANCH  12  14
ATOM     14  O   UNL     1       7.423   5.869  16.292  0.00  0.00    +0.000 OA
ATOM     15  H   UNL     1       8.378   6.049  16.172  0.00  0.00    +0.000 HD
ENDBRANCH  12  14
ENDBRANCH  11  12
ENDBRANCH   1  11
TORSDOF 9
ENDMDL
MODEL 8
REMARK VINA RESULT:      -4.7      2.484      3.904
REMARK  Name = 
REMARK  10 active torsions:
REMARK  status: ('A' for Active; 'I' for Inactive)
REMARK    1  A    between atoms: C_1  and  C_2
REMARK    2  A    between atoms: C_2  and  C_3
REMARK    3  A    between atoms: C_3  and  C_4
REMARK    4  A    between atoms: C_4  and  O_5
REMARK    5  A    between atoms: C_4  and  C_6
REMARK    6  A    between atoms: C_4  and  C_9
REMARK    7  A    between atoms: C_6  and  C_7
REMARK    8  A    between atoms: C_7  and  O_8
REMARK    9  A    between atoms: C_9  and  C_10
REMARK   10  A    between atoms: C_10  and  O_12
REMARK                            x       y       z     vdW  Elec       q    Type
REMARK                         _______ _______ _______ _____ _____    ______ ____
ROOT
ATOM      1  C   UNL     1       4.585   3.907  18.701  0.00  0.00    +0.000 C 
ENDROOT
BRANCH   1   2
ATOM      2  O   UNL     1       5.384   3.023  19.515  0.00  0.00    +0.000 OA
ATOM      3  H   UNL     1       6.083   2.644  18.947  0.00  0.00    +0.000 HD
ENDBRANCH   1   2
BRANCH   1   4
ATOM      4  C   UNL     1       3.490   4.538  19.606  0.00  0.00    +0.000 C 
BRANCH   4   6
ATOM      5  C   UNL     1       2.258   6.308  18.294  0.00  0.00    +0.000 C 
ATOM      6  C   UNL     1       3.253   6.042  19.417  0.00  0.00    +0.000 C 
ENDBRANCH   4   6
ENDBRANCH   1   4
BRANCH   1   7
ATOM      7  C   UNL     1       3.976   3.068  17.548  0.00  0.00    +0.000 C 
BRANCH   7   8
ATOM      8  C   UNL     1       3.138   1.866  17.983  0.00  0.00    +0.000 C 
BRANCH   8   9
ATOM      9  O   UNL     1       3.968   0.768  18.341  0.00  0.00    +0.000 OA
ATOM     10  H   UNL     1       3.385  -0.007  18.457  0.00  0.00    +0.000 HD
ENDBRANCH   8   9
ENDBRANCH   7   8
ENDBRANCH   1   7
BRANCH   1  11
ATOM     11  C   UNL     1       5.569   5.006  18.237  0.00  0.00    +0.000 C 
BRANCH  11  12
ATOM     12  C   UNL     1       6.941   4.939  18.859  0.00  0.00    +0.000 C 
ATOM     13  O   UNL     1       7.258   5.451  19.922  0.00  0.00    +0.000 OA
BRANCH  12  14
ATOM     14  O   UNL     1       7.843   4.286  18.090  0.00  0.00    +0.000 OA
ATOM     15  H   UNL     1       7.498   3.480  17.655  0.00  0.00    +0.000 HD
ENDBRANCH  12  14
ENDBRANCH  11  12
ENDBRANCH   1  11
TORSDOF 9
ENDMDL
MODEL 9
REMARK VINA RESULT:      -4.7      1.819      2.612
REMARK  Name = 
REMARK  10 active torsions:
REMARK  status: ('A' for Active; 'I' for Inactive)
REMARK    1  A    between atoms: C_1  and  C_2
REMARK    2  A    between atoms: C_2  and  C_3
REMARK    3  A    between atoms: C_3  and  C_4
REMARK    4  A    between atoms: C_4  and  O_5
REMARK    5  A    between atoms: C_4  and  C_6
REMARK    6  A    between atoms: C_4  and  C_9
REMARK    7  A    between atoms: C_6  and  C_7
REMARK    8  A    between atoms: C_7  and  O_8
REMARK    9  A    between atoms: C_9  and  C_10
REMARK   10  A    between atoms: C_10  and  O_12
REMARK                            x       y       z     vdW  Elec       q    Type
REMARK                         _______ _______ _______ _____ _____    ______ ____
ROOT
ATOM      1  C   UNL     1       5.063   4.540  17.858  0.00  0.00    +0.000 C 
ENDROOT
BRANCH   1   2
ATOM      2  O   UNL     1       6.298   4.204  18.527  0.00  0.00    +0.000 OA
ATOM      3  H   UNL     1       6.099   3.516  19.192  0.00  0.00    +0.000 HD
ENDBRANCH   1   2
BRANCH   1   4
ATOM      4  C   UNL     1       4.364   5.664  18.673  0.00  0.00    +0.000 C 
BRANCH   4   6
ATOM      5  C   UNL     1       2.952   7.627  17.949  0.00  0.00    +0.000 C 
ATOM      6  C   UNL     1       2.996   6.117  18.147  0.00  0.00    +0.000 C 
ENDBRANCH   4   6
ENDBRANCH   1   4
BRANCH   1   7
ATOM      7  C   UNL     1       4.202   3.254  17.779  0.00  0.00    +0.000 C 
BRANCH   7   8
ATOM      8  C   UNL     1       3.862   2.609  19.123  0.00  0.00    +0.000 C 
BRANCH   8   9
ATOM      9  O   UNL     1       5.014   2.020  19.712  0.00  0.00    +0.000 OA
ATOM     10  H   UNL     1       5.793   2.468  19.329  0.00  0.00    +0.000 HD
ENDBRANCH   8   9
ENDBRANCH   7   8
ENDBRANCH   1   7
BRANCH   1  11
ATOM     11  C   UNL     1       5.504   5.096  16.483  0.00  0.00    +0.000 C 
BRANCH  11  12
ATOM     12  C   UNL     1       6.991   5.283  16.318  0.00  0.00    +0.000 C 
ATOM     13  O   UNL     1       7.780   4.407  15.993  0.00  0.00    +0.000 OA
BRANCH  12  14
ATOM     14  O   UNL     1       7.408   6.534  16.622  0.00  0.00    +0.000 OA
ATOM     15  H   UNL     1       7.731   6.643  17.539  0.00  0.00    +0.000 HD
ENDBRANCH  12  14
ENDBRANCH  11  12
ENDBRANCH   1  11
TORSDOF 9
ENDMDL
