MODEL 1
REMARK VINA RESULT:      -9.2      0.000      0.000
REMARK  Name = 
REMARK  10 active torsions:
REMARK  status: ('A' for Active; 'I' for Inactive)
REMARK    1  A    between atoms: C_1  and  O_2
REMARK    2  A    between atoms: O_2  and  C_3
REMARK    3  A    between atoms: C_6  and  C_7
REMARK    4  A    between atoms: C_13  and  C_14
REMARK    5  A    between atoms: C_18  and  O_19
REMARK    6  A    between atoms: O_19  and  C_20
REMARK    7  A    between atoms: C_20  and  C_21
REMARK    8  A    between atoms: C_20  and  C_22
REMARK    9  A    between atoms: C_27  and  O_28
REMARK   10  A    between atoms: O_28  and  C_29
REMARK                            x       y       z     vdW  Elec       q    Type
REMARK                         _______ _______ _______ _____ _____    ______ ____
ROOT
ATOM      1  C   UNL     1       4.421   4.003  18.320  0.00  0.00    +0.000 A 
ATOM      2  N   UNL     1       4.363   2.781  18.832  0.00  0.00    +0.000 NA
ATOM      3  N   UNL     1       3.501   2.776  19.895  0.00  0.00    +0.000 NA
ATOM      4  C   UNL     1       3.011   3.987  20.010  0.00  0.00    +0.000 A 
ATOM      5  C   UNL     1       2.095   4.553  20.933  0.00  0.00    +0.000 A 
ATOM      6  C   UNL     1       1.715   5.834  20.789  0.00  0.00    +0.000 A 
ATOM      7  C   UNL     1       2.206   6.670  19.690  0.00  0.00    +0.000 A 
ATOM      8  C   UNL     1       3.085   6.127  18.820  0.00  0.00    +0.000 A 
ATOM      9  N   UNL     1       3.510   4.804  18.999  0.00  0.00    +0.000 N 
ENDROOT
BRANCH   1  13
ATOM     10  C   UNL     1       7.012   5.011  15.042  0.00  0.00    +0.000 A 
ATOM     11  C   UNL     1       6.194   3.874  15.008  0.00  0.00    +0.000 A 
ATOM     12  C   UNL     1       5.340   3.575  16.072  0.00  0.00    +0.000 A 
ATOM     13  C   UNL     1       5.308   4.377  17.216  0.00  0.00    +0.000 A 
ATOM     14  C   UNL     1       6.196   5.456  17.282  0.00  0.00    +0.000 A 
ATOM     15  C   UNL     1       7.043   5.788  16.210  0.00  0.00    +0.000 A 
BRANCH  10  17
ATOM     16  C   UNL     1       7.377   4.900  12.700  0.00  0.00    +0.000 C 
ATOM     17  O   UNL     1       7.811   5.346  13.983  0.00  0.00    +0.000 OA
ENDBRANCH  10  17
BRANCH  15  18
ATOM     18  O   UNL     1       7.799   6.897  16.486  0.00  0.00    +0.000 OA
ATOM     19  C   UNL     1       7.606   7.574  17.717  0.00  0.00    +0.000 C 
ENDBRANCH  15  18
ENDBRANCH   1  13
BRANCH   7  20
ATOM     20  C   UNL     1       1.759   8.060  19.519  0.00  0.00    +0.000 A 
ATOM     21  C   UNL     1       1.928   8.709  18.288  0.00  0.00    +0.000 A 
ATOM     22  C   UNL     1       1.602  10.057  18.161  0.00  0.00    +0.000 A 
ATOM     23  C   UNL     1       1.139  10.769  19.269  0.00  0.00    +0.000 A 
ATOM     24  C   UNL     1       1.005  10.142  20.507  0.00  0.00    +0.000 A 
ATOM     25  C   UNL     1       1.272   8.776  20.622  0.00  0.00    +0.000 A 
BRANCH  24  26
ATOM     26  O   UNL     1       0.640  10.963  21.539  0.00  0.00    +0.000 OA
BRANCH  26  27
ATOM     27  C   UNL     1      -0.614  10.714  22.190  0.00  0.00    +0.000 C 
ATOM     28  C   UNL     1      -0.468   9.724  23.350  0.00  0.00    +0.000 C 
ATOM     29  C   UNL     1      -1.094  12.057  22.742  0.00  0.00    +0.000 C 
ENDBRANCH  26  27
ENDBRANCH  24  26
ENDBRANCH   7  20
TORSDOF 6
ENDMDL
MODEL 2
REMARK VINA RESULT:      -8.7      1.363      2.197
REMARK  Name = 
REMARK  10 active torsions:
REMARK  status: ('A' for Active; 'I' for Inactive)
REMARK    1  A    between atoms: C_1  and  O_2
REMARK    2  A    between atoms: O_2  and  C_3
REMARK    3  A    between atoms: C_6  and  C_7
REMARK    4  A    between atoms: C_13  and  C_14
REMARK    5  A    between atoms: C_18  and  O_19
REMARK    6  A    between atoms: O_19  and  C_20
REMARK    7  A    between atoms: C_20  and  C_21
REMARK    8  A    between atoms: C_20  and  C_22
REMARK    9  A    between atoms: C_27  and  O_28
REMARK   10  A    between atoms: O_28  and  C_29
REMARK                            x       y       z     vdW  Elec       q    Type
REMARK                         _______ _______ _______ _____ _____    ______ ____
ROOT
ATOM      1  C   UNL     1       3.971   3.450  17.850  0.00  0.00    +0.000 A 
ATOM      2  N   UNL     1       3.716   2.151  17.915  0.00  0.00    +0.000 NA
ATOM      3  N   UNL     1       2.755   1.926  18.863  0.00  0.00    +0.000 NA
ATOM      4  C   UNL     1       2.403   3.091  19.351  0.00  0.00    +0.000 A 
ATOM      5  C   UNL     1       1.470   3.452  20.356  0.00  0.00    +0.000 A 
ATOM      6  C   UNL     1       1.261   4.750  20.631  0.00  0.00    +0.000 A 
ATOM      7  C   UNL     1       1.958   5.818  19.909  0.00  0.00    +0.000 A 
ATOM      8  C   UNL     1       2.852   5.466  18.959  0.00  0.00    +0.000 A 
ATOM      9  N   UNL     1       3.096   4.110  18.706  0.00  0.00    +0.000 N 
ENDROOT
BRANCH   1  13
ATOM     10  C   UNL     1       6.987   5.083  15.259  0.00  0.00    +0.000 A 
ATOM     11  C   UNL     1       6.044   4.157  14.795  0.00  0.00    +0.000 A 
ATOM     12  C   UNL     1       5.055   3.655  15.644  0.00  0.00    +0.000 A 
ATOM     13  C   UNL     1       5.005   4.031  16.990  0.00  0.00    +0.000 A 
ATOM     14  C   UNL     1       6.007   4.881  17.468  0.00  0.00    +0.000 A 
ATOM     15  C   UNL     1       6.994   5.418  16.622  0.00  0.00    +0.000 A 
BRANCH  10  17
ATOM     16  C   UNL     1       7.857   5.226  13.055  0.00  0.00    +0.000 C 
ATOM     17  O   UNL     1       7.925   5.624  14.423  0.00  0.00    +0.000 OA
ENDBRANCH  10  17
BRANCH  15  18
ATOM     18  O   UNL     1       7.847   6.248  17.300  0.00  0.00    +0.000 OA
ATOM     19  C   UNL     1       7.484   7.605  17.489  0.00  0.00    +0.000 C 
ENDBRANCH  15  18
ENDBRANCH   1  13
BRANCH   7  20
ATOM     20  C   UNL     1       1.700   7.238  20.191  0.00  0.00    +0.000 A 
ATOM     21  C   UNL     1       1.212   7.630  21.446  0.00  0.00    +0.000 A 
ATOM     22  C   UNL     1       0.868   8.961  21.673  0.00  0.00    +0.000 A 
ATOM     23  C   UNL     1       0.978   9.895  20.642  0.00  0.00    +0.000 A 
ATOM     24  C   UNL     1       1.425   9.506  19.380  0.00  0.00    +0.000 A 
ATOM     25  C   UNL     1       1.830   8.186  19.167  0.00  0.00    +0.000 A 
BRANCH  24  26
ATOM     26  O   UNL     1       1.396  10.485  18.424  0.00  0.00    +0.000 OA
BRANCH  26  27
ATOM     27  C   UNL     1       1.397  11.853  18.857  0.00  0.00    +0.000 C 
ATOM     28  C   UNL     1       2.477  12.676  18.148  0.00  0.00    +0.000 C 
ATOM     29  C   UNL     1       0.024  12.424  18.500  0.00  0.00    +0.000 C 
ENDBRANCH  26  27
ENDBRANCH  24  26
ENDBRANCH   7  20
TORSDOF 6
ENDMDL
MODEL 3
REMARK VINA RESULT:      -8.6      1.354      2.166
REMARK  Name = 
REMARK  10 active torsions:
REMARK  status: ('A' for Active; 'I' for Inactive)
REMARK    1  A    between atoms: C_1  and  O_2
REMARK    2  A    between atoms: O_2  and  C_3
REMARK    3  A    between atoms: C_6  and  C_7
REMARK    4  A    between atoms: C_13  and  C_14
REMARK    5  A    between atoms: C_18  and  O_19
REMARK    6  A    between atoms: O_19  and  C_20
REMARK    7  A    between atoms: C_20  and  C_21
REMARK    8  A    between atoms: C_20  and  C_22
REMARK    9  A    between atoms: C_27  and  O_28
REMARK   10  A    between atoms: O_28  and  C_29
REMARK                            x       y       z     vdW  Elec       q    Type
REMARK                         _______ _______ _______ _____ _____    ______ ____
ROOT
ATOM      1  C   UNL     1       3.935   3.559  17.953  0.00  0.00    +0.000 A 
ATOM      2  N   UNL     1       3.683   2.263  18.070  0.00  0.00    +0.000 NA
ATOM      3  N   UNL     1       2.743   2.070  19.045  0.00  0.00    +0.000 NA
ATOM      4  C   UNL     1       2.400   3.250  19.500  0.00  0.00    +0.000 A 
ATOM      5  C   UNL     1       1.488   3.645  20.512  0.00  0.00    +0.000 A 
ATOM      6  C   UNL     1       1.282   4.953  20.746  0.00  0.00    +0.000 A 
ATOM      7  C   UNL     1       1.963   5.995  19.972  0.00  0.00    +0.000 A 
ATOM      8  C   UNL     1       2.836   5.611  19.016  0.00  0.00    +0.000 A 
ATOM      9  N   UNL     1       3.077   4.248  18.805  0.00  0.00    +0.000 N 
ENDROOT
BRANCH   1  13
ATOM     10  C   UNL     1       6.892   5.103  15.243  0.00  0.00    +0.000 A 
ATOM     11  C   UNL     1       5.946   4.154  14.834  0.00  0.00    +0.000 A 
ATOM     12  C   UNL     1       4.977   3.681  15.722  0.00  0.00    +0.000 A 
ATOM     13  C   UNL     1       4.949   4.110  17.052  0.00  0.00    +0.000 A 
ATOM     14  C   UNL     1       5.954   4.985  17.477  0.00  0.00    +0.000 A 
ATOM     15  C   UNL     1       6.921   5.493  16.591  0.00  0.00    +0.000 A 
BRANCH  10  17
ATOM     16  C   UNL     1       7.758   5.117  13.034  0.00  0.00    +0.000 C 
ATOM     17  O   UNL     1       7.811   5.616  14.369  0.00  0.00    +0.000 OA
ENDBRANCH  10  17
BRANCH  15  18
ATOM     18  O   UNL     1       7.782   6.355  17.219  0.00  0.00    +0.000 OA
ATOM     19  C   UNL     1       7.806   6.393  18.637  0.00  0.00    +0.000 C 
ENDBRANCH  15  18
ENDBRANCH   1  13
BRANCH   7  20
ATOM     20  C   UNL     1       1.708   7.423  20.211  0.00  0.00    +0.000 A 
ATOM     21  C   UNL     1       1.645   7.920  21.520  0.00  0.00    +0.000 A 
ATOM     22  C   UNL     1       1.298   9.251  21.744  0.00  0.00    +0.000 A 
ATOM     23  C   UNL     1       0.982  10.078  20.666  0.00  0.00    +0.000 A 
ATOM     24  C   UNL     1       1.003   9.583  19.363  0.00  0.00    +0.000 A 
ATOM     25  C   UNL     1       1.411   8.267  19.131  0.00  0.00    +0.000 A 
BRANCH  24  26
ATOM     26  O   UNL     1       0.578  10.457  18.400  0.00  0.00    +0.000 OA
BRANCH  26  27
ATOM     27  C   UNL     1      -0.765  10.957  18.486  0.00  0.00    +0.000 C 
ATOM     28  C   UNL     1      -0.843  12.447  18.137  0.00  0.00    +0.000 C 
ATOM     29  C   UNL     1      -1.591  10.166  17.471  0.00  0.00    +0.000 C 
ENDBRANCH  26  27
ENDBRANCH  24  26
ENDBRANCH   7  20
TORSDOF 6
ENDMDL
MODEL 4
REMARK VINA RESULT:      -8.0      4.399      6.321
REMARK  Name = 
REMARK  10 active torsions:
REMARK  status: ('A' for Active; 'I' for Inactive)
REMARK    1  A    between atoms: C_1  and  O_2
REMARK    2  A    between atoms: O_2  and  C_3
REMARK    3  A    between atoms: C_6  and  C_7
REMARK    4  A    between atoms: C_13  and  C_14
REMARK    5  A    between atoms: C_18  and  O_19
REMARK    6  A    between atoms: O_19  and  C_20
REMARK    7  A    between atoms: C_20  and  C_21
REMARK    8  A    between atoms: C_20  and  C_22
REMARK    9  A    between atoms: C_27  and  O_28
REMARK   10  A    between atoms: O_28  and  C_29
REMARK                            x       y       z     vdW  Elec       q    Type
REMARK                         _______ _______ _______ _____ _____    ______ ____
ROOT
ATOM      1  C   UNL     1       1.235   8.611  20.935  0.00  0.00    +0.000 A 
ATOM      2  N   UNL     1       1.637   8.998  22.138  0.00  0.00    +0.000 NA
ATOM      3  N   UNL     1       1.010  10.169  22.469  0.00  0.00    +0.000 NA
ATOM      4  C   UNL     1       0.204  10.477  21.482  0.00  0.00    +0.000 A 
ATOM      5  C   UNL     1      -0.671  11.575  21.282  0.00  0.00    +0.000 A 
ATOM      6  C   UNL     1      -1.439  11.619  20.181  0.00  0.00    +0.000 A 
ATOM      7  C   UNL     1      -1.418  10.552  19.177  0.00  0.00    +0.000 A 
ATOM      8  C   UNL     1      -0.576   9.513  19.370  0.00  0.00    +0.000 A 
ATOM      9  N   UNL     1       0.253   9.493  20.498  0.00  0.00    +0.000 N 
ENDROOT
BRANCH   1  13
ATOM     10  C   UNL     1       2.786   5.106  18.990  0.00  0.00    +0.000 A 
ATOM     11  C   UNL     1       2.142   5.031  20.232  0.00  0.00    +0.000 A 
ATOM     12  C   UNL     1       1.623   6.177  20.839  0.00  0.00    +0.000 A 
ATOM     13  C   UNL     1       1.767   7.434  20.244  0.00  0.00    +0.000 A 
ATOM     14  C   UNL     1       2.493   7.513  19.051  0.00  0.00    +0.000 A 
ATOM     15  C   UNL     1       2.999   6.367  18.412  0.00  0.00    +0.000 A 
BRANCH  10  17
ATOM     16  C   UNL     1       4.255   3.243  19.046  0.00  0.00    +0.000 C 
ATOM     17  O   UNL     1       3.249   3.984  18.359  0.00  0.00    +0.000 OA
ENDBRANCH  10  17
BRANCH  15  18
ATOM     18  O   UNL     1       3.646   6.681  17.245  0.00  0.00    +0.000 OA
ATOM     19  C   UNL     1       5.063   6.726  17.233  0.00  0.00    +0.000 C 
ENDBRANCH  15  18
ENDBRANCH   1  13
BRANCH   7  20
ATOM     20  C   UNL     1      -2.287  10.590  17.992  0.00  0.00    +0.000 A 
ATOM     21  C   UNL     1      -1.863  10.011  16.787  0.00  0.00    +0.000 A 
ATOM     22  C   UNL     1      -2.641  10.142  15.640  0.00  0.00    +0.000 A 
ATOM     23  C   UNL     1      -3.826  10.878  15.683  0.00  0.00    +0.000 A 
ATOM     24  C   UNL     1      -4.236  11.491  16.866  0.00  0.00    +0.000 A 
ATOM     25  C   UNL     1      -3.490  11.309  18.033  0.00  0.00    +0.000 A 
BRANCH  24  26
ATOM     26  O   UNL     1      -5.359  12.267  16.762  0.00  0.00    +0.000 OA
BRANCH  26  27
ATOM     27  C   UNL     1      -6.028  12.654  17.970  0.00  0.00    +0.000 C 
ATOM     28  C   UNL     1      -6.752  13.996  17.817  0.00  0.00    +0.000 C 
ATOM     29  C   UNL     1      -7.059  11.564  18.267  0.00  0.00    +0.000 C 
ENDBRANCH  26  27
ENDBRANCH  24  26
ENDBRANCH   7  20
TORSDOF 6
ENDMDL
MODEL 5
REMARK VINA RESULT:      -8.0      4.544      6.588
REMARK  Name = 
REMARK  10 active torsions:
REMARK  status: ('A' for Active; 'I' for Inactive)
REMARK    1  A    between atoms: C_1  and  O_2
REMARK    2  A    between atoms: O_2  and  C_3
REMARK    3  A    between atoms: C_6  and  C_7
REMARK    4  A    between atoms: C_13  and  C_14
REMARK    5  A    between atoms: C_18  and  O_19
REMARK    6  A    between atoms: O_19  and  C_20
REMARK    7  A    between atoms: C_20  and  C_21
REMARK    8  A    between atoms: C_20  and  C_22
REMARK    9  A    between atoms: C_27  and  O_28
REMARK   10  A    between atoms: O_28  and  C_29
REMARK                            x       y       z     vdW  Elec       q    Type
REMARK                         _______ _______ _______ _____ _____    ______ ____
ROOT
ATOM      1  C   UNL     1       1.168   8.634  20.917  0.00  0.00    +0.000 A 
ATOM      2  N   UNL     1       1.598   9.034  22.105  0.00  0.00    +0.000 NA
ATOM      3  N   UNL     1       1.004  10.226  22.424  0.00  0.00    +0.000 NA
ATOM      4  C   UNL     1       0.189  10.534  21.444  0.00  0.00    +0.000 A 
ATOM      5  C   UNL     1      -0.662  11.648  21.237  0.00  0.00    +0.000 A 
ATOM      6  C   UNL     1      -1.448  11.690  20.148  0.00  0.00    +0.000 A 
ATOM      7  C   UNL     1      -1.467  10.604  19.164  0.00  0.00    +0.000 A 
ATOM      8  C   UNL     1      -0.647   9.549  19.363  0.00  0.00    +0.000 A 
ATOM      9  N   UNL     1       0.200   9.531  20.479  0.00  0.00    +0.000 N 
ENDROOT
BRANCH   1  13
ATOM     10  C   UNL     1       2.631   5.163  18.847  0.00  0.00    +0.000 A 
ATOM     11  C   UNL     1       2.844   6.456  18.353  0.00  0.00    +0.000 A 
ATOM     12  C   UNL     1       2.382   7.574  19.051  0.00  0.00    +0.000 A 
ATOM     13  C   UNL     1       1.661   7.432  20.240  0.00  0.00    +0.000 A 
ATOM     14  C   UNL     1       1.371   6.136  20.677  0.00  0.00    +0.000 A 
ATOM     15  C   UNL     1       1.851   4.999  20.002  0.00  0.00    +0.000 A 
BRANCH  10  17
ATOM     16  C   UNL     1       4.281   4.274  17.392  0.00  0.00    +0.000 C 
ATOM     17  O   UNL     1       3.127   4.063  18.202  0.00  0.00    +0.000 OA
ENDBRANCH  10  17
BRANCH  15  18
ATOM     18  O   UNL     1       1.471   3.840  20.627  0.00  0.00    +0.000 OA
ATOM     19  C   UNL     1       2.330   3.267  21.598  0.00  0.00    +0.000 C 
ENDBRANCH  15  18
ENDBRANCH   1  13
BRANCH   7  20
ATOM     20  C   UNL     1      -2.354  10.640  17.992  0.00  0.00    +0.000 A 
ATOM     21  C   UNL     1      -1.901  10.174  16.750  0.00  0.00    +0.000 A 
ATOM     22  C   UNL     1      -2.705  10.308  15.620  0.00  0.00    +0.000 A 
ATOM     23  C   UNL     1      -3.947  10.936  15.721  0.00  0.00    +0.000 A 
ATOM     24  C   UNL     1      -4.390  11.438  16.944  0.00  0.00    +0.000 A 
ATOM     25  C   UNL     1      -3.613  11.249  18.090  0.00  0.00    +0.000 A 
BRANCH  24  26
ATOM     26  O   UNL     1      -5.575  12.120  16.899  0.00  0.00    +0.000 OA
BRANCH  26  27
ATOM     27  C   UNL     1      -6.057  12.719  18.111  0.00  0.00    +0.000 C 
ATOM     28  C   UNL     1      -6.672  14.100  17.860  0.00  0.00    +0.000 C 
ATOM     29  C   UNL     1      -7.138  11.786  18.659  0.00  0.00    +0.000 C 
ENDBRANCH  26  27
ENDBRANCH  24  26
ENDBRANCH   7  20
TORSDOF 6
ENDMDL
MODEL 6
REMARK VINA RESULT:      -7.9      1.806      8.422
REMARK  Name = 
REMARK  10 active torsions:
REMARK  status: ('A' for Active; 'I' for Inactive)
REMARK    1  A    between atoms: C_1  and  O_2
REMARK    2  A    between atoms: O_2  and  C_3
REMARK    3  A    between atoms: C_6  and  C_7
REMARK    4  A    between atoms: C_13  and  C_14
REMARK    5  A    between atoms: C_18  and  O_19
REMARK    6  A    between atoms: O_19  and  C_20
REMARK    7  A    between atoms: C_20  and  C_21
REMARK    8  A    between atoms: C_20  and  C_22
REMARK    9  A    between atoms: C_27  and  O_28
REMARK   10  A    between atoms: O_28  and  C_29
REMARK                            x       y       z     vdW  Elec       q    Type
REMARK                         _______ _______ _______ _____ _____    ______ ____
ROOT
ATOM      1  C   UNL     1       1.971   5.060  19.585  0.00  0.00    +0.000 A 
ATOM      2  N   UNL     1       1.317   4.226  20.380  0.00  0.00    +0.000 NA
ATOM      3  N   UNL     1       1.650   2.938  20.057  0.00  0.00    +0.000 NA
ATOM      4  C   UNL     1       2.531   2.990  19.087  0.00  0.00    +0.000 A 
ATOM      5  C   UNL     1       3.202   1.972  18.363  0.00  0.00    +0.000 A 
ATOM      6  C   UNL     1       4.114   2.310  17.435  0.00  0.00    +0.000 A 
ATOM      7  C   UNL     1       4.454   3.707  17.155  0.00  0.00    +0.000 A 
ATOM      8  C   UNL     1       3.805   4.671  17.843  0.00  0.00    +0.000 A 
ATOM      9  N   UNL     1       2.825   4.315  18.778  0.00  0.00    +0.000 N 
ENDROOT
BRANCH   1  13
ATOM     10  C   UNL     1       1.484   9.331  19.568  0.00  0.00    +0.000 A 
ATOM     11  C   UNL     1       1.870   8.632  18.417  0.00  0.00    +0.000 A 
ATOM     12  C   UNL     1       2.001   7.241  18.434  0.00  0.00    +0.000 A 
ATOM     13  C   UNL     1       1.789   6.513  19.609  0.00  0.00    +0.000 A 
ATOM     14  C   UNL     1       1.496   7.227  20.775  0.00  0.00    +0.000 A 
ATOM     15  C   UNL     1       1.334   8.624  20.771  0.00  0.00    +0.000 A 
BRANCH  10  17
ATOM     16  C   UNL     1       0.054  11.145  19.027  0.00  0.00    +0.000 C 
ATOM     17  O   UNL     1       1.298  10.686  19.550  0.00  0.00    +0.000 OA
ENDBRANCH  10  17
BRANCH  15  18
ATOM     18  O   UNL     1       1.019   9.102  22.016  0.00  0.00    +0.000 OA
ATOM     19  C   UNL     1      -0.345   9.216  22.386  0.00  0.00    +0.000 C 
ENDBRANCH  15  18
ENDBRANCH   1  13
BRANCH   7  20
ATOM     20  C   UNL     1       5.478   4.068  16.163  0.00  0.00    +0.000 A 
ATOM     21  C   UNL     1       6.469   5.007  16.481  0.00  0.00    +0.000 A 
ATOM     22  C   UNL     1       7.370   5.425  15.505  0.00  0.00    +0.000 A 
ATOM     23  C   UNL     1       7.265   4.933  14.203  0.00  0.00    +0.000 A 
ATOM     24  C   UNL     1       6.258   4.029  13.867  0.00  0.00    +0.000 A 
ATOM     25  C   UNL     1       5.392   3.561  14.859  0.00  0.00    +0.000 A 
BRANCH  24  26
ATOM     26  O   UNL     1       6.193   3.696  12.542  0.00  0.00    +0.000 OA
BRANCH  26  27
ATOM     27  C   UNL     1       5.205   2.739  12.133  0.00  0.00    +0.000 C 
ATOM     28  C   UNL     1       4.115   3.379  11.266  0.00  0.00    +0.000 C 
ATOM     29  C   UNL     1       5.937   1.681  11.308  0.00  0.00    +0.000 C 
ENDBRANCH  26  27
ENDBRANCH  24  26
ENDBRANCH   7  20
TORSDOF 6
ENDMDL
MODEL 7
REMARK VINA RESULT:      -7.8      4.735      8.967
REMARK  Name = 
REMARK  10 active torsions:
REMARK  status: ('A' for Active; 'I' for Inactive)
REMARK    1  A    between atoms: C_1  and  O_2
REMARK    2  A    between atoms: O_2  and  C_3
REMARK    3  A    between atoms: C_6  and  C_7
REMARK    4  A    between atoms: C_13  and  C_14
REMARK    5  A    between atoms: C_18  and  O_19
REMARK    6  A    between atoms: O_19  and  C_20
REMARK    7  A    between atoms: C_20  and  C_21
REMARK    8  A    between atoms: C_20  and  C_22
REMARK    9  A    between atoms: C_27  and  O_28
REMARK   10  A    between atoms: O_28  and  C_29
REMARK                            x       y       z     vdW  Elec       q    Type
REMARK                         _______ _______ _______ _____ _____    ______ ____
ROOT
ATOM      1  C   UNL     1      -1.557  11.029  19.647  0.00  0.00    +0.000 A 
ATOM      2  N   UNL     1      -1.847  11.935  20.570  0.00  0.00    +0.000 NA
ATOM      3  N   UNL     1      -1.051  11.737  21.665  0.00  0.00    +0.000 NA
ATOM      4  C   UNL     1      -0.255  10.730  21.397  0.00  0.00    +0.000 A 
ATOM      5  C   UNL     1       0.752  10.090  22.163  0.00  0.00    +0.000 A 
ATOM      6  C   UNL     1       1.469   9.095  21.616  0.00  0.00    +0.000 A 
ATOM      7  C   UNL     1       1.256   8.654  20.234  0.00  0.00    +0.000 A 
ATOM      8  C   UNL     1       0.289   9.262  19.513  0.00  0.00    +0.000 A 
ATOM      9  N   UNL     1      -0.483  10.271  20.102  0.00  0.00    +0.000 N 
ENDROOT
BRANCH   1  13
ATOM     10  C   UNL     1      -3.582  10.635  15.876  0.00  0.00    +0.000 A 
ATOM     11  C   UNL     1      -2.347  10.018  16.114  0.00  0.00    +0.000 A 
ATOM     12  C   UNL     1      -1.714  10.137  17.353  0.00  0.00    +0.000 A 
ATOM     13  C   UNL     1      -2.275  10.907  18.376  0.00  0.00    +0.000 A 
ATOM     14  C   UNL     1      -3.460  11.597  18.100  0.00  0.00    +0.000 A 
ATOM     15  C   UNL     1      -4.125  11.468  16.867  0.00  0.00    +0.000 A 
BRANCH  10  17
ATOM     16  C   UNL     1      -3.471   9.956  13.606  0.00  0.00    +0.000 C 
ATOM     17  O   UNL     1      -4.239  10.481  14.686  0.00  0.00    +0.000 OA
ENDBRANCH  10  17
BRANCH  15  18
ATOM     18  O   UNL     1      -5.279  12.207  16.834  0.00  0.00    +0.000 OA
ATOM     19  C   UNL     1      -6.351  11.851  17.691  0.00  0.00    +0.000 C 
ENDBRANCH  15  18
ENDBRANCH   1  13
BRANCH   7  20
ATOM     20  C   UNL     1       2.068   7.587  19.631  0.00  0.00    +0.000 A 
ATOM     21  C   UNL     1       2.777   7.825  18.445  0.00  0.00    +0.000 A 
ATOM     22  C   UNL     1       3.457   6.782  17.819  0.00  0.00    +0.000 A 
ATOM     23  C   UNL     1       3.405   5.496  18.357  0.00  0.00    +0.000 A 
ATOM     24  C   UNL     1       2.670   5.241  19.514  0.00  0.00    +0.000 A 
ATOM     25  C   UNL     1       2.039   6.296  20.177  0.00  0.00    +0.000 A 
BRANCH  24  26
ATOM     26  O   UNL     1       2.610   3.926  19.889  0.00  0.00    +0.000 OA
BRANCH  26  27
ATOM     27  C   UNL     1       1.329   3.377  20.226  0.00  0.00    +0.000 C 
ATOM     28  C   UNL     1       0.848   2.365  19.181  0.00  0.00    +0.000 C 
ATOM     29  C   UNL     1       1.499   2.662  21.567  0.00  0.00    +0.000 C 
ENDBRANCH  26  27
ENDBRANCH  24  26
ENDBRANCH   7  20
TORSDOF 6
ENDMDL
MODEL 8
REMARK VINA RESULT:      -7.6      4.543      8.957
REMARK  Name = 
REMARK  10 active torsions:
REMARK  status: ('A' for Active; 'I' for Inactive)
REMARK    1  A    between atoms: C_1  and  O_2
REMARK    2  A    between atoms: O_2  and  C_3
REMARK    3  A    between atoms: C_6  and  C_7
REMARK    4  A    between atoms: C_13  and  C_14
REMARK    5  A    between atoms: C_18  and  O_19
REMARK    6  A    between atoms: O_19  and  C_20
REMARK    7  A    between atoms: C_20  and  C_21
REMARK    8  A    between atoms: C_20  and  C_22
REMARK    9  A    between atoms: C_27  and  O_28
REMARK   10  A    between atoms: O_28  and  C_29
REMARK                            x       y       z     vdW  Elec       q    Type
REMARK                         _______ _______ _______ _____ _____    ______ ____
ROOT
ATOM      1  C   UNL     1       0.197  12.568  21.454  0.00  0.00    +0.000 A 
ATOM      2  N   UNL     1      -0.530  12.918  22.505  0.00  0.00    +0.000 NA
ATOM      3  N   UNL     1      -0.972  11.791  23.144  0.00  0.00    +0.000 NA
ATOM      4  C   UNL     1      -0.487  10.757  22.500  0.00  0.00    +0.000 A 
ATOM      5  C   UNL     1      -0.629   9.361  22.708  0.00  0.00    +0.000 A 
ATOM      6  C   UNL     1       0.033   8.502  21.914  0.00  0.00    +0.000 A 
ATOM      7  C   UNL     1       0.919   8.962  20.841  0.00  0.00    +0.000 A 
ATOM      8  C   UNL     1       1.042  10.293  20.644  0.00  0.00    +0.000 A 
ATOM      9  N   UNL     1       0.318  11.183  21.447  0.00  0.00    +0.000 N 
ENDROOT
BRANCH   1  13
ATOM     10  C   UNL     1       1.942  15.381  18.711  0.00  0.00    +0.000 A 
ATOM     11  C   UNL     1       2.734  14.569  19.533  0.00  0.00    +0.000 A 
ATOM     12  C   UNL     1       2.151  13.643  20.401  0.00  0.00    +0.000 A 
ATOM     13  C   UNL     1       0.762  13.530  20.503  0.00  0.00    +0.000 A 
ATOM     14  C   UNL     1      -0.023  14.409  19.750  0.00  0.00    +0.000 A 
ATOM     15  C   UNL     1       0.547  15.328  18.850  0.00  0.00    +0.000 A 
BRANCH  10  17
ATOM     16  C   UNL     1       3.909  16.132  17.616  0.00  0.00    +0.000 C 
ATOM     17  O   UNL     1       2.502  16.251  17.816  0.00  0.00    +0.000 OA
ENDBRANCH  10  17
BRANCH  15  18
ATOM     18  O   UNL     1      -0.411  16.061  18.200  0.00  0.00    +0.000 OA
ATOM     19  C   UNL     1      -0.786  17.324  18.723  0.00  0.00    +0.000 C 
ENDBRANCH  15  18
ENDBRANCH   1  13
BRANCH   7  20
ATOM     20  C   UNL     1       1.667   8.017  19.999  0.00  0.00    +0.000 A 
ATOM     21  C   UNL     1       2.085   8.395  18.715  0.00  0.00    +0.000 A 
ATOM     22  C   UNL     1       2.699   7.463  17.881  0.00  0.00    +0.000 A 
ATOM     23  C   UNL     1       2.866   6.147  18.312  0.00  0.00    +0.000 A 
ATOM     24  C   UNL     1       2.417   5.752  19.572  0.00  0.00    +0.000 A 
ATOM     25  C   UNL     1       1.858   6.698  20.434  0.00  0.00    +0.000 A 
BRANCH  24  26
ATOM     26  O   UNL     1       2.544   4.416  19.843  0.00  0.00    +0.000 OA
BRANCH  26  27
ATOM     27  C   UNL     1       1.426   3.737  20.432  0.00  0.00    +0.000 C 
ATOM     28  C   UNL     1       0.707   2.838  19.420  0.00  0.00    +0.000 C 
ATOM     29  C   UNL     1       1.988   2.867  21.558  0.00  0.00    +0.000 C 
ENDBRANCH  26  27
ENDBRANCH  24  26
ENDBRANCH   7  20
TORSDOF 6
ENDMDL
MODEL 9
REMARK VINA RESULT:      -7.6      1.617      8.322
REMARK  Name = 
REMARK  10 active torsions:
REMARK  status: ('A' for Active; 'I' for Inactive)
REMARK    1  A    between atoms: C_1  and  O_2
REMARK    2  A    between atoms: O_2  and  C_3
REMARK    3  A    between atoms: C_6  and  C_7
REMARK    4  A    between atoms: C_13  and  C_14
REMARK    5  A    between atoms: C_18  and  O_19
REMARK    6  A    between atoms: O_19  and  C_20
REMARK    7  A    between atoms: C_20  and  C_21
REMARK    8  A    between atoms: C_20  and  C_22
REMARK    9  A    between atoms: C_27  and  O_28
REMARK   10  A    between atoms: O_28  and  C_29
REMARK                            x       y       z     vdW  Elec       q    Type
REMARK                         _______ _______ _______ _____ _____    ______ ____
ROOT
ATOM      1  C   UNL     1       2.056   6.319  20.119  0.00  0.00    +0.000 A 
ATOM      2  N   UNL     1       1.510   5.759  21.190  0.00  0.00    +0.000 NA
ATOM      3  N   UNL     1       1.905   4.451  21.268  0.00  0.00    +0.000 NA
ATOM      4  C   UNL     1       2.716   4.224  20.263  0.00  0.00    +0.000 A 
ATOM      5  C   UNL     1       3.404   3.055  19.849  0.00  0.00    +0.000 A 
ATOM      6  C   UNL     1       4.231   3.112  18.791  0.00  0.00    +0.000 A 
ATOM      7  C   UNL     1       4.461   4.357  18.053  0.00  0.00    +0.000 A 
ATOM      8  C   UNL     1       3.795   5.464  18.448  0.00  0.00    +0.000 A 
ATOM      9  N   UNL     1       2.903   5.389  19.526  0.00  0.00    +0.000 N 
ENDROOT
BRANCH   1  13
ATOM     10  C   UNL     1       1.316  10.341  18.798  0.00  0.00    +0.000 A 
ATOM     11  C   UNL     1       2.002   9.420  17.996  0.00  0.00    +0.000 A 
ATOM     12  C   UNL     1       2.213   8.109  18.432  0.00  0.00    +0.000 A 
ATOM     13  C   UNL     1       1.781   7.693  19.694  0.00  0.00    +0.000 A 
ATOM     14  C   UNL     1       1.181   8.644  20.526  0.00  0.00    +0.000 A 
ATOM     15  C   UNL     1       0.936   9.960  20.094  0.00  0.00    +0.000 A 
BRANCH  10  17
ATOM     16  C   UNL     1       2.030  12.601  18.677  0.00  0.00    +0.000 C 
ATOM     17  O   UNL     1       1.054  11.610  18.360  0.00  0.00    +0.000 OA
ENDBRANCH  10  17
BRANCH  15  18
ATOM     18  O   UNL     1       0.312  10.703  21.061  0.00  0.00    +0.000 OA
ATOM     19  C   UNL     1      -0.143  10.058  22.239  0.00  0.00    +0.000 C 
ENDBRANCH  15  18
ENDBRANCH   1  13
BRANCH   7  20
ATOM     20  C   UNL     1       5.393   4.421  16.918  0.00  0.00    +0.000 A 
ATOM     21  C   UNL     1       6.668   4.978  17.082  0.00  0.00    +0.000 A 
ATOM     22  C   UNL     1       7.507   5.134  15.980  0.00  0.00    +0.000 A 
ATOM     23  C   UNL     1       7.064   4.764  14.710  0.00  0.00    +0.000 A 
ATOM     24  C   UNL     1       5.782   4.246  14.531  0.00  0.00    +0.000 A 
ATOM     25  C   UNL     1       4.962   4.031  15.642  0.00  0.00    +0.000 A 
BRANCH  24  26
ATOM     26  O   UNL     1       5.423   4.015  13.230  0.00  0.00    +0.000 OA
BRANCH  26  27
ATOM     27  C   UNL     1       6.274   3.180  12.432  0.00  0.00    +0.000 C 
ATOM     28  C   UNL     1       5.468   2.260  11.510  0.00  0.00    +0.000 C 
ATOM     29  C   UNL     1       7.128   4.117  11.576  0.00  0.00    +0.000 C 
ENDBRANCH  26  27
ENDBRANCH  24  26
ENDBRANCH   7  20
TORSDOF 6
ENDMDL
