MODEL 1
REMARK VINA RESULT:      -7.8      0.000      0.000
REMARK  Name = 
REMARK  4 active torsions:
REMARK  status: ('A' for Active; 'I' for Inactive)
REMARK    1  A    between atoms: C_4  and  N_5
REMARK    2  A    between atoms: N_5  and  C_6
REMARK    3  A    between atoms: C_6  and  C_7
REMARK    4  A    between atoms: C_7  and  C_8
REMARK                            x       y       z     vdW  Elec       q    Type
REMARK                         _______ _______ _______ _____ _____    ______ ____
ROOT
ATOM      1  O   UNL     1       5.266   6.639  15.208  0.00  0.00    +0.000 OA
ATOM      2  C   UNL     1       5.336   5.898  16.189  0.00  0.00    +0.000 C 
ATOM      3  C   UNL     1       4.436   4.744  16.319  0.00  0.00    +0.000 C 
ATOM      4  C   UNL     1       4.418   3.949  17.394  0.00  0.00    +0.000 C 
ATOM      5  C   UNL     1       5.368   4.213  18.530  0.00  0.00    +0.000 C 
ATOM      6  O   UNL     1       5.361   3.519  19.548  0.00  0.00    +0.000 OA
ATOM      7  C   UNL     1       6.331   5.320  18.394  0.00  0.00    +0.000 A 
ATOM      8  C   UNL     1       7.290   5.536  19.395  0.00  0.00    +0.000 A 
ATOM      9  C   UNL     1       8.188   6.598  19.283  0.00  0.00    +0.000 A 
ATOM     10  C   UNL     1       8.133   7.444  18.175  0.00  0.00    +0.000 A 
ATOM     11  C   UNL     1       7.195   7.220  17.167  0.00  0.00    +0.000 A 
ATOM     12  C   UNL     1       6.303   6.145  17.274  0.00  0.00    +0.000 A 
ENDROOT
BRANCH   4  13
ATOM     13  N   UNL     1       3.560   2.879  17.549  0.00  0.00    +0.000 N 
ATOM     14  H   UNL     1       4.039   2.009  17.763  0.00  0.00    +0.000 HD
BRANCH  13  15
ATOM     15  C   UNL     1       2.120   2.919  17.682  0.00  0.00    +0.000 C 
BRANCH  15  16
ATOM     16  C   UNL     1       1.679   4.196  18.398  0.00  0.00    +0.000 C 
BRANCH  16  17
ATOM     17  C   UNL     1       1.269   3.926  19.843  0.00  0.00    +0.000 C 
ATOM     18  C   UNL     1       1.543   2.484  20.347  0.00  0.00    +0.000 C 
ATOM     19  C   UNL     1       1.829   3.098  21.731  0.00  0.00    +0.000 C 
ATOM     20  C   UNL     1       2.210   4.393  20.991  0.00  0.00    +0.000 C 
ENDBRANCH  16  17
ENDBRANCH  15  16
ENDBRANCH  13  15
ENDBRANCH   4  13
TORSDOF 4
ENDMDL
MODEL 2
REMARK VINA RESULT:      -7.3      2.192      3.029
REMARK  Name = 
REMARK  4 active torsions:
REMARK  status: ('A' for Active; 'I' for Inactive)
REMARK    1  A    between atoms: C_4  and  N_5
REMARK    2  A    between atoms: N_5  and  C_6
REMARK    3  A    between atoms: C_6  and  C_7
REMARK    4  A    between atoms: C_7  and  C_8
REMARK                            x       y       z     vdW  Elec       q    Type
REMARK                         _______ _______ _______ _____ _____    ______ ____
ROOT
ATOM      1  O   UNL     1       2.761   8.156  17.510  0.00  0.00    +0.000 OA
ATOM      2  C   UNL     1       3.238   7.126  17.986  0.00  0.00    +0.000 C 
ATOM      3  C   UNL     1       2.751   6.599  19.269  0.00  0.00    +0.000 C 
ATOM      4  C   UNL     1       3.281   5.528  19.868  0.00  0.00    +0.000 C 
ATOM      5  C   UNL     1       4.418   4.795  19.210  0.00  0.00    +0.000 C 
ATOM      6  O   UNL     1       4.950   3.821  19.745  0.00  0.00    +0.000 OA
ATOM      7  C   UNL     1       4.879   5.259  17.889  0.00  0.00    +0.000 A 
ATOM      8  C   UNL     1       5.876   4.543  17.208  0.00  0.00    +0.000 A 
ATOM      9  C   UNL     1       6.333   4.992  15.969  0.00  0.00    +0.000 A 
ATOM     10  C   UNL     1       5.798   6.151  15.406  0.00  0.00    +0.000 A 
ATOM     11  C   UNL     1       4.792   6.853  16.070  0.00  0.00    +0.000 A 
ATOM     12  C   UNL     1       4.324   6.394  17.308  0.00  0.00    +0.000 A 
ENDROOT
BRANCH   4  13
ATOM     13  N   UNL     1       2.858   5.035  21.085  0.00  0.00    +0.000 N 
ATOM     14  H   UNL     1       3.022   5.677  21.856  0.00  0.00    +0.000 HD
BRANCH  13  15
ATOM     15  C   UNL     1       2.026   3.877  21.325  0.00  0.00    +0.000 C 
BRANCH  15  16
ATOM     16  C   UNL     1       0.826   3.869  20.376  0.00  0.00    +0.000 C 
BRANCH  16  17
ATOM     17  C   UNL     1       0.990   2.843  19.259  0.00  0.00    +0.000 C 
ATOM     18  C   UNL     1       1.521   3.410  17.915  0.00  0.00    +0.000 C 
ATOM     19  C   UNL     1       2.253   2.068  17.719  0.00  0.00    +0.000 C 
ATOM     20  C   UNL     1       2.254   1.935  19.253  0.00  0.00    +0.000 C 
ENDBRANCH  16  17
ENDBRANCH  15  16
ENDBRANCH  13  15
ENDBRANCH   4  13
TORSDOF 4
ENDMDL
MODEL 3
REMARK VINA RESULT:      -7.2      0.663      1.027
REMARK  Name = 
REMARK  4 active torsions:
REMARK  status: ('A' for Active; 'I' for Inactive)
REMARK    1  A    between atoms: C_4  and  N_5
REMARK    2  A    between atoms: N_5  and  C_6
REMARK    3  A    between atoms: C_6  and  C_7
REMARK    4  A    between atoms: C_7  and  C_8
REMARK                            x       y       z     vdW  Elec       q    Type
REMARK                         _______ _______ _______ _____ _____    ______ ____
ROOT
ATOM      1  O   UNL     1       5.408   6.102  14.918  0.00  0.00    +0.000 OA
ATOM      2  C   UNL     1       5.497   5.495  15.985  0.00  0.00    +0.000 C 
ATOM      3  C   UNL     1       4.701   4.283  16.225  0.00  0.00    +0.000 C 
ATOM      4  C   UNL     1       4.702   3.625  17.389  0.00  0.00    +0.000 C 
ATOM      5  C   UNL     1       5.567   4.116  18.518  0.00  0.00    +0.000 C 
ATOM      6  O   UNL     1       5.573   3.553  19.613  0.00  0.00    +0.000 OA
ATOM      7  C   UNL     1       6.430   5.287  18.281  0.00  0.00    +0.000 A 
ATOM      8  C   UNL     1       7.315   5.714  19.283  0.00  0.00    +0.000 A 
ATOM      9  C   UNL     1       8.116   6.836  19.073  0.00  0.00    +0.000 A 
ATOM     10  C   UNL     1       8.039   7.534  17.867  0.00  0.00    +0.000 A 
ATOM     11  C   UNL     1       7.176   7.099  16.861  0.00  0.00    +0.000 A 
ATOM     12  C   UNL     1       6.382   5.964  17.067  0.00  0.00    +0.000 A 
ENDROOT
BRANCH   4  13
ATOM     13  N   UNL     1       3.940   2.504  17.644  0.00  0.00    +0.000 N 
ATOM     14  H   UNL     1       4.424   1.808  18.204  0.00  0.00    +0.000 HD
BRANCH  13  15
ATOM     15  C   UNL     1       2.520   2.338  17.424  0.00  0.00    +0.000 C 
BRANCH  15  16
ATOM     16  C   UNL     1       1.790   2.128  18.752  0.00  0.00    +0.000 C 
BRANCH  16  17
ATOM     17  C   UNL     1       2.165   3.188  19.782  0.00  0.00    +0.000 C 
ATOM     18  C   UNL     1       1.816   4.648  19.384  0.00  0.00    +0.000 C 
ATOM     19  C   UNL     1       1.539   4.913  20.877  0.00  0.00    +0.000 C 
ATOM     20  C   UNL     1       1.231   3.410  21.006  0.00  0.00    +0.000 C 
ENDBRANCH  16  17
ENDBRANCH  15  16
ENDBRANCH  13  15
ENDBRANCH   4  13
TORSDOF 4
ENDMDL
MODEL 4
REMARK VINA RESULT:      -7.2      2.753      6.223
REMARK  Name = 
REMARK  4 active torsions:
REMARK  status: ('A' for Active; 'I' for Inactive)
REMARK    1  A    between atoms: C_4  and  N_5
REMARK    2  A    between atoms: N_5  and  C_6
REMARK    3  A    between atoms: C_6  and  C_7
REMARK    4  A    between atoms: C_7  and  C_8
REMARK                            x       y       z     vdW  Elec       q    Type
REMARK                         _______ _______ _______ _____ _____    ______ ____
ROOT
ATOM      1  O   UNL     1       3.443   1.687  18.047  0.00  0.00    +0.000 OA
ATOM      2  C   UNL     1       3.574   2.905  17.935  0.00  0.00    +0.000 C 
ATOM      3  C   UNL     1       4.409   3.473  16.867  0.00  0.00    +0.000 C 
ATOM      4  C   UNL     1       4.645   4.783  16.742  0.00  0.00    +0.000 C 
ATOM      5  C   UNL     1       4.023   5.746  17.715  0.00  0.00    +0.000 C 
ATOM      6  O   UNL     1       4.240   6.957  17.648  0.00  0.00    +0.000 OA
ATOM      7  C   UNL     1       3.123   5.211  18.752  0.00  0.00    +0.000 A 
ATOM      8  C   UNL     1       2.456   6.091  19.618  0.00  0.00    +0.000 A 
ATOM      9  C   UNL     1       1.623   5.588  20.617  0.00  0.00    +0.000 A 
ATOM     10  C   UNL     1       1.451   4.210  20.755  0.00  0.00    +0.000 A 
ATOM     11  C   UNL     1       2.097   3.333  19.883  0.00  0.00    +0.000 A 
ATOM     12  C   UNL     1       2.922   3.839  18.871  0.00  0.00    +0.000 A 
ENDROOT
BRANCH   4  13
ATOM     13  N   UNL     1       5.450   5.333  15.765  0.00  0.00    +0.000 N 
ATOM     14  H   UNL     1       5.112   6.229  15.425  0.00  0.00    +0.000 HD
BRANCH  13  15
ATOM     15  C   UNL     1       6.779   4.912  15.381  0.00  0.00    +0.000 C 
BRANCH  15  16
ATOM     16  C   UNL     1       6.904   4.841  13.858  0.00  0.00    +0.000 C 
BRANCH  16  17
ATOM     17  C   UNL     1       6.235   3.592  13.290  0.00  0.00    +0.000 C 
ATOM     18  C   UNL     1       4.855   3.830  12.621  0.00  0.00    +0.000 C 
ATOM     19  C   UNL     1       5.223   2.710  11.628  0.00  0.00    +0.000 C 
ATOM     20  C   UNL     1       6.697   3.058  11.904  0.00  0.00    +0.000 C 
ENDBRANCH  16  17
ENDBRANCH  15  16
ENDBRANCH  13  15
ENDBRANCH   4  13
TORSDOF 4
ENDMDL
MODEL 5
REMARK VINA RESULT:      -7.1      2.061      5.709
REMARK  Name = 
REMARK  4 active torsions:
REMARK  status: ('A' for Active; 'I' for Inactive)
REMARK    1  A    between atoms: C_4  and  N_5
REMARK    2  A    between atoms: N_5  and  C_6
REMARK    3  A    between atoms: C_6  and  C_7
REMARK    4  A    between atoms: C_7  and  C_8
REMARK                            x       y       z     vdW  Elec       q    Type
REMARK                         _______ _______ _______ _____ _____    ______ ____
ROOT
ATOM      1  O   UNL     1       2.195   6.656  17.983  0.00  0.00    +0.000 OA
ATOM      2  C   UNL     1       2.912   5.766  18.440  0.00  0.00    +0.000 C 
ATOM      3  C   UNL     1       4.328   6.024  18.737  0.00  0.00    +0.000 C 
ATOM      4  C   UNL     1       5.170   5.078  19.166  0.00  0.00    +0.000 C 
ATOM      5  C   UNL     1       4.665   3.678  19.382  0.00  0.00    +0.000 C 
ATOM      6  O   UNL     1       5.418   2.773  19.749  0.00  0.00    +0.000 OA
ATOM      7  C   UNL     1       3.234   3.406  19.160  0.00  0.00    +0.000 A 
ATOM      8  C   UNL     1       2.714   2.133  19.439  0.00  0.00    +0.000 A 
ATOM      9  C   UNL     1       1.365   1.865  19.208  0.00  0.00    +0.000 A 
ATOM     10  C   UNL     1       0.532   2.862  18.700  0.00  0.00    +0.000 A 
ATOM     11  C   UNL     1       1.041   4.135  18.441  0.00  0.00    +0.000 A 
ATOM     12  C   UNL     1       2.392   4.408  18.687  0.00  0.00    +0.000 A 
ENDROOT
BRANCH   4  13
ATOM     13  N   UNL     1       6.508   5.293  19.422  0.00  0.00    +0.000 N 
ATOM     14  H   UNL     1       6.789   5.010  20.357  0.00  0.00    +0.000 HD
BRANCH  13  15
ATOM     15  C   UNL     1       7.544   5.625  18.468  0.00  0.00    +0.000 C 
BRANCH  15  16
ATOM     16  C   UNL     1       7.591   4.591  17.342  0.00  0.00    +0.000 C 
BRANCH  16  17
ATOM     17  C   UNL     1       6.625   4.935  16.213  0.00  0.00    +0.000 C 
ATOM     18  C   UNL     1       7.198   4.766  14.780  0.00  0.00    +0.000 C 
ATOM     19  C   UNL     1       5.784   4.339  14.340  0.00  0.00    +0.000 C 
ATOM     20  C   UNL     1       5.554   3.885  15.794  0.00  0.00    +0.000 C 
ENDBRANCH  16  17
ENDBRANCH  15  16
ENDBRANCH  13  15
ENDBRANCH   4  13
TORSDOF 4
ENDMDL
MODEL 6
REMARK VINA RESULT:      -7.0      2.411      6.207
REMARK  Name = 
REMARK  4 active torsions:
REMARK  status: ('A' for Active; 'I' for Inactive)
REMARK    1  A    between atoms: C_4  and  N_5
REMARK    2  A    between atoms: N_5  and  C_6
REMARK    3  A    between atoms: C_6  and  C_7
REMARK    4  A    between atoms: C_7  and  C_8
REMARK                            x       y       z     vdW  Elec       q    Type
REMARK                         _______ _______ _______ _____ _____    ______ ____
ROOT
ATOM      1  O   UNL     1       1.046   4.219  17.077  0.00  0.00    +0.000 OA
ATOM      2  C   UNL     1       2.083   4.012  17.707  0.00  0.00    +0.000 C 
ATOM      3  C   UNL     1       3.394   4.224  17.078  0.00  0.00    +0.000 C 
ATOM      4  C   UNL     1       4.551   3.947  17.689  0.00  0.00    +0.000 C 
ATOM      5  C   UNL     1       4.540   3.410  19.094  0.00  0.00    +0.000 C 
ATOM      6  O   UNL     1       5.584   3.116  19.678  0.00  0.00    +0.000 OA
ATOM      7  C   UNL     1       3.241   3.255  19.774  0.00  0.00    +0.000 A 
ATOM      8  C   UNL     1       3.201   2.842  21.114  0.00  0.00    +0.000 A 
ATOM      9  C   UNL     1       1.974   2.670  21.755  0.00  0.00    +0.000 A 
ATOM     10  C   UNL     1       0.786   2.910  21.063  0.00  0.00    +0.000 A 
ATOM     11  C   UNL     1       0.822   3.340  19.736  0.00  0.00    +0.000 A 
ATOM     12  C   UNL     1       2.056   3.526  19.098  0.00  0.00    +0.000 A 
ENDROOT
BRANCH   4  13
ATOM     13  N   UNL     1       5.791   4.111  17.107  0.00  0.00    +0.000 N 
ATOM     14  H   UNL     1       6.328   3.250  17.057  0.00  0.00    +0.000 HD
BRANCH  13  15
ATOM     15  C   UNL     1       6.274   5.261  16.374  0.00  0.00    +0.000 C 
BRANCH  15  16
ATOM     16  C   UNL     1       7.184   4.825  15.224  0.00  0.00    +0.000 C 
BRANCH  16  17
ATOM     17  C   UNL     1       6.425   4.727  13.904  0.00  0.00    +0.000 C 
ATOM     18  C   UNL     1       7.296   4.377  12.667  0.00  0.00    +0.000 C 
ATOM     19  C   UNL     1       6.083   3.598  12.122  0.00  0.00    +0.000 C 
ATOM     20  C   UNL     1       5.637   3.423  13.585  0.00  0.00    +0.000 C 
ENDBRANCH  16  17
ENDBRANCH  15  16
ENDBRANCH  13  15
ENDBRANCH   4  13
TORSDOF 4
ENDMDL
MODEL 7
REMARK VINA RESULT:      -7.0      2.485      3.466
REMARK  Name = 
REMARK  4 active torsions:
REMARK  status: ('A' for Active; 'I' for Inactive)
REMARK    1  A    between atoms: C_4  and  N_5
REMARK    2  A    between atoms: N_5  and  C_6
REMARK    3  A    between atoms: C_6  and  C_7
REMARK    4  A    between atoms: C_7  and  C_8
REMARK                            x       y       z     vdW  Elec       q    Type
REMARK                         _______ _______ _______ _____ _____    ______ ____
ROOT
ATOM      1  O   UNL     1       4.892   6.578  16.007  0.00  0.00    +0.000 OA
ATOM      2  C   UNL     1       4.511   6.212  17.118  0.00  0.00    +0.000 C 
ATOM      3  C   UNL     1       5.031   4.975  17.717  0.00  0.00    +0.000 C 
ATOM      4  C   UNL     1       4.600   4.491  18.887  0.00  0.00    +0.000 C 
ATOM      5  C   UNL     1       3.548   5.240  19.658  0.00  0.00    +0.000 C 
ATOM      6  O   UNL     1       3.106   4.811  20.725  0.00  0.00    +0.000 OA
ATOM      7  C   UNL     1       3.061   6.521  19.115  0.00  0.00    +0.000 A 
ATOM      8  C   UNL     1       2.147   7.288  19.854  0.00  0.00    +0.000 A 
ATOM      9  C   UNL     1       1.664   8.489  19.334  0.00  0.00    +0.000 A 
ATOM     10  C   UNL     1       2.091   8.928  18.080  0.00  0.00    +0.000 A 
ATOM     11  C   UNL     1       3.016   8.179  17.352  0.00  0.00    +0.000 A 
ATOM     12  C   UNL     1       3.510   6.980  17.881  0.00  0.00    +0.000 A 
ENDROOT
BRANCH   4  13
ATOM     13  N   UNL     1       5.053   3.317  19.451  0.00  0.00    +0.000 N 
ATOM     14  H   UNL     1       5.903   3.435  19.996  0.00  0.00    +0.000 HD
BRANCH  13  15
ATOM     15  C   UNL     1       4.347   2.059  19.550  0.00  0.00    +0.000 C 
BRANCH  15  16
ATOM     16  C   UNL     1       3.655   1.723  18.228  0.00  0.00    +0.000 C 
BRANCH  16  17
ATOM     17  C   UNL     1       2.138   1.853  18.330  0.00  0.00    +0.000 C 
ATOM     18  C   UNL     1       1.590   2.073  19.766  0.00  0.00    +0.000 C 
ATOM     19  C   UNL     1       0.492   2.952  19.136  0.00  0.00    +0.000 C 
ATOM     20  C   UNL     1       1.477   3.219  17.983  0.00  0.00    +0.000 C 
ENDBRANCH  16  17
ENDBRANCH  15  16
ENDBRANCH  13  15
ENDBRANCH   4  13
TORSDOF 4
ENDMDL
MODEL 8
REMARK VINA RESULT:      -7.0      2.642      6.254
REMARK  Name = 
REMARK  4 active torsions:
REMARK  status: ('A' for Active; 'I' for Inactive)
REMARK    1  A    between atoms: C_4  and  N_5
REMARK    2  A    between atoms: N_5  and  C_6
REMARK    3  A    between atoms: C_6  and  C_7
REMARK    4  A    between atoms: C_7  and  C_8
REMARK                            x       y       z     vdW  Elec       q    Type
REMARK                         _______ _______ _______ _____ _____    ______ ____
ROOT
ATOM      1  O   UNL     1       2.142   7.386  19.608  0.00  0.00    +0.000 OA
ATOM      2  C   UNL     1       2.667   6.442  19.018  0.00  0.00    +0.000 C 
ATOM      3  C   UNL     1       3.676   6.679  17.976  0.00  0.00    +0.000 C 
ATOM      4  C   UNL     1       4.226   5.697  17.254  0.00  0.00    +0.000 C 
ATOM      5  C   UNL     1       3.826   4.270  17.514  0.00  0.00    +0.000 C 
ATOM      6  O   UNL     1       4.289   3.342  16.849  0.00  0.00    +0.000 OA
ATOM      7  C   UNL     1       2.869   3.998  18.601  0.00  0.00    +0.000 A 
ATOM      8  C   UNL     1       2.545   2.672  18.928  0.00  0.00    +0.000 A 
ATOM      9  C   UNL     1       1.622   2.410  19.940  0.00  0.00    +0.000 A 
ATOM     10  C   UNL     1       1.022   3.465  20.629  0.00  0.00    +0.000 A 
ATOM     11  C   UNL     1       1.358   4.784  20.321  0.00  0.00    +0.000 A 
ATOM     12  C   UNL     1       2.295   5.046  19.314  0.00  0.00    +0.000 A 
ENDROOT
BRANCH   4  13
ATOM     13  N   UNL     1       5.151   5.901  16.251  0.00  0.00    +0.000 N 
ATOM     14  H   UNL     1       4.735   6.213  15.379  0.00  0.00    +0.000 HD
BRANCH  13  15
ATOM     15  C   UNL     1       6.591   5.956  16.381  0.00  0.00    +0.000 C 
BRANCH  15  16
ATOM     16  C   UNL     1       7.254   4.914  15.479  0.00  0.00    +0.000 C 
BRANCH  16  17
ATOM     17  C   UNL     1       6.595   4.850  14.104  0.00  0.00    +0.000 C 
ATOM     18  C   UNL     1       7.576   4.744  12.906  0.00  0.00    +0.000 C 
ATOM     19  C   UNL     1       6.518   3.870  12.207  0.00  0.00    +0.000 C 
ATOM     20  C   UNL     1       6.015   3.492  13.612  0.00  0.00    +0.000 C 
ENDBRANCH  16  17
ENDBRANCH  15  16
ENDBRANCH  13  15
ENDBRANCH   4  13
TORSDOF 4
ENDMDL
MODEL 9
REMARK VINA RESULT:      -6.9      3.021      7.061
REMARK  Name = 
REMARK  4 active torsions:
REMARK  status: ('A' for Active; 'I' for Inactive)
REMARK    1  A    between atoms: C_4  and  N_5
REMARK    2  A    between atoms: N_5  and  C_6
REMARK    3  A    between atoms: C_6  and  C_7
REMARK    4  A    between atoms: C_7  and  C_8
REMARK                            x       y       z     vdW  Elec       q    Type
REMARK                         _______ _______ _______ _____ _____    ______ ____
ROOT
ATOM      1  O   UNL     1       5.301   5.945  15.007  0.00  0.00    +0.000 OA
ATOM      2  C   UNL     1       5.688   5.881  16.173  0.00  0.00    +0.000 C 
ATOM      3  C   UNL     1       6.709   6.810  16.675  0.00  0.00    +0.000 C 
ATOM      4  C   UNL     1       7.219   6.740  17.910  0.00  0.00    +0.000 C 
ATOM      5  C   UNL     1       6.726   5.681  18.857  0.00  0.00    +0.000 C 
ATOM      6  O   UNL     1       7.192   5.568  19.992  0.00  0.00    +0.000 OA
ATOM      7  C   UNL     1       5.651   4.780  18.404  0.00  0.00    +0.000 A 
ATOM      8  C   UNL     1       5.107   3.842  19.294  0.00  0.00    +0.000 A 
ATOM      9  C   UNL     1       4.107   2.971  18.862  0.00  0.00    +0.000 A 
ATOM     10  C   UNL     1       3.646   3.034  17.547  0.00  0.00    +0.000 A 
ATOM     11  C   UNL     1       4.169   3.980  16.666  0.00  0.00    +0.000 A 
ATOM     12  C   UNL     1       5.164   4.864  17.104  0.00  0.00    +0.000 A 
ENDROOT
BRANCH   4  13
ATOM     13  N   UNL     1       8.199   7.584  18.390  0.00  0.00    +0.000 N 
ATOM     14  H   UNL     1       8.959   7.093  18.853  0.00  0.00    +0.000 HD
BRANCH  13  15
ATOM     15  C   UNL     1       8.371   8.990  18.096  0.00  0.00    +0.000 C 
BRANCH  15  16
ATOM     16  C   UNL     1       9.193   9.673  19.191  0.00  0.00    +0.000 C 
BRANCH  16  17
ATOM     17  C   UNL     1       9.470  11.137  18.865  0.00  0.00    +0.000 C 
ATOM     18  C   UNL     1      10.348  11.889  19.901  0.00  0.00    +0.000 C 
ATOM     19  C   UNL     1      10.934  12.687  18.720  0.00  0.00    +0.000 C 
ATOM     20  C   UNL     1      10.582  11.479  17.832  0.00  0.00    +0.000 C 
ENDBRANCH  16  17
ENDBRANCH  15  16
ENDBRANCH  13  15
ENDBRANCH   4  13
TORSDOF 4
ENDMDL
