MODEL 1
REMARK VINA RESULT:      -7.1      0.000      0.000
REMARK  Name = 
REMARK  22 active torsions:
REMARK  status: ('A' for Active; 'I' for Inactive)
REMARK    1  A    between atoms: C_1  and  C_2
REMARK    2  A    between atoms: C_2  and  C_3
REMARK    3  A    between atoms: C_3  and  C_4
REMARK    4  A    between atoms: C_4  and  C_5
REMARK    5  A    between atoms: C_5  and  C_6
REMARK    6  A    between atoms: C_6  and  C_7
REMARK    7  A    between atoms: C_7  and  C_8
REMARK    8  A    between atoms: C_8  and  C_9
REMARK    9  A    between atoms: C_9  and  C_10
REMARK   10  A    between atoms: C_10  and  C_11
REMARK   11  A    between atoms: C_10  and  C_16
REMARK   12  A    between atoms: C_11  and  C_12
REMARK   13  A    between atoms: N_14  and  O_15
REMARK   14  A    between atoms: N_18  and  C_19
REMARK   15  A    between atoms: C_19  and  C_20
REMARK   16  A    between atoms: C_19  and  C_31
REMARK   17  A    between atoms: N_22  and  C_23
REMARK   18  A    between atoms: C_23  and  C_24
REMARK   19  A    between atoms: C_23  and  C_25
REMARK   20  A    between atoms: C_31  and  C_32
REMARK   21  A    between atoms: C_31  and  C_33
REMARK   22  A    between atoms: C_31  and  C_34
REMARK                            x       y       z     vdW  Elec       q    Type
REMARK                         _______ _______ _______ _____ _____    ______ ____
ROOT
ATOM      1  C   UNL     1       2.759   6.484  18.566  0.00  0.00    +0.000 C 
ATOM      2  O   UNL     1       3.399   6.659  17.532  0.00  0.00    +0.000 OA
ATOM      3  N   UNL     1       2.465   5.232  19.047  0.00  0.00    +0.000 N 
ATOM      4  H   UNL     1       2.112   5.122  19.992  0.00  0.00    +0.000 HD
ENDROOT
BRANCH   3   5
ATOM      5  C   UNL     1       2.940   4.017  18.388  0.00  0.00    +0.000 C 
BRANCH   5   6
ATOM      6  C   UNL     1       2.378   2.735  19.080  0.00  0.00    +0.000 C 
ATOM      7  C   UNL     1       0.892   2.550  18.692  0.00  0.00    +0.000 C 
ATOM      8  C   UNL     1       3.147   1.491  18.597  0.00  0.00    +0.000 C 
ATOM      9  C   UNL     1       2.462   2.799  20.618  0.00  0.00    +0.000 C 
ENDBRANCH   5   6
BRANCH   5  10
ATOM     10  C   UNL     1       4.488   4.089  18.363  0.00  0.00    +0.000 C 
ATOM     11  O   UNL     1       5.164   3.871  19.368  0.00  0.00    +0.000 OA
ATOM     12  N   UNL     1       5.039   4.412  17.140  0.00  0.00    +0.000 N 
ATOM     13  H   UNL     1       4.450   4.839  16.436  0.00  0.00    +0.000 HD
BRANCH  12  14
ATOM     14  C   UNL     1       6.479   4.428  16.912  0.00  0.00    +0.000 C 
ATOM     15  C   UNL     1       6.756   4.198  15.424  0.00  0.00    +0.000 C 
BRANCH  14  16
ATOM     16  C   UNL     1       7.110   5.690  17.476  0.00  0.00    +0.000 A 
ATOM     17  C   UNL     1       7.826   5.617  18.682  0.00  0.00    +0.000 A 
ATOM     18  C   UNL     1       8.452   6.744  19.222  0.00  0.00    +0.000 A 
ATOM     19  C   UNL     1       8.367   7.971  18.568  0.00  0.00    +0.000 A 
ATOM     20  C   UNL     1       7.648   8.069  17.380  0.00  0.00    +0.000 A 
ATOM     21  C   UNL     1       7.019   6.941  16.841  0.00  0.00    +0.000 A 
ENDBRANCH  14  16
ENDBRANCH  12  14
ENDBRANCH   5  10
ENDBRANCH   3   5
BRANCH   1  22
ATOM     22  C   UNL     1       2.204   7.642  19.397  0.00  0.00    +0.000 C 
BRANCH  22  23
ATOM     23  C   UNL     1       1.437   7.112  20.620  0.00  0.00    +0.000 C 
BRANCH  23  24
ATOM     24  C   UNL     1       0.764   8.186  21.455  0.00  0.00    +0.000 C 
ATOM     25  O   UNL     1      -0.446   8.391  21.423  0.00  0.00    +0.000 OA
ATOM     26  N   UNL     1       1.615   8.885  22.279  0.00  0.00    +0.000 N 
ATOM     27  H   UNL     1       2.557   9.090  21.928  0.00  0.00    +0.000 HD
BRANCH  26  28
ATOM     28  O   UNL     1       1.006   9.917  23.033  0.00  0.00    +0.000 OA
ATOM     29  H   UNL     1       0.184  10.090  22.525  0.00  0.00    +0.000 HD
ENDBRANCH  26  28
ENDBRANCH  23  24
ENDBRANCH  22  23
BRANCH  22  30
ATOM     30  C   UNL     1       1.295   8.498  18.484  0.00  0.00    +0.000 C 
BRANCH  30  31
ATOM     31  C   UNL     1       1.742   9.953  18.354  0.00  0.00    +0.000 C 
BRANCH  31  32
ATOM     32  C   UNL     1       0.644  10.928  18.778  0.00  0.00    +0.000 C 
BRANCH  32  33
ATOM     33  C   UNL     1      -0.724  10.358  18.402  0.00  0.00    +0.000 C 
BRANCH  33  34
ATOM     34  C   UNL     1      -1.849  11.349  18.679  0.00  0.00    +0.000 C 
BRANCH  34  35
ATOM     35  C   UNL     1      -3.097  10.984  17.876  0.00  0.00    +0.000 C 
BRANCH  35  36
ATOM     36  C   UNL     1      -4.332  11.659  18.464  0.00  0.00    +0.000 C 
BRANCH  36  38
ATOM     37  C   UNL     1      -6.806  11.405  18.149  0.00  0.00    +0.000 C 
ATOM     38  C   UNL     1      -5.482  11.696  17.461  0.00  0.00    +0.000 C 
ENDBRANCH  36  38
ENDBRANCH  35  36
ENDBRANCH  34  35
ENDBRANCH  33  34
ENDBRANCH  32  33
ENDBRANCH  31  32
ENDBRANCH  30  31
ENDBRANCH  22  30
ENDBRANCH   1  22
TORSDOF 17
ENDMDL
MODEL 2
REMARK VINA RESULT:      -7.1      1.709      2.902
REMARK  Name = 
REMARK  22 active torsions:
REMARK  status: ('A' for Active; 'I' for Inactive)
REMARK    1  A    between atoms: C_1  and  C_2
REMARK    2  A    between atoms: C_2  and  C_3
REMARK    3  A    between atoms: C_3  and  C_4
REMARK    4  A    between atoms: C_4  and  C_5
REMARK    5  A    between atoms: C_5  and  C_6
REMARK    6  A    between atoms: C_6  and  C_7
REMARK    7  A    between atoms: C_7  and  C_8
REMARK    8  A    between atoms: C_8  and  C_9
REMARK    9  A    between atoms: C_9  and  C_10
REMARK   10  A    between atoms: C_10  and  C_11
REMARK   11  A    between atoms: C_10  and  C_16
REMARK   12  A    between atoms: C_11  and  C_12
REMARK   13  A    between atoms: N_14  and  O_15
REMARK   14  A    between atoms: N_18  and  C_19
REMARK   15  A    between atoms: C_19  and  C_20
REMARK   16  A    between atoms: C_19  and  C_31
REMARK   17  A    between atoms: N_22  and  C_23
REMARK   18  A    between atoms: C_23  and  C_24
REMARK   19  A    between atoms: C_23  and  C_25
REMARK   20  A    between atoms: C_31  and  C_32
REMARK   21  A    between atoms: C_31  and  C_33
REMARK   22  A    between atoms: C_31  and  C_34
REMARK                            x       y       z     vdW  Elec       q    Type
REMARK                         _______ _______ _______ _____ _____    ______ ____
ROOT
ATOM      1  C   UNL     1       2.330   8.042  18.418  0.00  0.00    +0.000 C 
ATOM      2  O   UNL     1       2.385   8.310  17.220  0.00  0.00    +0.000 OA
ATOM      3  N   UNL     1       2.582   6.782  18.902  0.00  0.00    +0.000 N 
ATOM      4  H   UNL     1       2.721   6.640  19.898  0.00  0.00    +0.000 HD
ENDROOT
BRANCH   3   5
ATOM      5  C   UNL     1       2.986   5.681  18.030  0.00  0.00    +0.000 C 
BRANCH   5   6
ATOM      6  C   UNL     1       2.560   4.300  18.619  0.00  0.00    +0.000 C 
ATOM      7  C   UNL     1       1.321   3.774  17.856  0.00  0.00    +0.000 C 
ATOM      8  C   UNL     1       3.693   3.273  18.435  0.00  0.00    +0.000 C 
ATOM      9  C   UNL     1       2.199   4.372  20.116  0.00  0.00    +0.000 C 
ENDBRANCH   5   6
BRANCH   5  10
ATOM     10  C   UNL     1       4.512   5.821  17.799  0.00  0.00    +0.000 C 
ATOM     11  O   UNL     1       5.268   6.222  18.684  0.00  0.00    +0.000 OA
ATOM     12  N   UNL     1       4.949   5.465  16.540  0.00  0.00    +0.000 N 
ATOM     13  H   UNL     1       4.275   5.407  15.787  0.00  0.00    +0.000 HD
BRANCH  12  14
ATOM     14  C   UNL     1       6.361   5.441  16.181  0.00  0.00    +0.000 C 
ATOM     15  C   UNL     1       7.136   4.642  17.233  0.00  0.00    +0.000 C 
BRANCH  14  16
ATOM     16  C   UNL     1       6.558   4.949  14.757  0.00  0.00    +0.000 A 
ATOM     17  C   UNL     1       5.654   4.013  14.226  0.00  0.00    +0.000 A 
ATOM     18  C   UNL     1       5.775   3.557  12.910  0.00  0.00    +0.000 A 
ATOM     19  C   UNL     1       6.808   4.023  12.101  0.00  0.00    +0.000 A 
ATOM     20  C   UNL     1       7.724   4.937  12.613  0.00  0.00    +0.000 A 
ATOM     21  C   UNL     1       7.605   5.392  13.930  0.00  0.00    +0.000 A 
ENDBRANCH  14  16
ENDBRANCH  12  14
ENDBRANCH   5  10
ENDBRANCH   3   5
BRANCH   1  22
ATOM     22  C   UNL     1       1.946   9.076  19.477  0.00  0.00    +0.000 C 
BRANCH  22  23
ATOM     23  C   UNL     1       1.047   8.444  20.553  0.00  0.00    +0.000 C 
BRANCH  23  24
ATOM     24  C   UNL     1       1.060   9.166  21.887  0.00  0.00    +0.000 C 
ATOM     25  O   UNL     1       2.099   9.498  22.452  0.00  0.00    +0.000 OA
ATOM     26  N   UNL     1      -0.186   9.452  22.393  0.00  0.00    +0.000 N 
ATOM     27  H   UNL     1      -0.931   8.762  22.244  0.00  0.00    +0.000 HD
BRANCH  26  28
ATOM     28  O   UNL     1      -0.188  10.090  23.658  0.00  0.00    +0.000 OA
ATOM     29  H   UNL     1      -0.944  10.711  23.576  0.00  0.00    +0.000 HD
ENDBRANCH  26  28
ENDBRANCH  23  24
ENDBRANCH  22  23
BRANCH  22  30
ATOM     30  C   UNL     1       1.239  10.254  18.766  0.00  0.00    +0.000 C 
BRANCH  30  31
ATOM     31  C   UNL     1      -0.285  10.206  18.857  0.00  0.00    +0.000 C 
BRANCH  31  32
ATOM     32  C   UNL     1      -0.927   9.868  17.511  0.00  0.00    +0.000 C 
BRANCH  32  33
ATOM     33  C   UNL     1      -2.449   9.855  17.655  0.00  0.00    +0.000 C 
BRANCH  33  34
ATOM     34  C   UNL     1      -3.148   9.989  16.308  0.00  0.00    +0.000 C 
BRANCH  34  35
ATOM     35  C   UNL     1      -4.013  11.249  16.273  0.00  0.00    +0.000 C 
BRANCH  35  36
ATOM     36  C   UNL     1      -4.818  11.385  17.562  0.00  0.00    +0.000 C 
BRANCH  36  38
ATOM     37  C   UNL     1      -7.060  12.026  18.482  0.00  0.00    +0.000 C 
ATOM     38  C   UNL     1      -6.062  12.247  17.357  0.00  0.00    +0.000 C 
ENDBRANCH  36  38
ENDBRANCH  35  36
ENDBRANCH  34  35
ENDBRANCH  33  34
ENDBRANCH  32  33
ENDBRANCH  31  32
ENDBRANCH  30  31
ENDBRANCH  22  30
ENDBRANCH   1  22
TORSDOF 17
ENDMDL
MODEL 3
REMARK VINA RESULT:      -7.0      3.272      6.792
REMARK  Name = 
REMARK  22 active torsions:
REMARK  status: ('A' for Active; 'I' for Inactive)
REMARK    1  A    between atoms: C_1  and  C_2
REMARK    2  A    between atoms: C_2  and  C_3
REMARK    3  A    between atoms: C_3  and  C_4
REMARK    4  A    between atoms: C_4  and  C_5
REMARK    5  A    between atoms: C_5  and  C_6
REMARK    6  A    between atoms: C_6  and  C_7
REMARK    7  A    between atoms: C_7  and  C_8
REMARK    8  A    between atoms: C_8  and  C_9
REMARK    9  A    between atoms: C_9  and  C_10
REMARK   10  A    between atoms: C_10  and  C_11
REMARK   11  A    between atoms: C_10  and  C_16
REMARK   12  A    between atoms: C_11  and  C_12
REMARK   13  A    between atoms: N_14  and  O_15
REMARK   14  A    between atoms: N_18  and  C_19
REMARK   15  A    between atoms: C_19  and  C_20
REMARK   16  A    between atoms: C_19  and  C_31
REMARK   17  A    between atoms: N_22  and  C_23
REMARK   18  A    between atoms: C_23  and  C_24
REMARK   19  A    between atoms: C_23  and  C_25
REMARK   20  A    between atoms: C_31  and  C_32
REMARK   21  A    between atoms: C_31  and  C_33
REMARK   22  A    between atoms: C_31  and  C_34
REMARK                            x       y       z     vdW  Elec       q    Type
REMARK                         _______ _______ _______ _____ _____    ______ ____
ROOT
ATOM      1  C   UNL     1       3.219   5.946  17.558  0.00  0.00    +0.000 C 
ATOM      2  O   UNL     1       2.858   4.793  17.333  0.00  0.00    +0.000 OA
ATOM      3  N   UNL     1       4.519   6.356  17.388  0.00  0.00    +0.000 N 
ATOM      4  H   UNL     1       4.742   7.346  17.391  0.00  0.00    +0.000 HD
ENDROOT
BRANCH   3   5
ATOM      5  C   UNL     1       5.555   5.460  16.877  0.00  0.00    +0.000 C 
BRANCH   5   6
ATOM      6  C   UNL     1       6.874   5.584  17.702  0.00  0.00    +0.000 C 
ATOM      7  C   UNL     1       6.544   5.530  19.213  0.00  0.00    +0.000 C 
ATOM      8  C   UNL     1       7.811   4.403  17.384  0.00  0.00    +0.000 C 
ATOM      9  C   UNL     1       7.630   6.900  17.429  0.00  0.00    +0.000 C 
ENDBRANCH   5   6
BRANCH   5  10
ATOM     10  C   UNL     1       5.724   5.776  15.369  0.00  0.00    +0.000 C 
ATOM     11  O   UNL     1       5.255   6.794  14.863  0.00  0.00    +0.000 OA
ATOM     12  N   UNL     1       6.436   4.837  14.651  0.00  0.00    +0.000 N 
ATOM     13  H   UNL     1       6.560   3.912  15.044  0.00  0.00    +0.000 HD
BRANCH  12  14
ATOM     14  C   UNL     1       6.775   5.022  13.246  0.00  0.00    +0.000 C 
ATOM     15  C   UNL     1       8.212   5.540  13.137  0.00  0.00    +0.000 C 
BRANCH  14  16
ATOM     16  C   UNL     1       6.508   3.758  12.446  0.00  0.00    +0.000 A 
ATOM     17  C   UNL     1       5.179   3.372  12.200  0.00  0.00    +0.000 A 
ATOM     18  C   UNL     1       4.884   2.235  11.441  0.00  0.00    +0.000 A 
ATOM     19  C   UNL     1       5.914   1.457  10.919  0.00  0.00    +0.000 A 
ATOM     20  C   UNL     1       7.238   1.812  11.165  0.00  0.00    +0.000 A 
ATOM     21  C   UNL     1       7.533   2.948  11.927  0.00  0.00    +0.000 A 
ENDBRANCH  14  16
ENDBRANCH  12  14
ENDBRANCH   5  10
ENDBRANCH   3   5
BRANCH   1  22
ATOM     22  C   UNL     1       2.265   7.023  18.075  0.00  0.00    +0.000 C 
BRANCH  22  23
ATOM     23  C   UNL     1       2.862   8.424  17.864  0.00  0.00    +0.000 C 
BRANCH  23  24
ATOM     24  C   UNL     1       1.862   9.559  17.981  0.00  0.00    +0.000 C 
ATOM     25  O   UNL     1       0.675   9.374  18.235  0.00  0.00    +0.000 OA
ATOM     26  N   UNL     1       2.401  10.813  17.817  0.00  0.00    +0.000 N 
ATOM     27  H   UNL     1       3.151  10.923  17.126  0.00  0.00    +0.000 HD
BRANCH  26  28
ATOM     28  O   UNL     1       1.470  11.879  17.884  0.00  0.00    +0.000 OA
ATOM     29  H   UNL     1       1.659  12.266  18.766  0.00  0.00    +0.000 HD
ENDBRANCH  26  28
ENDBRANCH  23  24
ENDBRANCH  22  23
BRANCH  22  30
ATOM     30  C   UNL     1       1.988   6.743  19.571  0.00  0.00    +0.000 C 
BRANCH  30  31
ATOM     31  C   UNL     1       3.046   5.870  20.244  0.00  0.00    +0.000 C 
BRANCH  31  32
ATOM     32  C   UNL     1       2.447   4.582  20.810  0.00  0.00    +0.000 C 
BRANCH  32  33
ATOM     33  C   UNL     1       0.958   4.514  20.471  0.00  0.00    +0.000 C 
BRANCH  33  34
ATOM     34  C   UNL     1       0.501   3.086  20.201  0.00  0.00    +0.000 C 
BRANCH  34  35
ATOM     35  C   UNL     1       1.095   2.568  18.892  0.00  0.00    +0.000 C 
BRANCH  35  36
ATOM     36  C   UNL     1       2.229   1.585  19.166  0.00  0.00    +0.000 C 
BRANCH  36  38
ATOM     37  C   UNL     1       4.590   2.395  18.945  0.00  0.00    +0.000 C 
ATOM     38  C   UNL     1       3.400   1.800  18.211  0.00  0.00    +0.000 C 
ENDBRANCH  36  38
ENDBRANCH  35  36
ENDBRANCH  34  35
ENDBRANCH  33  34
ENDBRANCH  32  33
ENDBRANCH  31  32
ENDBRANCH  30  31
ENDBRANCH  22  30
ENDBRANCH   1  22
TORSDOF 17
ENDMDL
MODEL 4
REMARK VINA RESULT:      -7.0      2.410      9.490
REMARK  Name = 
REMARK  22 active torsions:
REMARK  status: ('A' for Active; 'I' for Inactive)
REMARK    1  A    between atoms: C_1  and  C_2
REMARK    2  A    between atoms: C_2  and  C_3
REMARK    3  A    between atoms: C_3  and  C_4
REMARK    4  A    between atoms: C_4  and  C_5
REMARK    5  A    between atoms: C_5  and  C_6
REMARK    6  A    between atoms: C_6  and  C_7
REMARK    7  A    between atoms: C_7  and  C_8
REMARK    8  A    between atoms: C_8  and  C_9
REMARK    9  A    between atoms: C_9  and  C_10
REMARK   10  A    between atoms: C_10  and  C_11
REMARK   11  A    between atoms: C_10  and  C_16
REMARK   12  A    between atoms: C_11  and  C_12
REMARK   13  A    between atoms: N_14  and  O_15
REMARK   14  A    between atoms: N_18  and  C_19
REMARK   15  A    between atoms: C_19  and  C_20
REMARK   16  A    between atoms: C_19  and  C_31
REMARK   17  A    between atoms: N_22  and  C_23
REMARK   18  A    between atoms: C_23  and  C_24
REMARK   19  A    between atoms: C_23  and  C_25
REMARK   20  A    between atoms: C_31  and  C_32
REMARK   21  A    between atoms: C_31  and  C_33
REMARK   22  A    between atoms: C_31  and  C_34
REMARK                            x       y       z     vdW  Elec       q    Type
REMARK                         _______ _______ _______ _____ _____    ______ ____
ROOT
ATOM      1  C   UNL     1       2.309   8.072  18.446  0.00  0.00    +0.000 C 
ATOM      2  O   UNL     1       3.072   8.950  18.049  0.00  0.00    +0.000 OA
ATOM      3  N   UNL     1       1.404   8.286  19.457  0.00  0.00    +0.000 N 
ATOM      4  H   UNL     1       0.664   7.613  19.625  0.00  0.00    +0.000 HD
ENDROOT
BRANCH   3   5
ATOM      5  C   UNL     1       1.250   9.591  20.097  0.00  0.00    +0.000 C 
BRANCH   5   6
ATOM      6  C   UNL     1       0.573   9.463  21.499  0.00  0.00    +0.000 C 
ATOM      7  C   UNL     1      -0.464   8.315  21.466  0.00  0.00    +0.000 C 
ATOM      8  C   UNL     1       1.628   9.110  22.565  0.00  0.00    +0.000 C 
ATOM      9  C   UNL     1      -0.155  10.749  21.933  0.00  0.00    +0.000 C 
ENDBRANCH   5   6
BRANCH   5  10
ATOM     10  C   UNL     1       0.473  10.494  19.105  0.00  0.00    +0.000 C 
ATOM     11  O   UNL     1       0.980  11.500  18.611  0.00  0.00    +0.000 OA
ATOM     12  N   UNL     1      -0.814  10.083  18.825  0.00  0.00    +0.000 N 
ATOM     13  H   UNL     1      -1.264   9.425  19.448  0.00  0.00    +0.000 HD
BRANCH  12  14
ATOM     14  C   UNL     1      -1.651  10.756  17.840  0.00  0.00    +0.000 C 
ATOM     15  C   UNL     1      -2.036   9.762  16.740  0.00  0.00    +0.000 C 
BRANCH  14  16
ATOM     16  C   UNL     1      -2.835  11.441  18.502  0.00  0.00    +0.000 A 
ATOM     17  C   UNL     1      -4.112  11.299  17.935  0.00  0.00    +0.000 A 
ATOM     18  C   UNL     1      -5.236  11.883  18.527  0.00  0.00    +0.000 A 
ATOM     19  C   UNL     1      -5.102  12.628  19.696  0.00  0.00    +0.000 A 
ATOM     20  C   UNL     1      -3.843  12.794  20.265  0.00  0.00    +0.000 A 
ATOM     21  C   UNL     1      -2.718  12.213  19.671  0.00  0.00    +0.000 A 
ENDBRANCH  14  16
ENDBRANCH  12  14
ENDBRANCH   5  10
ENDBRANCH   3   5
BRANCH   1  22
ATOM     22  C   UNL     1       2.315   6.654  17.875  0.00  0.00    +0.000 C 
BRANCH  22  23
ATOM     23  C   UNL     1       1.958   5.628  18.964  0.00  0.00    +0.000 C 
BRANCH  23  24
ATOM     24  C   UNL     1       1.596   4.252  18.438  0.00  0.00    +0.000 C 
ATOM     25  O   UNL     1       1.047   4.079  17.352  0.00  0.00    +0.000 OA
ATOM     26  N   UNL     1       1.968   3.212  19.257  0.00  0.00    +0.000 N 
ATOM     27  H   UNL     1       1.900   3.356  20.270  0.00  0.00    +0.000 HD
BRANCH  26  28
ATOM     28  O   UNL     1       1.601   1.924  18.795  0.00  0.00    +0.000 OA
ATOM     29  H   UNL     1       2.201   1.798  18.029  0.00  0.00    +0.000 HD
ENDBRANCH  26  28
ENDBRANCH  23  24
ENDBRANCH  22  23
BRANCH  22  30
ATOM     30  C   UNL     1       3.715   6.382  17.276  0.00  0.00    +0.000 C 
BRANCH  30  31
ATOM     31  C   UNL     1       4.713   5.798  18.274  0.00  0.00    +0.000 C 
BRANCH  31  32
ATOM     32  C   UNL     1       5.837   5.032  17.577  0.00  0.00    +0.000 C 
BRANCH  32  33
ATOM     33  C   UNL     1       5.246   4.111  16.509  0.00  0.00    +0.000 C 
BRANCH  33  34
ATOM     34  C   UNL     1       6.226   3.860  15.369  0.00  0.00    +0.000 C 
BRANCH  34  35
ATOM     35  C   UNL     1       5.553   4.098  14.018  0.00  0.00    +0.000 C 
BRANCH  35  36
ATOM     36  C   UNL     1       6.470   3.669  12.877  0.00  0.00    +0.000 C 
BRANCH  36  38
ATOM     37  C   UNL     1       4.313   3.402  11.629  0.00  0.00    +0.000 C 
ATOM     38  C   UNL     1       5.716   2.854  11.828  0.00  0.00    +0.000 C 
ENDBRANCH  36  38
ENDBRANCH  35  36
ENDBRANCH  34  35
ENDBRANCH  33  34
ENDBRANCH  32  33
ENDBRANCH  31  32
ENDBRANCH  30  31
ENDBRANCH  22  30
ENDBRANCH   1  22
TORSDOF 17
ENDMDL
MODEL 5
REMARK VINA RESULT:      -7.0      2.883      8.974
REMARK  Name = 
REMARK  22 active torsions:
REMARK  status: ('A' for Active; 'I' for Inactive)
REMARK    1  A    between atoms: C_1  and  C_2
REMARK    2  A    between atoms: C_2  and  C_3
REMARK    3  A    between atoms: C_3  and  C_4
REMARK    4  A    between atoms: C_4  and  C_5
REMARK    5  A    between atoms: C_5  and  C_6
REMARK    6  A    between atoms: C_6  and  C_7
REMARK    7  A    between atoms: C_7  and  C_8
REMARK    8  A    between atoms: C_8  and  C_9
REMARK    9  A    between atoms: C_9  and  C_10
REMARK   10  A    between atoms: C_10  and  C_11
REMARK   11  A    between atoms: C_10  and  C_16
REMARK   12  A    between atoms: C_11  and  C_12
REMARK   13  A    between atoms: N_14  and  O_15
REMARK   14  A    between atoms: N_18  and  C_19
REMARK   15  A    between atoms: C_19  and  C_20
REMARK   16  A    between atoms: C_19  and  C_31
REMARK   17  A    between atoms: N_22  and  C_23
REMARK   18  A    between atoms: C_23  and  C_24
REMARK   19  A    between atoms: C_23  and  C_25
REMARK   20  A    between atoms: C_31  and  C_32
REMARK   21  A    between atoms: C_31  and  C_33
REMARK   22  A    between atoms: C_31  and  C_34
REMARK                            x       y       z     vdW  Elec       q    Type
REMARK                         _______ _______ _______ _____ _____    ______ ____
ROOT
ATOM      1  C   UNL     1       5.487   5.085  18.925  0.00  0.00    +0.000 C 
ATOM      2  O   UNL     1       5.904   5.477  20.012  0.00  0.00    +0.000 OA
ATOM      3  N   UNL     1       4.148   5.046  18.621  0.00  0.00    +0.000 N 
ATOM      4  H   UNL     1       3.850   4.908  17.661  0.00  0.00    +0.000 HD
ENDROOT
BRANCH   3   5
ATOM      5  C   UNL     1       3.126   5.518  19.555  0.00  0.00    +0.000 C 
BRANCH   5   6
ATOM      6  C   UNL     1       1.933   4.515  19.648  0.00  0.00    +0.000 C 
ATOM      7  C   UNL     1       2.389   3.239  20.395  0.00  0.00    +0.000 C 
ATOM      8  C   UNL     1       0.778   5.141  20.453  0.00  0.00    +0.000 C 
ATOM      9  C   UNL     1       1.397   4.091  18.267  0.00  0.00    +0.000 C 
ENDBRANCH   5   6
BRANCH   5  10
ATOM     10  C   UNL     1       2.717   6.941  19.098  0.00  0.00    +0.000 C 
ATOM     11  O   UNL     1       2.954   7.352  17.963  0.00  0.00    +0.000 OA
ATOM     12  N   UNL     1       2.074   7.699  20.055  0.00  0.00    +0.000 N 
ATOM     13  H   UNL     1       2.147   7.426  21.026  0.00  0.00    +0.000 HD
BRANCH  12  14
ATOM     14  C   UNL     1       1.533   9.022  19.768  0.00  0.00    +0.000 C 
ATOM     15  C   UNL     1       0.752   8.973  18.451  0.00  0.00    +0.000 C 
BRANCH  14  16
ATOM     16  C   UNL     1       0.734   9.556  20.945  0.00  0.00    +0.000 A 
ATOM     17  C   UNL     1      -0.110  10.662  20.754  0.00  0.00    +0.000 A 
ATOM     18  C   UNL     1      -0.889  11.167  21.799  0.00  0.00    +0.000 A 
ATOM     19  C   UNL     1      -0.832  10.579  23.061  0.00  0.00    +0.000 A 
ATOM     20  C   UNL     1       0.011   9.493  23.276  0.00  0.00    +0.000 A 
ATOM     21  C   UNL     1       0.793   8.989  22.231  0.00  0.00    +0.000 A 
ENDBRANCH  14  16
ENDBRANCH  12  14
ENDBRANCH   5  10
ENDBRANCH   3   5
BRANCH   1  22
ATOM     22  C   UNL     1       6.414   4.578  17.820  0.00  0.00    +0.000 C 
BRANCH  22  23
ATOM     23  C   UNL     1       7.847   5.095  18.034  0.00  0.00    +0.000 C 
BRANCH  23  24
ATOM     24  C   UNL     1       8.000   6.598  17.903  0.00  0.00    +0.000 C 
ATOM     25  O   UNL     1       7.721   7.206  16.873  0.00  0.00    +0.000 OA
ATOM     26  N   UNL     1       8.440   7.228  19.043  0.00  0.00    +0.000 N 
ATOM     27  H   UNL     1       9.131   6.739  19.622  0.00  0.00    +0.000 HD
BRANCH  26  28
ATOM     28  O   UNL     1       8.625   8.628  18.921  0.00  0.00    +0.000 OA
ATOM     29  H   UNL     1       7.838   8.984  19.388  0.00  0.00    +0.000 HD
ENDBRANCH  26  28
ENDBRANCH  23  24
ENDBRANCH  22  23
BRANCH  22  30
ATOM     30  C   UNL     1       5.841   5.040  16.460  0.00  0.00    +0.000 C 
BRANCH  30  31
ATOM     31  C   UNL     1       5.413   3.893  15.546  0.00  0.00    +0.000 C 
BRANCH  31  32
ATOM     32  C   UNL     1       5.376   4.317  14.077  0.00  0.00    +0.000 C 
BRANCH  32  33
ATOM     33  C   UNL     1       6.751   4.104  13.445  0.00  0.00    +0.000 C 
BRANCH  33  34
ATOM     34  C   UNL     1       6.647   3.521  12.041  0.00  0.00    +0.000 C 
BRANCH  34  35
ATOM     35  C   UNL     1       5.259   2.926  11.806  0.00  0.00    +0.000 C 
BRANCH  35  36
ATOM     36  C   UNL     1       5.345   1.690  10.915  0.00  0.00    +0.000 C 
BRANCH  36  38
ATOM     37  C   UNL     1       6.078  -0.670  11.331  0.00  0.00    +0.000 C 
ATOM     38  C   UNL     1       6.508   0.787  11.322  0.00  0.00    +0.000 C 
ENDBRANCH  36  38
ENDBRANCH  35  36
ENDBRANCH  34  35
ENDBRANCH  33  34
ENDBRANCH  32  33
ENDBRANCH  31  32
ENDBRANCH  30  31
ENDBRANCH  22  30
ENDBRANCH   1  22
TORSDOF 17
ENDMDL
MODEL 6
REMARK VINA RESULT:      -6.9      2.756      8.312
REMARK  Name = 
REMARK  22 active torsions:
REMARK  status: ('A' for Active; 'I' for Inactive)
REMARK    1  A    between atoms: C_1  and  C_2
REMARK    2  A    between atoms: C_2  and  C_3
REMARK    3  A    between atoms: C_3  and  C_4
REMARK    4  A    between atoms: C_4  and  C_5
REMARK    5  A    between atoms: C_5  and  C_6
REMARK    6  A    between atoms: C_6  and  C_7
REMARK    7  A    between atoms: C_7  and  C_8
REMARK    8  A    between atoms: C_8  and  C_9
REMARK    9  A    between atoms: C_9  and  C_10
REMARK   10  A    between atoms: C_10  and  C_11
REMARK   11  A    between atoms: C_10  and  C_16
REMARK   12  A    between atoms: C_11  and  C_12
REMARK   13  A    between atoms: N_14  and  O_15
REMARK   14  A    between atoms: N_18  and  C_19
REMARK   15  A    between atoms: C_19  and  C_20
REMARK   16  A    between atoms: C_19  and  C_31
REMARK   17  A    between atoms: N_22  and  C_23
REMARK   18  A    between atoms: C_23  and  C_24
REMARK   19  A    between atoms: C_23  and  C_25
REMARK   20  A    between atoms: C_31  and  C_32
REMARK   21  A    between atoms: C_31  and  C_33
REMARK   22  A    between atoms: C_31  and  C_34
REMARK                            x       y       z     vdW  Elec       q    Type
REMARK                         _______ _______ _______ _____ _____    ______ ____
ROOT
ATOM      1  C   UNL     1       5.248   5.503  18.547  0.00  0.00    +0.000 C 
ATOM      2  O   UNL     1       5.938   4.666  19.125  0.00  0.00    +0.000 OA
ATOM      3  N   UNL     1       3.882   5.549  18.681  0.00  0.00    +0.000 N 
ATOM      4  H   UNL     1       3.368   6.361  18.354  0.00  0.00    +0.000 HD
ENDROOT
BRANCH   3   5
ATOM      5  C   UNL     1       3.157   4.638  19.563  0.00  0.00    +0.000 C 
BRANCH   5   6
ATOM      6  C   UNL     1       2.370   3.562  18.750  0.00  0.00    +0.000 C 
ATOM      7  C   UNL     1       1.817   4.199  17.453  0.00  0.00    +0.000 C 
ATOM      8  C   UNL     1       3.312   2.413  18.343  0.00  0.00    +0.000 C 
ATOM      9  C   UNL     1       1.181   2.970  19.532  0.00  0.00    +0.000 C 
ENDBRANCH   5   6
BRANCH   5  10
ATOM     10  C   UNL     1       2.262   5.509  20.481  0.00  0.00    +0.000 C 
ATOM     11  O   UNL     1       1.779   5.070  21.523  0.00  0.00    +0.000 OA
ATOM     12  N   UNL     1       2.056   6.801  20.041  0.00  0.00    +0.000 N 
ATOM     13  H   UNL     1       2.242   7.023  19.071  0.00  0.00    +0.000 HD
BRANCH  12  14
ATOM     14  C   UNL     1       1.324   7.786  20.827  0.00  0.00    +0.000 C 
ATOM     15  C   UNL     1       2.178   8.210  22.026  0.00  0.00    +0.000 C 
BRANCH  14  16
ATOM     16  C   UNL     1       0.852   8.940  19.959  0.00  0.00    +0.000 A 
ATOM     17  C   UNL     1      -0.175   9.775  20.431  0.00  0.00    +0.000 A 
ATOM     18  C   UNL     1      -0.618  10.869  19.682  0.00  0.00    +0.000 A 
ATOM     19  C   UNL     1      -0.048  11.145  18.442  0.00  0.00    +0.000 A 
ATOM     20  C   UNL     1       0.958  10.320  17.949  0.00  0.00    +0.000 A 
ATOM     21  C   UNL     1       1.401   9.223  18.696  0.00  0.00    +0.000 A 
ENDBRANCH  14  16
ENDBRANCH  12  14
ENDBRANCH   5  10
ENDBRANCH   3   5
BRANCH   1  22
ATOM     22  C   UNL     1       5.840   6.550  17.603  0.00  0.00    +0.000 C 
BRANCH  22  23
ATOM     23  C   UNL     1       5.240   6.411  16.193  0.00  0.00    +0.000 C 
BRANCH  23  24
ATOM     24  C   UNL     1       5.458   5.056  15.547  0.00  0.00    +0.000 C 
ATOM     25  O   UNL     1       4.842   4.050  15.889  0.00  0.00    +0.000 OA
ATOM     26  N   UNL     1       6.374   5.054  14.521  0.00  0.00    +0.000 N 
ATOM     27  H   UNL     1       7.195   5.663  14.613  0.00  0.00    +0.000 HD
BRANCH  26  28
ATOM     28  O   UNL     1       6.616   3.786  13.936  0.00  0.00    +0.000 OA
ATOM     29  H   UNL     1       7.295   3.406  14.535  0.00  0.00    +0.000 HD
ENDBRANCH  26  28
ENDBRANCH  23  24
ENDBRANCH  22  23
BRANCH  22  30
ATOM     30  C   UNL     1       7.376   6.369  17.586  0.00  0.00    +0.000 C 
BRANCH  30  31
ATOM     31  C   UNL     1       8.127   7.377  18.454  0.00  0.00    +0.000 C 
BRANCH  31  32
ATOM     32  C   UNL     1       8.044   8.794  17.886  0.00  0.00    +0.000 C 
BRANCH  32  33
ATOM     33  C   UNL     1       8.918   9.734  18.716  0.00  0.00    +0.000 C 
BRANCH  33  34
ATOM     34  C   UNL     1       9.030  11.115  18.081  0.00  0.00    +0.000 C 
BRANCH  34  35
ATOM     35  C   UNL     1      10.496  11.497  17.878  0.00  0.00    +0.000 C 
BRANCH  35  36
ATOM     36  C   UNL     1      10.684  13.005  18.017  0.00  0.00    +0.000 C 
BRANCH  36  38
ATOM     37  C   UNL     1       9.168  15.000  18.108  0.00  0.00    +0.000 C 
ATOM     38  C   UNL     1       9.500  13.654  18.731  0.00  0.00    +0.000 C 
ENDBRANCH  36  38
ENDBRANCH  35  36
ENDBRANCH  34  35
ENDBRANCH  33  34
ENDBRANCH  32  33
ENDBRANCH  31  32
ENDBRANCH  30  31
ENDBRANCH  22  30
ENDBRANCH   1  22
TORSDOF 17
ENDMDL
MODEL 7
REMARK VINA RESULT:      -6.8      3.334      7.079
REMARK  Name = 
REMARK  22 active torsions:
REMARK  status: ('A' for Active; 'I' for Inactive)
REMARK    1  A    between atoms: C_1  and  C_2
REMARK    2  A    between atoms: C_2  and  C_3
REMARK    3  A    between atoms: C_3  and  C_4
REMARK    4  A    between atoms: C_4  and  C_5
REMARK    5  A    between atoms: C_5  and  C_6
REMARK    6  A    between atoms: C_6  and  C_7
REMARK    7  A    between atoms: C_7  and  C_8
REMARK    8  A    between atoms: C_8  and  C_9
REMARK    9  A    between atoms: C_9  and  C_10
REMARK   10  A    between atoms: C_10  and  C_11
REMARK   11  A    between atoms: C_10  and  C_16
REMARK   12  A    between atoms: C_11  and  C_12
REMARK   13  A    between atoms: N_14  and  O_15
REMARK   14  A    between atoms: N_18  and  C_19
REMARK   15  A    between atoms: C_19  and  C_20
REMARK   16  A    between atoms: C_19  and  C_31
REMARK   17  A    between atoms: N_22  and  C_23
REMARK   18  A    between atoms: C_23  and  C_24
REMARK   19  A    between atoms: C_23  and  C_25
REMARK   20  A    between atoms: C_31  and  C_32
REMARK   21  A    between atoms: C_31  and  C_33
REMARK   22  A    between atoms: C_31  and  C_34
REMARK                            x       y       z     vdW  Elec       q    Type
REMARK                         _______ _______ _______ _____ _____    ______ ____
ROOT
ATOM      1  C   UNL     1       3.377   5.170  17.472  0.00  0.00    +0.000 C 
ATOM      2  O   UNL     1       3.210   4.092  16.905  0.00  0.00    +0.000 OA
ATOM      3  N   UNL     1       4.618   5.737  17.624  0.00  0.00    +0.000 N 
ATOM      4  H   UNL     1       4.700   6.705  17.916  0.00  0.00    +0.000 HD
ENDROOT
BRANCH   3   5
ATOM      5  C   UNL     1       5.826   5.122  17.076  0.00  0.00    +0.000 C 
BRANCH   5   6
ATOM      6  C   UNL     1       7.087   5.492  17.918  0.00  0.00    +0.000 C 
ATOM      7  C   UNL     1       6.711   5.534  19.418  0.00  0.00    +0.000 C 
ATOM      8  C   UNL     1       8.178   4.419  17.739  0.00  0.00    +0.000 C 
ATOM      9  C   UNL     1       7.679   6.864  17.539  0.00  0.00    +0.000 C 
ENDBRANCH   5   6
BRANCH   5  10
ATOM     10  C   UNL     1       5.916   5.546  15.589  0.00  0.00    +0.000 C 
ATOM     11  O   UNL     1       5.457   6.616  15.190  0.00  0.00    +0.000 OA
ATOM     12  N   UNL     1       6.545   4.640  14.759  0.00  0.00    +0.000 N 
ATOM     13  H   UNL     1       6.656   3.685  15.073  0.00  0.00    +0.000 HD
BRANCH  12  14
ATOM     14  C   UNL     1       6.805   4.920  13.353  0.00  0.00    +0.000 C 
ATOM     15  C   UNL     1       8.230   5.461  13.201  0.00  0.00    +0.000 C 
BRANCH  14  16
ATOM     16  C   UNL     1       6.503   3.709  12.487  0.00  0.00    +0.000 A 
ATOM     17  C   UNL     1       5.165   3.369  12.228  0.00  0.00    +0.000 A 
ATOM     18  C   UNL     1       4.839   2.283  11.410  0.00  0.00    +0.000 A 
ATOM     19  C   UNL     1       5.848   1.510  10.841  0.00  0.00    +0.000 A 
ATOM     20  C   UNL     1       7.180   1.819  11.098  0.00  0.00    +0.000 A 
ATOM     21  C   UNL     1       7.507   2.904  11.919  0.00  0.00    +0.000 A 
ENDBRANCH  14  16
ENDBRANCH  12  14
ENDBRANCH   5  10
ENDBRANCH   3   5
BRANCH   1  22
ATOM     22  C   UNL     1       2.224   5.965  18.085  0.00  0.00    +0.000 C 
BRANCH  22  23
ATOM     23  C   UNL     1       2.758   7.155  18.900  0.00  0.00    +0.000 C 
BRANCH  23  24
ATOM     24  C   UNL     1       1.845   8.366  18.918  0.00  0.00    +0.000 C 
ATOM     25  O   UNL     1       1.273   8.751  19.935  0.00  0.00    +0.000 OA
ATOM     26  N   UNL     1       1.741   9.020  17.713  0.00  0.00    +0.000 N 
ATOM     27  H   UNL     1       1.741   8.450  16.860  0.00  0.00    +0.000 HD
BRANCH  26  28
ATOM     28  O   UNL     1       0.860  10.129  17.707  0.00  0.00    +0.000 OA
ATOM     29  H   UNL     1       0.014   9.722  17.419  0.00  0.00    +0.000 HD
ENDBRANCH  26  28
ENDBRANCH  23  24
ENDBRANCH  22  23
BRANCH  22  30
ATOM     30  C   UNL     1       1.389   5.004  18.964  0.00  0.00    +0.000 C 
BRANCH  30  31
ATOM     31  C   UNL     1       0.943   3.733  18.241  0.00  0.00    +0.000 C 
BRANCH  31  32
ATOM     32  C   UNL     1       0.858   2.537  19.189  0.00  0.00    +0.000 C 
BRANCH  32  33
ATOM     33  C   UNL     1       0.655   3.030  20.622  0.00  0.00    +0.000 C 
BRANCH  33  34
ATOM     34  C   UNL     1       1.766   2.551  21.549  0.00  0.00    +0.000 C 
BRANCH  34  35
ATOM     35  C   UNL     1       3.094   3.214  21.186  0.00  0.00    +0.000 C 
BRANCH  35  36
ATOM     36  C   UNL     1       4.145   2.163  20.842  0.00  0.00    +0.000 C 
BRANCH  36  38
ATOM     37  C   UNL     1       3.852   1.205  18.544  0.00  0.00    +0.000 C 
ATOM     38  C   UNL     1       4.569   2.254  19.378  0.00  0.00    +0.000 C 
ENDBRANCH  36  38
ENDBRANCH  35  36
ENDBRANCH  34  35
ENDBRANCH  33  34
ENDBRANCH  32  33
ENDBRANCH  31  32
ENDBRANCH  30  31
ENDBRANCH  22  30
ENDBRANCH   1  22
TORSDOF 17
ENDMDL
MODEL 8
REMARK VINA RESULT:      -6.7      2.977      9.565
REMARK  Name = 
REMARK  22 active torsions:
REMARK  status: ('A' for Active; 'I' for Inactive)
REMARK    1  A    between atoms: C_1  and  C_2
REMARK    2  A    between atoms: C_2  and  C_3
REMARK    3  A    between atoms: C_3  and  C_4
REMARK    4  A    between atoms: C_4  and  C_5
REMARK    5  A    between atoms: C_5  and  C_6
REMARK    6  A    between atoms: C_6  and  C_7
REMARK    7  A    between atoms: C_7  and  C_8
REMARK    8  A    between atoms: C_8  and  C_9
REMARK    9  A    between atoms: C_9  and  C_10
REMARK   10  A    between atoms: C_10  and  C_11
REMARK   11  A    between atoms: C_10  and  C_16
REMARK   12  A    between atoms: C_11  and  C_12
REMARK   13  A    between atoms: N_14  and  O_15
REMARK   14  A    between atoms: N_18  and  C_19
REMARK   15  A    between atoms: C_19  and  C_20
REMARK   16  A    between atoms: C_19  and  C_31
REMARK   17  A    between atoms: N_22  and  C_23
REMARK   18  A    between atoms: C_23  and  C_24
REMARK   19  A    between atoms: C_23  and  C_25
REMARK   20  A    between atoms: C_31  and  C_32
REMARK   21  A    between atoms: C_31  and  C_33
REMARK   22  A    between atoms: C_31  and  C_34
REMARK                            x       y       z     vdW  Elec       q    Type
REMARK                         _______ _______ _______ _____ _____    ______ ____
ROOT
ATOM      1  C   UNL     1       1.765   8.979  18.247  0.00  0.00    +0.000 C 
ATOM      2  O   UNL     1       1.158   8.936  17.180  0.00  0.00    +0.000 OA
ATOM      3  N   UNL     1       1.631  10.023  19.129  0.00  0.00    +0.000 N 
ATOM      4  H   UNL     1       1.987   9.936  20.075  0.00  0.00    +0.000 HD
ENDROOT
BRANCH   3   5
ATOM      5  C   UNL     1       0.715  11.135  18.882  0.00  0.00    +0.000 C 
BRANCH   5   6
ATOM      6  C   UNL     1       1.453  12.509  18.948  0.00  0.00    +0.000 C 
ATOM      7  C   UNL     1       0.462  13.644  18.598  0.00  0.00    +0.000 C 
ATOM      8  C   UNL     1       1.971  12.763  20.377  0.00  0.00    +0.000 C 
ATOM      9  C   UNL     1       2.641  12.598  17.970  0.00  0.00    +0.000 C 
ENDBRANCH   5   6
BRANCH   5  10
ATOM     10  C   UNL     1      -0.449  10.997  19.896  0.00  0.00    +0.000 C 
ATOM     11  O   UNL     1      -1.626  10.993  19.536  0.00  0.00    +0.000 OA
ATOM     12  N   UNL     1      -0.064  10.881  21.216  0.00  0.00    +0.000 N 
ATOM     13  H   UNL     1       0.873  11.158  21.478  0.00  0.00    +0.000 HD
BRANCH  12  14
ATOM     14  C   UNL     1      -1.021  10.645  22.290  0.00  0.00    +0.000 C 
ATOM     15  C   UNL     1      -0.392   9.713  23.330  0.00  0.00    +0.000 C 
BRANCH  14  16
ATOM     16  C   UNL     1      -1.540  11.954  22.860  0.00  0.00    +0.000 A 
ATOM     17  C   UNL     1      -2.849  12.008  23.367  0.00  0.00    +0.000 A 
ATOM     18  C   UNL     1      -3.358  13.181  23.932  0.00  0.00    +0.000 A 
ATOM     19  C   UNL     1      -2.569  14.327  23.994  0.00  0.00    +0.000 A 
ATOM     20  C   UNL     1      -1.275  14.299  23.482  0.00  0.00    +0.000 A 
ATOM     21  C   UNL     1      -0.766  13.127  22.914  0.00  0.00    +0.000 A 
ENDBRANCH  14  16
ENDBRANCH  12  14
ENDBRANCH   5  10
ENDBRANCH   3   5
BRANCH   1  22
ATOM     22  C   UNL     1       2.748   7.890  18.681  0.00  0.00    +0.000 C 
BRANCH  22  23
ATOM     23  C   UNL     1       3.068   6.949  17.507  0.00  0.00    +0.000 C 
BRANCH  23  24
ATOM     24  C   UNL     1       4.548   6.698  17.288  0.00  0.00    +0.000 C 
ATOM     25  O   UNL     1       5.337   6.529  18.214  0.00  0.00    +0.000 OA
ATOM     26  N   UNL     1       4.927   6.635  15.968  0.00  0.00    +0.000 N 
ATOM     27  H   UNL     1       4.459   7.266  15.307  0.00  0.00    +0.000 HD
BRANCH  26  28
ATOM     28  O   UNL     1       6.314   6.441  15.750  0.00  0.00    +0.000 OA
ATOM     29  H   UNL     1       6.393   6.576  14.781  0.00  0.00    +0.000 HD
ENDBRANCH  26  28
ENDBRANCH  23  24
ENDBRANCH  22  23
BRANCH  22  30
ATOM     30  C   UNL     1       2.123   7.122  19.869  0.00  0.00    +0.000 C 
BRANCH  30  31
ATOM     31  C   UNL     1       2.325   5.609  19.803  0.00  0.00    +0.000 C 
BRANCH  31  32
ATOM     32  C   UNL     1       2.078   4.941  21.156  0.00  0.00    +0.000 C 
BRANCH  32  33
ATOM     33  C   UNL     1       1.484   3.549  20.942  0.00  0.00    +0.000 C 
BRANCH  33  34
ATOM     34  C   UNL     1       0.689   3.464  19.644  0.00  0.00    +0.000 C 
BRANCH  34  35
ATOM     35  C   UNL     1       1.046   2.191  18.877  0.00  0.00    +0.000 C 
BRANCH  35  36
ATOM     36  C   UNL     1       2.100   2.481  17.814  0.00  0.00    +0.000 C 
BRANCH  36  38
ATOM     37  C   UNL     1       4.495   3.154  18.125  0.00  0.00    +0.000 C 
ATOM     38  C   UNL     1       3.487   2.024  18.261  0.00  0.00    +0.000 C 
ENDBRANCH  36  38
ENDBRANCH  35  36
ENDBRANCH  34  35
ENDBRANCH  33  34
ENDBRANCH  32  33
ENDBRANCH  31  32
ENDBRANCH  30  31
ENDBRANCH  22  30
ENDBRANCH   1  22
TORSDOF 17
ENDMDL
MODEL 9
REMARK VINA RESULT:      -6.7      1.388      1.780
REMARK  Name = 
REMARK  22 active torsions:
REMARK  status: ('A' for Active; 'I' for Inactive)
REMARK    1  A    between atoms: C_1  and  C_2
REMARK    2  A    between atoms: C_2  and  C_3
REMARK    3  A    between atoms: C_3  and  C_4
REMARK    4  A    between atoms: C_4  and  C_5
REMARK    5  A    between atoms: C_5  and  C_6
REMARK    6  A    between atoms: C_6  and  C_7
REMARK    7  A    between atoms: C_7  and  C_8
REMARK    8  A    between atoms: C_8  and  C_9
REMARK    9  A    between atoms: C_9  and  C_10
REMARK   10  A    between atoms: C_10  and  C_11
REMARK   11  A    between atoms: C_10  and  C_16
REMARK   12  A    between atoms: C_11  and  C_12
REMARK   13  A    between atoms: N_14  and  O_15
REMARK   14  A    between atoms: N_18  and  C_19
REMARK   15  A    between atoms: C_19  and  C_20
REMARK   16  A    between atoms: C_19  and  C_31
REMARK   17  A    between atoms: N_22  and  C_23
REMARK   18  A    between atoms: C_23  and  C_24
REMARK   19  A    between atoms: C_23  and  C_25
REMARK   20  A    between atoms: C_31  and  C_32
REMARK   21  A    between atoms: C_31  and  C_33
REMARK   22  A    between atoms: C_31  and  C_34
REMARK                            x       y       z     vdW  Elec       q    Type
REMARK                         _______ _______ _______ _____ _____    ______ ____
ROOT
ATOM      1  C   UNL     1       2.788   6.155  19.245  0.00  0.00    +0.000 C 
ATOM      2  O   UNL     1       3.802   5.676  19.748  0.00  0.00    +0.000 OA
ATOM      3  N   UNL     1       1.949   5.423  18.440  0.00  0.00    +0.000 N 
ATOM      4  H   UNL     1       1.031   5.785  18.206  0.00  0.00    +0.000 HD
ENDROOT
BRANCH   3   5
ATOM      5  C   UNL     1       2.176   4.005  18.168  0.00  0.00    +0.000 C 
BRANCH   5   6
ATOM      6  C   UNL     1       1.715   3.114  19.364  0.00  0.00    +0.000 C 
ATOM      7  C   UNL     1       2.952   2.662  20.176  0.00  0.00    +0.000 C 
ATOM      8  C   UNL     1       0.805   3.923  20.307  0.00  0.00    +0.000 C 
ATOM      9  C   UNL     1       0.958   1.850  18.911  0.00  0.00    +0.000 C 
ENDBRANCH   5   6
BRANCH   5  10
ATOM     10  C   UNL     1       3.675   3.847  17.807  0.00  0.00    +0.000 C 
ATOM     11  O   UNL     1       4.360   2.932  18.264  0.00  0.00    +0.000 OA
ATOM     12  N   UNL     1       4.173   4.801  16.944  0.00  0.00    +0.000 N 
ATOM     13  H   UNL     1       3.658   5.664  16.818  0.00  0.00    +0.000 HD
BRANCH  12  14
ATOM     14  C   UNL     1       5.533   4.748  16.422  0.00  0.00    +0.000 C 
ATOM     15  C   UNL     1       5.508   5.028  14.917  0.00  0.00    +0.000 C 
BRANCH  14  16
ATOM     16  C   UNL     1       6.459   5.661  17.209  0.00  0.00    +0.000 A 
ATOM     17  C   UNL     1       7.108   5.158  18.350  0.00  0.00    +0.000 A 
ATOM     18  C   UNL     1       7.994   5.950  19.086  0.00  0.00    +0.000 A 
ATOM     19  C   UNL     1       8.242   7.265  18.700  0.00  0.00    +0.000 A 
ATOM     20  C   UNL     1       7.597   7.787  17.583  0.00  0.00    +0.000 A 
ATOM     21  C   UNL     1       6.708   6.996  16.847  0.00  0.00    +0.000 A 
ENDBRANCH  14  16
ENDBRANCH  12  14
ENDBRANCH   5  10
ENDBRANCH   3   5
BRANCH   1  22
ATOM     22  C   UNL     1       2.382   7.616  19.442  0.00  0.00    +0.000 C 
BRANCH  22  23
ATOM     23  C   UNL     1       0.956   7.711  20.012  0.00  0.00    +0.000 C 
BRANCH  23  24
ATOM     24  C   UNL     1       0.858   8.421  21.348  0.00  0.00    +0.000 C 
ATOM     25  O   UNL     1      -0.215   8.668  21.892  0.00  0.00    +0.000 OA
ATOM     26  N   UNL     1       2.070   8.730  21.920  0.00  0.00    +0.000 N 
ATOM     27  H   UNL     1       2.833   9.016  21.296  0.00  0.00    +0.000 HD
BRANCH  26  28
ATOM     28  O   UNL     1       1.992   9.430  23.150  0.00  0.00    +0.000 OA
ATOM     29  H   UNL     1       1.068   9.763  23.142  0.00  0.00    +0.000 HD
ENDBRANCH  26  28
ENDBRANCH  23  24
ENDBRANCH  22  23
BRANCH  22  30
ATOM     30  C   UNL     1       2.498   8.337  18.079  0.00  0.00    +0.000 C 
BRANCH  30  31
ATOM     31  C   UNL     1       1.406   9.377  17.834  0.00  0.00    +0.000 C 
BRANCH  31  32
ATOM     32  C   UNL     1       1.767  10.736  18.433  0.00  0.00    +0.000 C 
BRANCH  32  33
ATOM     33  C   UNL     1       0.501  11.578  18.598  0.00  0.00    +0.000 C 
BRANCH  33  34
ATOM     34  C   UNL     1      -0.714  10.719  18.927  0.00  0.00    +0.000 C 
BRANCH  34  35
ATOM     35  C   UNL     1      -1.870  11.036  17.978  0.00  0.00    +0.000 C 
BRANCH  35  36
ATOM     36  C   UNL     1      -2.061   9.909  16.967  0.00  0.00    +0.000 C 
BRANCH  36  38
ATOM     37  C   UNL     1      -2.967  10.199  14.648  0.00  0.00    +0.000 C 
ATOM     38  C   UNL     1      -3.317  10.119  16.125  0.00  0.00    +0.000 C 
ENDBRANCH  36  38
ENDBRANCH  35  36
ENDBRANCH  34  35
ENDBRANCH  33  34
ENDBRANCH  32  33
ENDBRANCH  31  32
ENDBRANCH  30  31
ENDBRANCH  22  30
ENDBRANCH   1  22
TORSDOF 17
ENDMDL
