MODEL 1
REMARK VINA RESULT:      -8.2      0.000      0.000
REMARK  Name = 
REMARK  4 active torsions:
REMARK  status: ('A' for Active; 'I' for Inactive)
REMARK    1  A    between atoms: C_1  and  N_2
REMARK    2  A    between atoms: C_4  and  C_5
REMARK    3  A    between atoms: C_5  and  C_6
REMARK    4  A    between atoms: C_11  and  C_12
REMARK                            x       y       z     vdW  Elec       q    Type
REMARK                         _______ _______ _______ _____ _____    ______ ____
ROOT
ATOM      1  C   UNL     1       1.923   8.996  18.124  0.00  0.00    +0.000 C 
ATOM      2  O   UNL     1       1.250   9.078  17.100  0.00  0.00    +0.000 OA
ATOM      3  N   UNL     1       1.607   9.491  19.374  0.00  0.00    +0.000 N 
ATOM      4  C   UNL     1       0.420  10.137  19.574  0.00  0.00    +0.000 A 
ATOM      5  N   UNL     1      -0.612  10.156  18.780  0.00  0.00    +0.000 NA
ATOM      6  C   UNL     1      -1.568  11.040  19.241  0.00  0.00    +0.000 A 
ATOM      7  C   UNL     1      -1.246  11.641  20.445  0.00  0.00    +0.000 A 
ATOM      8  S   UNL     1       0.282  11.051  21.003  0.00  0.00    +0.000 S 
ATOM      9  H   UNL     1       2.300   9.523  20.111  0.00  0.00    +0.000 HD
ENDROOT
BRANCH   6  10
ATOM     10  C   UNL     1      -2.762  11.281  18.435  0.00  0.00    +0.000 A 
ATOM     11  C   UNL     1      -3.874  11.892  19.045  0.00  0.00    +0.000 A 
ATOM     12  C   UNL     1      -5.062  12.102  18.344  0.00  0.00    +0.000 A 
ATOM     13  C   UNL     1      -5.159  11.700  17.015  0.00  0.00    +0.000 A 
ATOM     14  C   UNL     1      -4.065  11.101  16.392  0.00  0.00    +0.000 A 
ATOM     15  C   UNL     1      -2.872  10.893  17.095  0.00  0.00    +0.000 A 
ENDBRANCH   6  10
BRANCH   1  16
ATOM     16  C   UNL     1       3.244   8.282  18.067  0.00  0.00    +0.000 C 
BRANCH  16  20
ATOM     17  C   UNL     1       1.239   4.698  20.489  0.00  0.00    +0.000 C 
ATOM     18  N   UNL     1       2.153   5.066  19.425  0.00  0.00    +0.000 N 
ATOM     19  N   UNL     1       2.343   6.405  19.219  0.00  0.00    +0.000 NA
ATOM     20  C   UNL     1       3.132   6.791  18.266  0.00  0.00    +0.000 A 
ATOM     21  C   UNL     1       3.912   5.854  17.424  0.00  0.00    +0.000 A 
ATOM     22  C   UNL     1       4.863   6.266  16.481  0.00  0.00    +0.000 A 
ATOM     23  C   UNL     1       5.563   5.310  15.734  0.00  0.00    +0.000 A 
ATOM     24  C   UNL     1       5.320   3.951  15.922  0.00  0.00    +0.000 A 
ATOM     25  C   UNL     1       4.381   3.541  16.866  0.00  0.00    +0.000 A 
ATOM     26  C   UNL     1       3.684   4.495  17.620  0.00  0.00    +0.000 A 
ATOM     27  C   UNL     1       2.729   4.060  18.656  0.00  0.00    +0.000 A 
ATOM     28  O   UNL     1       2.502   2.863  18.813  0.00  0.00    +0.000 OA
ENDBRANCH  16  20
ENDBRANCH   1  16
TORSDOF 3
ENDMDL
MODEL 2
REMARK VINA RESULT:      -8.2      2.488      8.567
REMARK  Name = 
REMARK  4 active torsions:
REMARK  status: ('A' for Active; 'I' for Inactive)
REMARK    1  A    between atoms: C_1  and  N_2
REMARK    2  A    between atoms: C_4  and  C_5
REMARK    3  A    between atoms: C_5  and  C_6
REMARK    4  A    between atoms: C_11  and  C_12
REMARK                            x       y       z     vdW  Elec       q    Type
REMARK                         _______ _______ _______ _____ _____    ______ ____
ROOT
ATOM      1  C   UNL     1       1.503   8.291  20.313  0.00  0.00    +0.000 C 
ATOM      2  O   UNL     1       1.909   8.668  19.216  0.00  0.00    +0.000 OA
ATOM      3  N   UNL     1       1.669   7.043  20.881  0.00  0.00    +0.000 N 
ATOM      4  C   UNL     1       2.371   6.076  20.218  0.00  0.00    +0.000 A 
ATOM      5  N   UNL     1       3.143   6.233  19.181  0.00  0.00    +0.000 NA
ATOM      6  C   UNL     1       3.558   5.010  18.691  0.00  0.00    +0.000 A 
ATOM      7  C   UNL     1       3.122   3.928  19.435  0.00  0.00    +0.000 A 
ATOM      8  S   UNL     1       2.192   4.482  20.785  0.00  0.00    +0.000 S 
ATOM      9  H   UNL     1       1.152   6.776  21.710  0.00  0.00    +0.000 HD
ENDROOT
BRANCH   6  10
ATOM     10  C   UNL     1       4.353   4.967  17.466  0.00  0.00    +0.000 A 
ATOM     11  C   UNL     1       4.623   6.176  16.797  0.00  0.00    +0.000 A 
ATOM     12  C   UNL     1       5.330   6.197  15.595  0.00  0.00    +0.000 A 
ATOM     13  C   UNL     1       5.781   5.005  15.038  0.00  0.00    +0.000 A 
ATOM     14  C   UNL     1       5.531   3.799  15.691  0.00  0.00    +0.000 A 
ATOM     15  C   UNL     1       4.823   3.777  16.899  0.00  0.00    +0.000 A 
ENDBRANCH   6  10
BRANCH   1  16
ATOM     16  C   UNL     1       0.739   9.256  21.173  0.00  0.00    +0.000 C 
BRANCH  16  20
ATOM     17  C   UNL     1       2.282  13.766  21.110  0.00  0.00    +0.000 C 
ATOM     18  N   UNL     1       1.369  12.801  20.531  0.00  0.00    +0.000 N 
ATOM     19  N   UNL     1       1.392  11.541  21.064  0.00  0.00    +0.000 NA
ATOM     20  C   UNL     1       0.612  10.632  20.569  0.00  0.00    +0.000 A 
ATOM     21  C   UNL     1      -0.373  10.900  19.495  0.00  0.00    +0.000 A 
ATOM     22  C   UNL     1      -1.308   9.958  19.047  0.00  0.00    +0.000 A 
ATOM     23  C   UNL     1      -2.211  10.299  18.033  0.00  0.00    +0.000 A 
ATOM     24  C   UNL     1      -2.187  11.573  17.466  0.00  0.00    +0.000 A 
ATOM     25  C   UNL     1      -1.264  12.513  17.919  0.00  0.00    +0.000 A 
ATOM     26  C   UNL     1      -0.364  12.175  18.938  0.00  0.00    +0.000 A 
ATOM     27  C   UNL     1       0.577  13.187  19.454  0.00  0.00    +0.000 A 
ATOM     28  O   UNL     1       0.610  14.305  18.945  0.00  0.00    +0.000 OA
ENDBRANCH  16  20
ENDBRANCH   1  16
TORSDOF 3
ENDMDL
MODEL 3
REMARK VINA RESULT:      -8.1      0.652      1.133
REMARK  Name = 
REMARK  4 active torsions:
REMARK  status: ('A' for Active; 'I' for Inactive)
REMARK    1  A    between atoms: C_1  and  N_2
REMARK    2  A    between atoms: C_4  and  C_5
REMARK    3  A    between atoms: C_5  and  C_6
REMARK    4  A    between atoms: C_11  and  C_12
REMARK                            x       y       z     vdW  Elec       q    Type
REMARK                         _______ _______ _______ _____ _____    ______ ____
ROOT
ATOM      1  C   UNL     1       2.207   8.623  18.132  0.00  0.00    +0.000 C 
ATOM      2  O   UNL     1       1.576   8.718  17.082  0.00  0.00    +0.000 OA
ATOM      3  N   UNL     1       1.846   9.115  19.370  0.00  0.00    +0.000 N 
ATOM      4  C   UNL     1       0.658   9.773  19.526  0.00  0.00    +0.000 A 
ATOM      5  N   UNL     1      -0.341   9.807  18.691  0.00  0.00    +0.000 NA
ATOM      6  C   UNL     1      -1.305  10.699  19.119  0.00  0.00    +0.000 A 
ATOM      7  C   UNL     1      -1.025  11.291  20.338  0.00  0.00    +0.000 A 
ATOM      8  S   UNL     1       0.473  10.682  20.953  0.00  0.00    +0.000 S 
ATOM      9  H   UNL     1       2.509   9.137  20.135  0.00  0.00    +0.000 HD
ENDROOT
BRANCH   6  10
ATOM     10  C   UNL     1      -2.463  10.956  18.266  0.00  0.00    +0.000 A 
ATOM     11  C   UNL     1      -2.421  10.526  16.926  0.00  0.00    +0.000 A 
ATOM     12  C   UNL     1      -3.472  10.787  16.047  0.00  0.00    +0.000 A 
ATOM     13  C   UNL     1      -4.588  11.487  16.494  0.00  0.00    +0.000 A 
ATOM     14  C   UNL     1      -4.651  11.913  17.820  0.00  0.00    +0.000 A 
ATOM     15  C   UNL     1      -3.598  11.649  18.703  0.00  0.00    +0.000 A 
ENDBRANCH   6  10
BRANCH   1  16
ATOM     16  C   UNL     1       3.521   7.895  18.124  0.00  0.00    +0.000 C 
BRANCH  16  20
ATOM     17  C   UNL     1       1.213   3.990  19.591  0.00  0.00    +0.000 C 
ATOM     18  N   UNL     1       2.255   4.519  18.732  0.00  0.00    +0.000 N 
ATOM     19  N   UNL     1       2.475   5.867  18.797  0.00  0.00    +0.000 NA
ATOM     20  C   UNL     1       3.380   6.397  18.034  0.00  0.00    +0.000 A 
ATOM     21  C   UNL     1       4.256   5.605  17.140  0.00  0.00    +0.000 A 
ATOM     22  C   UNL     1       5.321   6.153  16.412  0.00  0.00    +0.000 A 
ATOM     23  C   UNL     1       6.106   5.329  15.597  0.00  0.00    +0.000 A 
ATOM     24  C   UNL     1       5.836   3.965  15.504  0.00  0.00    +0.000 A 
ATOM     25  C   UNL     1       4.783   3.417  16.235  0.00  0.00    +0.000 A 
ATOM     26  C   UNL     1       4.001   4.240  17.057  0.00  0.00    +0.000 A 
ATOM     27  C   UNL     1       2.921   3.652  17.871  0.00  0.00    +0.000 A 
ATOM     28  O   UNL     1       2.671   2.452  17.779  0.00  0.00    +0.000 OA
ENDBRANCH  16  20
ENDBRANCH   1  16
TORSDOF 3
ENDMDL
MODEL 4
REMARK VINA RESULT:      -7.9      2.483      8.413
REMARK  Name = 
REMARK  4 active torsions:
REMARK  status: ('A' for Active; 'I' for Inactive)
REMARK    1  A    between atoms: C_1  and  N_2
REMARK    2  A    between atoms: C_4  and  C_5
REMARK    3  A    between atoms: C_5  and  C_6
REMARK    4  A    between atoms: C_11  and  C_12
REMARK                            x       y       z     vdW  Elec       q    Type
REMARK                         _______ _______ _______ _____ _____    ______ ____
ROOT
ATOM      1  C   UNL     1       1.382   9.744  18.822  0.00  0.00    +0.000 C 
ATOM      2  O   UNL     1       0.794   9.180  19.742  0.00  0.00    +0.000 OA
ATOM      3  N   UNL     1       2.300   9.190  17.954  0.00  0.00    +0.000 N 
ATOM      4  C   UNL     1       2.625   7.866  18.053  0.00  0.00    +0.000 A 
ATOM      5  N   UNL     1       1.997   6.948  18.731  0.00  0.00    +0.000 NA
ATOM      6  C   UNL     1       2.706   5.762  18.722  0.00  0.00    +0.000 A 
ATOM      7  C   UNL     1       3.861   5.802  17.961  0.00  0.00    +0.000 A 
ATOM      8  S   UNL     1       4.028   7.362  17.232  0.00  0.00    +0.000 S 
ATOM      9  H   UNL     1       2.856   9.774  17.341  0.00  0.00    +0.000 HD
ENDROOT
BRANCH   6  10
ATOM     10  C   UNL     1       2.215   4.635  19.511  0.00  0.00    +0.000 A 
ATOM     11  C   UNL     1       2.508   4.600  20.888  0.00  0.00    +0.000 A 
ATOM     12  C   UNL     1       2.114   3.526  21.686  0.00  0.00    +0.000 A 
ATOM     13  C   UNL     1       1.418   2.464  21.119  0.00  0.00    +0.000 A 
ATOM     14  C   UNL     1       1.111   2.485  19.759  0.00  0.00    +0.000 A 
ATOM     15  C   UNL     1       1.504   3.565  18.958  0.00  0.00    +0.000 A 
ENDBRANCH   6  10
BRANCH   1  16
ATOM     16  C   UNL     1       1.102  11.198  18.568  0.00  0.00    +0.000 C 
BRANCH  16  20
ATOM     17  C   UNL     1      -1.306  13.712  21.825  0.00  0.00    +0.000 C 
ATOM     18  N   UNL     1      -1.398  12.877  20.643  0.00  0.00    +0.000 N 
ATOM     19  N   UNL     1      -0.220  12.386  20.149  0.00  0.00    +0.000 NA
ATOM     20  C   UNL     1      -0.241  11.652  19.080  0.00  0.00    +0.000 A 
ATOM     21  C   UNL     1      -1.491  11.244  18.397  0.00  0.00    +0.000 A 
ATOM     22  C   UNL     1      -1.529  10.347  17.321  0.00  0.00    +0.000 A 
ATOM     23  C   UNL     1      -2.757  10.008  16.740  0.00  0.00    +0.000 A 
ATOM     24  C   UNL     1      -3.943  10.557  17.225  0.00  0.00    +0.000 A 
ATOM     25  C   UNL     1      -3.906  11.442  18.300  0.00  0.00    +0.000 A 
ATOM     26  C   UNL     1      -2.679  11.777  18.888  0.00  0.00    +0.000 A 
ATOM     27  C   UNL     1      -2.644  12.672  20.060  0.00  0.00    +0.000 A 
ATOM     28  O   UNL     1      -3.687  13.169  20.479  0.00  0.00    +0.000 OA
ENDBRANCH  16  20
ENDBRANCH   1  16
TORSDOF 3
ENDMDL
MODEL 5
REMARK VINA RESULT:      -7.9      3.071      4.880
REMARK  Name = 
REMARK  4 active torsions:
REMARK  status: ('A' for Active; 'I' for Inactive)
REMARK    1  A    between atoms: C_1  and  N_2
REMARK    2  A    between atoms: C_4  and  C_5
REMARK    3  A    between atoms: C_5  and  C_6
REMARK    4  A    between atoms: C_11  and  C_12
REMARK                            x       y       z     vdW  Elec       q    Type
REMARK                         _______ _______ _______ _____ _____    ______ ____
ROOT
ATOM      1  C   UNL     1       2.577   5.279  18.771  0.00  0.00    +0.000 C 
ATOM      2  O   UNL     1       1.890   5.145  19.781  0.00  0.00    +0.000 OA
ATOM      3  N   UNL     1       2.839   6.450  18.089  0.00  0.00    +0.000 N 
ATOM      4  C   UNL     1       2.329   7.635  18.540  0.00  0.00    +0.000 A 
ATOM      5  N   UNL     1       1.797   7.872  19.705  0.00  0.00    +0.000 NA
ATOM      6  C   UNL     1       1.251   9.141  19.744  0.00  0.00    +0.000 A 
ATOM      7  C   UNL     1       1.447   9.874  18.587  0.00  0.00    +0.000 A 
ATOM      8  S   UNL     1       2.357   8.941  17.449  0.00  0.00    +0.000 S 
ATOM      9  H   UNL     1       3.273   6.434  17.174  0.00  0.00    +0.000 HD
ENDROOT
BRANCH   6  10
ATOM     10  C   UNL     1       0.517   9.562  20.935  0.00  0.00    +0.000 A 
ATOM     11  C   UNL     1      -0.322  10.689  20.843  0.00  0.00    +0.000 A 
ATOM     12  C   UNL     1      -1.009  11.174  21.957  0.00  0.00    +0.000 A 
ATOM     13  C   UNL     1      -0.868  10.538  23.186  0.00  0.00    +0.000 A 
ATOM     14  C   UNL     1      -0.048   9.415  23.293  0.00  0.00    +0.000 A 
ATOM     15  C   UNL     1       0.639   8.927  22.175  0.00  0.00    +0.000 A 
ENDBRANCH   6  10
BRANCH   1  16
ATOM     16  C   UNL     1       3.233   4.066  18.175  0.00  0.00    +0.000 C 
BRANCH  16  20
ATOM     17  C   UNL     1       5.242   4.131  13.852  0.00  0.00    +0.000 C 
ATOM     18  N   UNL     1       5.412   4.429  15.261  0.00  0.00    +0.000 N 
ATOM     19  N   UNL     1       4.363   4.119  16.082  0.00  0.00    +0.000 NA
ATOM     20  C   UNL     1       4.452   4.385  17.348  0.00  0.00    +0.000 A 
ATOM     21  C   UNL     1       5.672   4.941  17.979  0.00  0.00    +0.000 A 
ATOM     22  C   UNL     1       5.822   5.109  19.362  0.00  0.00    +0.000 A 
ATOM     23  C   UNL     1       7.014   5.634  19.876  0.00  0.00    +0.000 A 
ATOM     24  C   UNL     1       8.054   5.991  19.019  0.00  0.00    +0.000 A 
ATOM     25  C   UNL     1       7.909   5.815  17.645  0.00  0.00    +0.000 A 
ATOM     26  C   UNL     1       6.719   5.284  17.130  0.00  0.00    +0.000 A 
ATOM     27  C   UNL     1       6.586   5.049  15.680  0.00  0.00    +0.000 A 
ATOM     28  O   UNL     1       7.495   5.377  14.922  0.00  0.00    +0.000 OA
ENDBRANCH  16  20
ENDBRANCH   1  16
TORSDOF 3
ENDMDL
MODEL 6
REMARK VINA RESULT:      -7.8      2.368      8.880
REMARK  Name = 
REMARK  4 active torsions:
REMARK  status: ('A' for Active; 'I' for Inactive)
REMARK    1  A    between atoms: C_1  and  N_2
REMARK    2  A    between atoms: C_4  and  C_5
REMARK    3  A    between atoms: C_5  and  C_6
REMARK    4  A    between atoms: C_11  and  C_12
REMARK                            x       y       z     vdW  Elec       q    Type
REMARK                         _______ _______ _______ _____ _____    ______ ____
ROOT
ATOM      1  C   UNL     1       1.429   8.465  20.375  0.00  0.00    +0.000 C 
ATOM      2  O   UNL     1       1.885   8.865  19.307  0.00  0.00    +0.000 OA
ATOM      3  N   UNL     1       1.524   7.192  20.899  0.00  0.00    +0.000 N 
ATOM      4  C   UNL     1       2.204   6.220  20.220  0.00  0.00    +0.000 A 
ATOM      5  N   UNL     1       3.014   6.381  19.213  0.00  0.00    +0.000 NA
ATOM      6  C   UNL     1       3.391   5.160  18.689  0.00  0.00    +0.000 A 
ATOM      7  C   UNL     1       2.886   4.071  19.377  0.00  0.00    +0.000 A 
ATOM      8  S   UNL     1       1.940   4.615  20.720  0.00  0.00    +0.000 S 
ATOM      9  H   UNL     1       0.971   6.916  21.702  0.00  0.00    +0.000 HD
ENDROOT
BRANCH   6  10
ATOM     10  C   UNL     1       4.221   5.128  17.487  0.00  0.00    +0.000 A 
ATOM     11  C   UNL     1       4.547   6.347  16.862  0.00  0.00    +0.000 A 
ATOM     12  C   UNL     1       5.291   6.382  15.683  0.00  0.00    +0.000 A 
ATOM     13  C   UNL     1       5.723   5.193  15.104  0.00  0.00    +0.000 A 
ATOM     14  C   UNL     1       5.417   3.976  15.714  0.00  0.00    +0.000 A 
ATOM     15  C   UNL     1       4.673   3.942  16.899  0.00  0.00    +0.000 A 
ENDBRANCH   6  10
BRANCH   1  16
ATOM     16  C   UNL     1       0.681   9.431  21.250  0.00  0.00    +0.000 C 
BRANCH  16  20
ATOM     17  C   UNL     1      -1.833  10.013  17.241  0.00  0.00    +0.000 C 
ATOM     18  N   UNL     1      -1.575  10.506  18.580  0.00  0.00    +0.000 N 
ATOM     19  N   UNL     1      -0.610   9.853  19.296  0.00  0.00    +0.000 NA
ATOM     20  C   UNL     1      -0.354  10.238  20.508  0.00  0.00    +0.000 A 
ATOM     21  C   UNL     1      -1.001  11.409  21.144  0.00  0.00    +0.000 A 
ATOM     22  C   UNL     1      -0.637  11.909  22.402  0.00  0.00    +0.000 A 
ATOM     23  C   UNL     1      -1.294  13.029  22.925  0.00  0.00    +0.000 A 
ATOM     24  C   UNL     1      -2.310  13.652  22.201  0.00  0.00    +0.000 A 
ATOM     25  C   UNL     1      -2.666  13.161  20.946  0.00  0.00    +0.000 A 
ATOM     26  C   UNL     1      -2.004  12.044  20.419  0.00  0.00    +0.000 A 
ATOM     27  C   UNL     1      -2.344  11.558  19.069  0.00  0.00    +0.000 A 
ATOM     28  O   UNL     1      -3.250  12.096  18.436  0.00  0.00    +0.000 OA
ENDBRANCH  16  20
ENDBRANCH   1  16
TORSDOF 3
ENDMDL
MODEL 7
REMARK VINA RESULT:      -7.7      1.342      2.965
REMARK  Name = 
REMARK  4 active torsions:
REMARK  status: ('A' for Active; 'I' for Inactive)
REMARK    1  A    between atoms: C_1  and  N_2
REMARK    2  A    between atoms: C_4  and  C_5
REMARK    3  A    between atoms: C_5  and  C_6
REMARK    4  A    between atoms: C_11  and  C_12
REMARK                            x       y       z     vdW  Elec       q    Type
REMARK                         _______ _______ _______ _____ _____    ______ ____
ROOT
ATOM      1  C   UNL     1       2.287   8.100  18.655  0.00  0.00    +0.000 C 
ATOM      2  O   UNL     1       1.776   8.019  17.540  0.00  0.00    +0.000 OA
ATOM      3  N   UNL     1       1.831   8.836  19.731  0.00  0.00    +0.000 N 
ATOM      4  C   UNL     1       0.678   9.562  19.626  0.00  0.00    +0.000 A 
ATOM      5  N   UNL     1      -0.225   9.477  18.691  0.00  0.00    +0.000 NA
ATOM      6  C   UNL     1      -1.170  10.475  18.833  0.00  0.00    +0.000 A 
ATOM      7  C   UNL     1      -0.981  11.276  19.945  0.00  0.00    +0.000 A 
ATOM      8  S   UNL     1       0.403  10.733  20.829  0.00  0.00    +0.000 S 
ATOM      9  H   UNL     1       2.411   8.975  20.549  0.00  0.00    +0.000 HD
ENDROOT
BRANCH   6  10
ATOM     10  C   UNL     1      -2.215  10.614  17.821  0.00  0.00    +0.000 A 
ATOM     11  C   UNL     1      -2.060   9.935  16.597  0.00  0.00    +0.000 A 
ATOM     12  C   UNL     1      -2.995  10.068  15.570  0.00  0.00    +0.000 A 
ATOM     13  C   UNL     1      -4.106  10.886  15.751  0.00  0.00    +0.000 A 
ATOM     14  C   UNL     1      -4.281  11.559  16.960  0.00  0.00    +0.000 A 
ATOM     15  C   UNL     1      -3.343  11.423  17.991  0.00  0.00    +0.000 A 
ENDBRANCH   6  10
BRANCH   1  16
ATOM     16  C   UNL     1       3.546   7.330  18.932  0.00  0.00    +0.000 C 
BRANCH  16  20
ATOM     17  C   UNL     1       5.127   4.158  15.743  0.00  0.00    +0.000 C 
ATOM     18  N   UNL     1       4.281   4.379  16.900  0.00  0.00    +0.000 N 
ATOM     19  N   UNL     1       4.229   5.658  17.382  0.00  0.00    +0.000 NA
ATOM     20  C   UNL     1       3.505   5.909  18.429  0.00  0.00    +0.000 A 
ATOM     21  C   UNL     1       2.660   4.892  19.097  0.00  0.00    +0.000 A 
ATOM     22  C   UNL     1       1.777   5.184  20.146  0.00  0.00    +0.000 A 
ATOM     23  C   UNL     1       1.006   4.163  20.713  0.00  0.00    +0.000 A 
ATOM     24  C   UNL     1       1.110   2.855  20.241  0.00  0.00    +0.000 A 
ATOM     25  C   UNL     1       1.980   2.566  19.192  0.00  0.00    +0.000 A 
ATOM     26  C   UNL     1       2.747   3.588  18.618  0.00  0.00    +0.000 A 
ATOM     27  C   UNL     1       3.628   3.292  17.473  0.00  0.00    +0.000 A 
ATOM     28  O   UNL     1       3.733   2.138  17.066  0.00  0.00    +0.000 OA
ENDBRANCH  16  20
ENDBRANCH   1  16
TORSDOF 3
ENDMDL
MODEL 8
REMARK VINA RESULT:      -7.6      2.063      8.807
REMARK  Name = 
REMARK  4 active torsions:
REMARK  status: ('A' for Active; 'I' for Inactive)
REMARK    1  A    between atoms: C_1  and  N_2
REMARK    2  A    between atoms: C_4  and  C_5
REMARK    3  A    between atoms: C_5  and  C_6
REMARK    4  A    between atoms: C_11  and  C_12
REMARK                            x       y       z     vdW  Elec       q    Type
REMARK                         _______ _______ _______ _____ _____    ______ ____
ROOT
ATOM      1  C   UNL     1       1.327   9.918  18.663  0.00  0.00    +0.000 C 
ATOM      2  O   UNL     1       1.826   9.840  17.543  0.00  0.00    +0.000 OA
ATOM      3  N   UNL     1       1.347   8.959  19.655  0.00  0.00    +0.000 N 
ATOM      4  C   UNL     1       1.995   7.773  19.449  0.00  0.00    +0.000 A 
ATOM      5  N   UNL     1       2.835   7.489  18.495  0.00  0.00    +0.000 NA
ATOM      6  C   UNL     1       3.165   6.148  18.517  0.00  0.00    +0.000 A 
ATOM      7  C   UNL     1       2.592   5.444  19.562  0.00  0.00    +0.000 A 
ATOM      8  S   UNL     1       1.642   6.513  20.536  0.00  0.00    +0.000 S 
ATOM      9  H   UNL     1       0.763   9.047  20.477  0.00  0.00    +0.000 HD
ENDROOT
BRANCH   6  10
ATOM     10  C   UNL     1       4.020   5.608  17.463  0.00  0.00    +0.000 A 
ATOM     11  C   UNL     1       4.674   6.508  16.601  0.00  0.00    +0.000 A 
ATOM     12  C   UNL     1       5.462   6.056  15.542  0.00  0.00    +0.000 A 
ATOM     13  C   UNL     1       5.610   4.690  15.325  0.00  0.00    +0.000 A 
ATOM     14  C   UNL     1       4.976   3.783  16.175  0.00  0.00    +0.000 A 
ATOM     15  C   UNL     1       4.188   4.237  17.239  0.00  0.00    +0.000 A 
ENDBRANCH   6  10
BRANCH   1  16
ATOM     16  C   UNL     1       0.606  11.179  19.047  0.00  0.00    +0.000 C 
BRANCH  16  20
ATOM     17  C   UNL     1      -2.711   9.706  15.956  0.00  0.00    +0.000 C 
ATOM     18  N   UNL     1      -2.446  10.464  17.164  0.00  0.00    +0.000 N 
ATOM     19  N   UNL     1      -1.140  10.542  17.561  0.00  0.00    +0.000 NA
ATOM     20  C   UNL     1      -0.848  11.188  18.647  0.00  0.00    +0.000 A 
ATOM     21  C   UNL     1      -1.851  11.923  19.452  0.00  0.00    +0.000 A 
ATOM     22  C   UNL     1      -1.525  12.730  20.550  0.00  0.00    +0.000 A 
ATOM     23  C   UNL     1      -2.537  13.399  21.249  0.00  0.00    +0.000 A 
ATOM     24  C   UNL     1      -3.869  13.268  20.860  0.00  0.00    +0.000 A 
ATOM     25  C   UNL     1      -4.193  12.474  19.762  0.00  0.00    +0.000 A 
ATOM     26  C   UNL     1      -3.180  11.809  19.056  0.00  0.00    +0.000 A 
ATOM     27  C   UNL     1      -3.517  11.011  17.863  0.00  0.00    +0.000 A 
ATOM     28  O   UNL     1      -4.692  10.882  17.527  0.00  0.00    +0.000 OA
ENDBRANCH  16  20
ENDBRANCH   1  16
TORSDOF 3
ENDMDL
MODEL 9
REMARK VINA RESULT:      -7.6      2.400      8.895
REMARK  Name = 
REMARK  4 active torsions:
REMARK  status: ('A' for Active; 'I' for Inactive)
REMARK    1  A    between atoms: C_1  and  N_2
REMARK    2  A    between atoms: C_4  and  C_5
REMARK    3  A    between atoms: C_5  and  C_6
REMARK    4  A    between atoms: C_11  and  C_12
REMARK                            x       y       z     vdW  Elec       q    Type
REMARK                         _______ _______ _______ _____ _____    ______ ____
ROOT
ATOM      1  C   UNL     1       0.896   9.741  19.616  0.00  0.00    +0.000 C 
ATOM      2  O   UNL     1       0.603   9.071  20.603  0.00  0.00    +0.000 OA
ATOM      3  N   UNL     1       1.682   9.356  18.549  0.00  0.00    +0.000 N 
ATOM      4  C   UNL     1       2.210   8.096  18.505  0.00  0.00    +0.000 A 
ATOM      5  N   UNL     1       1.878   7.076  19.244  0.00  0.00    +0.000 NA
ATOM      6  C   UNL     1       2.734   6.014  19.024  0.00  0.00    +0.000 A 
ATOM      7  C   UNL     1       3.685   6.251  18.047  0.00  0.00    +0.000 A 
ATOM      8  S   UNL     1       3.467   7.836  17.388  0.00  0.00    +0.000 S 
ATOM      9  H   UNL     1       2.005  10.034  17.869  0.00  0.00    +0.000 HD
ENDROOT
BRANCH   6  10
ATOM     10  C   UNL     1       2.591   4.806  19.832  0.00  0.00    +0.000 A 
ATOM     11  C   UNL     1       3.613   3.839  19.784  0.00  0.00    +0.000 A 
ATOM     12  C   UNL     1       3.511   2.640  20.491  0.00  0.00    +0.000 A 
ATOM     13  C   UNL     1       2.381   2.387  21.261  0.00  0.00    +0.000 A 
ATOM     14  C   UNL     1       1.362   3.337  21.327  0.00  0.00    +0.000 A 
ATOM     15  C   UNL     1       1.465   4.541  20.620  0.00  0.00    +0.000 A 
ENDBRANCH   6  10
BRANCH   1  16
ATOM     16  C   UNL     1       0.360  11.140  19.507  0.00  0.00    +0.000 C 
BRANCH  16  20
ATOM     17  C   UNL     1      -2.567   9.915  15.949  0.00  0.00    +0.000 C 
ATOM     18  N   UNL     1      -2.441  10.605  17.218  0.00  0.00    +0.000 N 
ATOM     19  N   UNL     1      -1.195  10.626  17.781  0.00  0.00    +0.000 NA
ATOM     20  C   UNL     1      -1.030  11.210  18.927  0.00  0.00    +0.000 A 
ATOM     21  C   UNL     1      -2.111  11.933  19.636  0.00  0.00    +0.000 A 
ATOM     22  C   UNL     1      -1.910  12.675  20.807  0.00  0.00    +0.000 A 
ATOM     23  C   UNL     1      -2.989  13.337  21.407  0.00  0.00    +0.000 A 
ATOM     24  C   UNL     1      -4.263  13.262  20.846  0.00  0.00    +0.000 A 
ATOM     25  C   UNL     1      -4.461  12.532  19.676  0.00  0.00    +0.000 A 
ATOM     26  C   UNL     1      -3.382  11.875  19.071  0.00  0.00    +0.000 A 
ATOM     27  C   UNL     1      -3.581  11.147  17.804  0.00  0.00    +0.000 A 
ATOM     28  O   UNL     1      -4.706  11.067  17.316  0.00  0.00    +0.000 OA
ENDBRANCH  16  20
ENDBRANCH   1  16
TORSDOF 3
ENDMDL
