MODEL 1
REMARK VINA RESULT:      -6.6      0.000      0.000
REMARK  Name = 
REMARK  10 active torsions:
REMARK  status: ('A' for Active; 'I' for Inactive)
REMARK    1  A    between atoms: C_1  and  C_2
REMARK    2  A    between atoms: C_2  and  C_3
REMARK    3  A    between atoms: C_3  and  C_4
REMARK    4  A    between atoms: C_4  and  C_5
REMARK    5  A    between atoms: C_5  and  C_6
REMARK    6  A    between atoms: C_6  and  C_7
REMARK    7  A    between atoms: C_7  and  O_8
REMARK    8  A    between atoms: O_8  and  C_9
REMARK    9  A    between atoms: C_12  and  C_13
REMARK   10  A    between atoms: N_15  and  C_16
REMARK                            x       y       z     vdW  Elec       q    Type
REMARK                         _______ _______ _______ _____ _____    ______ ____
ROOT
ATOM      1  C   UNL     1       4.138   6.076  18.282  0.00  0.00    +0.000 A 
ATOM      2  C   UNL     1       3.419   5.977  19.470  0.00  0.00    +0.000 A 
ATOM      3  C   UNL     1       2.414   6.887  19.783  0.00  0.00    +0.000 A 
ATOM      4  C   UNL     1       2.111   7.923  18.907  0.00  0.00    +0.000 A 
ATOM      5  C   UNL     1       2.825   8.048  17.707  0.00  0.00    +0.000 A 
ATOM      6  C   UNL     1       3.840   7.121  17.402  0.00  0.00    +0.000 A 
ENDROOT
BRANCH   4   7
ATOM      7  C   UNL     1       1.069   8.880  19.360  0.00  0.00    +0.000 C 
ATOM      8  O   UNL     1       0.484   9.581  18.540  0.00  0.00    +0.000 OA
ATOM      9  N   UNL     1       0.806   8.944  20.707  0.00  0.00    +0.000 N 
ATOM     10  H   UNL     1       1.443   8.515  21.372  0.00  0.00    +0.000 HD
BRANCH   9  11
ATOM     11  C   UNL     1      -0.181   9.875  21.219  0.00  0.00    +0.000 C 
ATOM     12  C   UNL     1      -0.772   9.431  22.538  0.00  0.00    +0.000 C 
ATOM     13  C   UNL     1      -1.071  10.732  23.234  0.00  0.00    +0.000 C 
ATOM     14  O   UNL     1      -0.100  11.666  22.763  0.00  0.00    +0.000 OA
ATOM     15  C   UNL     1       0.443  11.203  21.597  0.00  0.00    +0.000 C 
ATOM     16  O   UNL     1       1.312  11.785  20.965  0.00  0.00    +0.000 OA
ENDBRANCH   9  11
ENDBRANCH   4   7
BRANCH   1  17
ATOM     17  O   UNL     1       5.142   5.199  17.931  0.00  0.00    +0.000 OA
BRANCH  17  18
ATOM     18  C   UNL     1       4.663   3.991  17.326  0.00  0.00    +0.000 C 
BRANCH  18  19
ATOM     19  C   UNL     1       3.989   3.084  18.343  0.00  0.00    +0.000 C 
BRANCH  19  20
ATOM     20  C   UNL     1       2.731   2.455  17.737  0.00  0.00    +0.000 C 
BRANCH  20  21
ATOM     21  C   UNL     1       1.483   3.249  18.110  0.00  0.00    +0.000 C 
BRANCH  21  22
ATOM     22  C   UNL     1       0.778   2.638  19.320  0.00  0.00    +0.000 C 
BRANCH  22  24
ATOM     23  C   UNL     1       1.775   2.850  21.619  0.00  0.00    +0.000 C 
ATOM     24  C   UNL     1       0.930   3.526  20.553  0.00  0.00    +0.000 C 
ENDBRANCH  22  24
ENDBRANCH  21  22
ENDBRANCH  20  21
ENDBRANCH  19  20
ENDBRANCH  18  19
ENDBRANCH  17  18
ENDBRANCH   1  17
TORSDOF 9
ENDMDL
MODEL 2
REMARK VINA RESULT:      -6.6      3.362      8.286
REMARK  Name = 
REMARK  10 active torsions:
REMARK  status: ('A' for Active; 'I' for Inactive)
REMARK    1  A    between atoms: C_1  and  C_2
REMARK    2  A    between atoms: C_2  and  C_3
REMARK    3  A    between atoms: C_3  and  C_4
REMARK    4  A    between atoms: C_4  and  C_5
REMARK    5  A    between atoms: C_5  and  C_6
REMARK    6  A    between atoms: C_6  and  C_7
REMARK    7  A    between atoms: C_7  and  O_8
REMARK    8  A    between atoms: O_8  and  C_9
REMARK    9  A    between atoms: C_12  and  C_13
REMARK   10  A    between atoms: N_15  and  C_16
REMARK                            x       y       z     vdW  Elec       q    Type
REMARK                         _______ _______ _______ _____ _____    ______ ____
ROOT
ATOM      1  C   UNL     1       1.558   8.864  19.402  0.00  0.00    +0.000 A 
ATOM      2  C   UNL     1       2.155   8.901  18.145  0.00  0.00    +0.000 A 
ATOM      3  C   UNL     1       2.929   7.842  17.682  0.00  0.00    +0.000 A 
ATOM      4  C   UNL     1       3.122   6.718  18.477  0.00  0.00    +0.000 A 
ATOM      5  C   UNL     1       2.537   6.658  19.749  0.00  0.00    +0.000 A 
ATOM      6  C   UNL     1       1.757   7.738  20.207  0.00  0.00    +0.000 A 
ENDROOT
BRANCH   4   7
ATOM      7  C   UNL     1       4.016   5.669  17.921  0.00  0.00    +0.000 C 
ATOM      8  O   UNL     1       4.146   4.601  18.510  0.00  0.00    +0.000 OA
ATOM      9  N   UNL     1       4.678   5.953  16.751  0.00  0.00    +0.000 N 
ATOM     10  H   UNL     1       4.718   6.907  16.405  0.00  0.00    +0.000 HD
BRANCH   9  11
ATOM     11  C   UNL     1       5.586   4.983  16.168  0.00  0.00    +0.000 C 
ATOM     12  C   UNL     1       5.331   4.758  14.695  0.00  0.00    +0.000 C 
ATOM     13  C   UNL     1       6.700   4.443  14.155  0.00  0.00    +0.000 C 
ATOM     14  O   UNL     1       7.624   5.153  14.978  0.00  0.00    +0.000 OA
ATOM     15  C   UNL     1       7.015   5.489  16.154  0.00  0.00    +0.000 C 
ATOM     16  O   UNL     1       7.555   6.114  17.055  0.00  0.00    +0.000 OA
ENDBRANCH   9  11
ENDBRANCH   4   7
BRANCH   1  17
ATOM     17  O   UNL     1       0.786   9.890  19.903  0.00  0.00    +0.000 OA
BRANCH  17  18
ATOM     18  C   UNL     1       0.561  10.949  18.963  0.00  0.00    +0.000 C 
BRANCH  18  19
ATOM     19  C   UNL     1      -0.847  11.511  19.078  0.00  0.00    +0.000 C 
BRANCH  19  20
ATOM     20  C   UNL     1      -1.841  10.592  18.361  0.00  0.00    +0.000 C 
BRANCH  20  21
ATOM     21  C   UNL     1      -3.063  11.369  17.882  0.00  0.00    +0.000 C 
BRANCH  21  22
ATOM     22  C   UNL     1      -3.785  10.630  16.756  0.00  0.00    +0.000 C 
BRANCH  22  24
ATOM     23  C   UNL     1      -3.368  10.112  14.330  0.00  0.00    +0.000 C 
ATOM     24  C   UNL     1      -2.792  10.076  15.736  0.00  0.00    +0.000 C 
ENDBRANCH  22  24
ENDBRANCH  21  22
ENDBRANCH  20  21
ENDBRANCH  19  20
ENDBRANCH  18  19
ENDBRANCH  17  18
ENDBRANCH   1  17
TORSDOF 9
ENDMDL
MODEL 3
REMARK VINA RESULT:      -6.6      5.073      8.671
REMARK  Name = 
REMARK  10 active torsions:
REMARK  status: ('A' for Active; 'I' for Inactive)
REMARK    1  A    between atoms: C_1  and  C_2
REMARK    2  A    between atoms: C_2  and  C_3
REMARK    3  A    between atoms: C_3  and  C_4
REMARK    4  A    between atoms: C_4  and  C_5
REMARK    5  A    between atoms: C_5  and  C_6
REMARK    6  A    between atoms: C_6  and  C_7
REMARK    7  A    between atoms: C_7  and  O_8
REMARK    8  A    between atoms: O_8  and  C_9
REMARK    9  A    between atoms: C_12  and  C_13
REMARK   10  A    between atoms: N_15  and  C_16
REMARK                            x       y       z     vdW  Elec       q    Type
REMARK                         _______ _______ _______ _____ _____    ______ ____
ROOT
ATOM      1  C   UNL     1       7.449   7.325  17.710  0.00  0.00    +0.000 A 
ATOM      2  C   UNL     1       6.178   7.089  17.193  0.00  0.00    +0.000 A 
ATOM      3  C   UNL     1       5.372   6.072  17.695  0.00  0.00    +0.000 A 
ATOM      4  C   UNL     1       5.829   5.266  18.731  0.00  0.00    +0.000 A 
ATOM      5  C   UNL     1       7.107   5.479  19.266  0.00  0.00    +0.000 A 
ATOM      6  C   UNL     1       7.914   6.511  18.748  0.00  0.00    +0.000 A 
ENDROOT
BRANCH   4   7
ATOM      7  C   UNL     1       4.921   4.168  19.155  0.00  0.00    +0.000 C 
ATOM      8  O   UNL     1       5.389   3.120  19.590  0.00  0.00    +0.000 OA
ATOM      9  N   UNL     1       3.570   4.376  19.029  0.00  0.00    +0.000 N 
ATOM     10  H   UNL     1       3.222   5.154  18.476  0.00  0.00    +0.000 HD
BRANCH   9  11
ATOM     11  C   UNL     1       2.629   3.335  19.398  0.00  0.00    +0.000 C 
ATOM     12  C   UNL     1       1.466   3.861  20.209  0.00  0.00    +0.000 C 
ATOM     13  C   UNL     1       0.333   2.954  19.812  0.00  0.00    +0.000 C 
ATOM     14  O   UNL     1       0.599   2.553  18.469  0.00  0.00    +0.000 OA
ATOM     15  C   UNL     1       1.919   2.763  18.188  0.00  0.00    +0.000 C 
ATOM     16  O   UNL     1       2.439   2.524  17.107  0.00  0.00    +0.000 OA
ENDBRANCH   9  11
ENDBRANCH   4   7
BRANCH   1  17
ATOM     17  O   UNL     1       8.282   8.318  17.242  0.00  0.00    +0.000 OA
BRANCH  17  18
ATOM     18  C   UNL     1       8.080   9.585  17.883  0.00  0.00    +0.000 C 
BRANCH  18  19
ATOM     19  C   UNL     1       9.069   9.802  19.017  0.00  0.00    +0.000 C 
BRANCH  19  20
ATOM     20  C   UNL     1      10.012  10.962  18.680  0.00  0.00    +0.000 C 
BRANCH  20  21
ATOM     21  C   UNL     1       9.306  12.017  17.835  0.00  0.00    +0.000 C 
BRANCH  21  22
ATOM     22  C   UNL     1       9.220  13.353  18.572  0.00  0.00    +0.000 C 
BRANCH  22  24
ATOM     23  C   UNL     1      11.091  14.026  17.032  0.00  0.00    +0.000 C 
ATOM     24  C   UNL     1      10.521  14.142  18.436  0.00  0.00    +0.000 C 
ENDBRANCH  22  24
ENDBRANCH  21  22
ENDBRANCH  20  21
ENDBRANCH  19  20
ENDBRANCH  18  19
ENDBRANCH  17  18
ENDBRANCH   1  17
TORSDOF 9
ENDMDL
MODEL 4
REMARK VINA RESULT:      -6.6      4.846      7.400
REMARK  Name = 
REMARK  10 active torsions:
REMARK  status: ('A' for Active; 'I' for Inactive)
REMARK    1  A    between atoms: C_1  and  C_2
REMARK    2  A    between atoms: C_2  and  C_3
REMARK    3  A    between atoms: C_3  and  C_4
REMARK    4  A    between atoms: C_4  and  C_5
REMARK    5  A    between atoms: C_5  and  C_6
REMARK    6  A    between atoms: C_6  and  C_7
REMARK    7  A    between atoms: C_7  and  O_8
REMARK    8  A    between atoms: O_8  and  C_9
REMARK    9  A    between atoms: C_12  and  C_13
REMARK   10  A    between atoms: N_15  and  C_16
REMARK                            x       y       z     vdW  Elec       q    Type
REMARK                         _______ _______ _______ _____ _____    ______ ____
ROOT
ATOM      1  C   UNL     1       6.599   5.036  14.835  0.00  0.00    +0.000 A 
ATOM      2  C   UNL     1       5.246   5.101  15.155  0.00  0.00    +0.000 A 
ATOM      3  C   UNL     1       4.811   5.017  16.474  0.00  0.00    +0.000 A 
ATOM      4  C   UNL     1       5.730   4.861  17.505  0.00  0.00    +0.000 A 
ATOM      5  C   UNL     1       7.098   4.786  17.209  0.00  0.00    +0.000 A 
ATOM      6  C   UNL     1       7.526   4.873  15.870  0.00  0.00    +0.000 A 
ENDROOT
BRANCH   4   7
ATOM      7  C   UNL     1       5.163   4.715  18.870  0.00  0.00    +0.000 C 
ATOM      8  O   UNL     1       5.853   4.980  19.851  0.00  0.00    +0.000 OA
ATOM      9  N   UNL     1       3.867   4.273  18.977  0.00  0.00    +0.000 N 
ATOM     10  H   UNL     1       3.399   3.864  18.174  0.00  0.00    +0.000 HD
BRANCH   9  11
ATOM     11  C   UNL     1       3.262   4.084  20.282  0.00  0.00    +0.000 C 
ATOM     12  C   UNL     1       1.752   4.151  20.239  0.00  0.00    +0.000 C 
ATOM     13  C   UNL     1       1.336   3.210  21.338  0.00  0.00    +0.000 C 
ATOM     14  O   UNL     1       2.355   2.214  21.414  0.00  0.00    +0.000 OA
ATOM     15  C   UNL     1       3.488   2.680  20.808  0.00  0.00    +0.000 C 
ATOM     16  O   UNL     1       4.525   2.043  20.706  0.00  0.00    +0.000 OA
ENDBRANCH   9  11
ENDBRANCH   4   7
BRANCH   1  17
ATOM     17  O   UNL     1       7.075   5.114  13.544  0.00  0.00    +0.000 OA
BRANCH  17  18
ATOM     18  C   UNL     1       7.339   3.835  12.953  0.00  0.00    +0.000 C 
BRANCH  18  19
ATOM     19  C   UNL     1       6.821   3.761  11.526  0.00  0.00    +0.000 C 
BRANCH  19  20
ATOM     20  C   UNL     1       5.656   2.769  11.439  0.00  0.00    +0.000 C 
BRANCH  20  21
ATOM     21  C   UNL     1       4.341   3.427  11.842  0.00  0.00    +0.000 C 
BRANCH  21  22
ATOM     22  C   UNL     1       3.251   3.173  10.802  0.00  0.00    +0.000 C 
BRANCH  22  24
ATOM     23  C   UNL     1       2.237   4.800   9.173  0.00  0.00    +0.000 C 
ATOM     24  C   UNL     1       3.481   4.011   9.546  0.00  0.00    +0.000 C 
ENDBRANCH  22  24
ENDBRANCH  21  22
ENDBRANCH  20  21
ENDBRANCH  19  20
ENDBRANCH  18  19
ENDBRANCH  17  18
ENDBRANCH   1  17
TORSDOF 9
ENDMDL
MODEL 5
REMARK VINA RESULT:      -6.5      5.147      8.473
REMARK  Name = 
REMARK  10 active torsions:
REMARK  status: ('A' for Active; 'I' for Inactive)
REMARK    1  A    between atoms: C_1  and  C_2
REMARK    2  A    between atoms: C_2  and  C_3
REMARK    3  A    between atoms: C_3  and  C_4
REMARK    4  A    between atoms: C_4  and  C_5
REMARK    5  A    between atoms: C_5  and  C_6
REMARK    6  A    between atoms: C_6  and  C_7
REMARK    7  A    between atoms: C_7  and  O_8
REMARK    8  A    between atoms: O_8  and  C_9
REMARK    9  A    between atoms: C_12  and  C_13
REMARK   10  A    between atoms: N_15  and  C_16
REMARK                            x       y       z     vdW  Elec       q    Type
REMARK                         _______ _______ _______ _____ _____    ______ ____
ROOT
ATOM      1  C   UNL     1       7.454   7.511  17.715  0.00  0.00    +0.000 A 
ATOM      2  C   UNL     1       7.849   6.610  18.701  0.00  0.00    +0.000 A 
ATOM      3  C   UNL     1       7.027   5.555  19.086  0.00  0.00    +0.000 A 
ATOM      4  C   UNL     1       5.784   5.384  18.489  0.00  0.00    +0.000 A 
ATOM      5  C   UNL     1       5.360   6.281  17.498  0.00  0.00    +0.000 A 
ATOM      6  C   UNL     1       6.201   7.345  17.118  0.00  0.00    +0.000 A 
ENDROOT
BRANCH   4   7
ATOM      7  C   UNL     1       4.954   4.268  19.013  0.00  0.00    +0.000 C 
ATOM      8  O   UNL     1       5.494   3.258  19.452  0.00  0.00    +0.000 OA
ATOM      9  N   UNL     1       3.589   4.418  18.973  0.00  0.00    +0.000 N 
ATOM     10  H   UNL     1       3.173   5.159  18.418  0.00  0.00    +0.000 HD
BRANCH   9  11
ATOM     11  C   UNL     1       2.721   3.355  19.445  0.00  0.00    +0.000 C 
ATOM     12  C   UNL     1       1.666   3.850  20.409  0.00  0.00    +0.000 C 
ATOM     13  C   UNL     1       0.504   2.930  20.147  0.00  0.00    +0.000 C 
ATOM     14  O   UNL     1       0.598   2.553  18.774  0.00  0.00    +0.000 OA
ATOM     15  C   UNL     1       1.868   2.789  18.327  0.00  0.00    +0.000 C 
ATOM     16  O   UNL     1       2.245   2.576  17.184  0.00  0.00    +0.000 OA
ENDBRANCH   9  11
ENDBRANCH   4   7
BRANCH   1  17
ATOM     17  O   UNL     1       8.234   8.570  17.304  0.00  0.00    +0.000 OA
BRANCH  17  18
ATOM     18  C   UNL     1       8.537   9.500  18.352  0.00  0.00    +0.000 C 
BRANCH  18  19
ATOM     19  C   UNL     1       9.387  10.654  17.848  0.00  0.00    +0.000 C 
BRANCH  19  20
ATOM     20  C   UNL     1      10.192  11.259  19.002  0.00  0.00    +0.000 C 
BRANCH  20  21
ATOM     21  C   UNL     1       9.592  10.879  20.351  0.00  0.00    +0.000 C 
BRANCH  21  22
ATOM     22  C   UNL     1       9.513  12.087  21.284  0.00  0.00    +0.000 C 
BRANCH  22  24
ATOM     23  C   UNL     1       9.761  14.548  20.825  0.00  0.00    +0.000 C 
ATOM     24  C   UNL     1      10.458  13.198  20.828  0.00  0.00    +0.000 C 
ENDBRANCH  22  24
ENDBRANCH  21  22
ENDBRANCH  20  21
ENDBRANCH  19  20
ENDBRANCH  18  19
ENDBRANCH  17  18
ENDBRANCH   1  17
TORSDOF 9
ENDMDL
MODEL 6
REMARK VINA RESULT:      -6.5      2.730      7.965
REMARK  Name = 
REMARK  10 active torsions:
REMARK  status: ('A' for Active; 'I' for Inactive)
REMARK    1  A    between atoms: C_1  and  C_2
REMARK    2  A    between atoms: C_2  and  C_3
REMARK    3  A    between atoms: C_3  and  C_4
REMARK    4  A    between atoms: C_4  and  C_5
REMARK    5  A    between atoms: C_5  and  C_6
REMARK    6  A    between atoms: C_6  and  C_7
REMARK    7  A    between atoms: C_7  and  O_8
REMARK    8  A    between atoms: O_8  and  C_9
REMARK    9  A    between atoms: C_12  and  C_13
REMARK   10  A    between atoms: N_15  and  C_16
REMARK                            x       y       z     vdW  Elec       q    Type
REMARK                         _______ _______ _______ _____ _____    ______ ____
ROOT
ATOM      1  C   UNL     1       1.047   9.250  19.904  0.00  0.00    +0.000 A 
ATOM      2  C   UNL     1       1.477   8.130  20.611  0.00  0.00    +0.000 A 
ATOM      3  C   UNL     1       2.202   7.118  19.988  0.00  0.00    +0.000 A 
ATOM      4  C   UNL     1       2.509   7.209  18.635  0.00  0.00    +0.000 A 
ATOM      5  C   UNL     1       2.082   8.324  17.900  0.00  0.00    +0.000 A 
ATOM      6  C   UNL     1       1.348   9.341  18.542  0.00  0.00    +0.000 A 
ENDROOT
BRANCH   4   7
ATOM      7  C   UNL     1       3.229   6.050  18.049  0.00  0.00    +0.000 C 
ATOM      8  O   UNL     1       2.604   5.054  17.698  0.00  0.00    +0.000 OA
ATOM      9  N   UNL     1       4.594   6.143  17.931  0.00  0.00    +0.000 N 
ATOM     10  H   UNL     1       5.100   6.877  18.417  0.00  0.00    +0.000 HD
BRANCH   9  11
ATOM     11  C   UNL     1       5.362   5.036  17.391  0.00  0.00    +0.000 C 
ATOM     12  C   UNL     1       5.729   5.236  15.937  0.00  0.00    +0.000 C 
ATOM     13  C   UNL     1       7.051   4.527  15.818  0.00  0.00    +0.000 C 
ATOM     14  O   UNL     1       7.675   4.633  17.098  0.00  0.00    +0.000 OA
ATOM     15  C   UNL     1       6.729   4.932  18.037  0.00  0.00    +0.000 C 
ATOM     16  O   UNL     1       6.967   5.096  19.224  0.00  0.00    +0.000 OA
ENDBRANCH   9  11
ENDBRANCH   4   7
BRANCH   1  17
ATOM     17  O   UNL     1       0.325  10.274  20.479  0.00  0.00    +0.000 OA
BRANCH  17  18
ATOM     18  C   UNL     1       1.088  11.472  20.675  0.00  0.00    +0.000 C 
BRANCH  18  19
ATOM     19  C   UNL     1       0.593  12.602  19.786  0.00  0.00    +0.000 C 
BRANCH  19  20
ATOM     20  C   UNL     1      -0.933  12.547  19.664  0.00  0.00    +0.000 C 
BRANCH  20  21
ATOM     21  C   UNL     1      -1.362  12.287  18.224  0.00  0.00    +0.000 C 
BRANCH  21  22
ATOM     22  C   UNL     1      -2.536  11.311  18.162  0.00  0.00    +0.000 C 
BRANCH  22  24
ATOM     23  C   UNL     1      -2.536  10.016  16.005  0.00  0.00    +0.000 C 
ATOM     24  C   UNL     1      -2.133  10.009  17.470  0.00  0.00    +0.000 C 
ENDBRANCH  22  24
ENDBRANCH  21  22
ENDBRANCH  20  21
ENDBRANCH  19  20
ENDBRANCH  18  19
ENDBRANCH  17  18
ENDBRANCH   1  17
TORSDOF 9
ENDMDL
MODEL 7
REMARK VINA RESULT:      -6.4      3.212      8.137
REMARK  Name = 
REMARK  10 active torsions:
REMARK  status: ('A' for Active; 'I' for Inactive)
REMARK    1  A    between atoms: C_1  and  C_2
REMARK    2  A    between atoms: C_2  and  C_3
REMARK    3  A    between atoms: C_3  and  C_4
REMARK    4  A    between atoms: C_4  and  C_5
REMARK    5  A    between atoms: C_5  and  C_6
REMARK    6  A    between atoms: C_6  and  C_7
REMARK    7  A    between atoms: C_7  and  O_8
REMARK    8  A    between atoms: O_8  and  C_9
REMARK    9  A    between atoms: C_12  and  C_13
REMARK   10  A    between atoms: N_15  and  C_16
REMARK                            x       y       z     vdW  Elec       q    Type
REMARK                         _______ _______ _______ _____ _____    ______ ____
ROOT
ATOM      1  C   UNL     1       1.678   7.100  20.216  0.00  0.00    +0.000 A 
ATOM      2  C   UNL     1       2.106   5.826  20.581  0.00  0.00    +0.000 A 
ATOM      3  C   UNL     1       3.063   5.145  19.835  0.00  0.00    +0.000 A 
ATOM      4  C   UNL     1       3.610   5.730  18.699  0.00  0.00    +0.000 A 
ATOM      5  C   UNL     1       3.191   7.008  18.306  0.00  0.00    +0.000 A 
ATOM      6  C   UNL     1       2.221   7.688  19.069  0.00  0.00    +0.000 A 
ENDROOT
BRANCH   4   7
ATOM      7  C   UNL     1       4.574   4.897  17.934  0.00  0.00    +0.000 C 
ATOM      8  O   UNL     1       5.050   3.888  18.444  0.00  0.00    +0.000 OA
ATOM      9  N   UNL     1       4.905   5.310  16.667  0.00  0.00    +0.000 N 
ATOM     10  H   UNL     1       4.666   6.247  16.356  0.00  0.00    +0.000 HD
BRANCH   9  11
ATOM     11  C   UNL     1       5.861   4.557  15.876  0.00  0.00    +0.000 C 
ATOM     12  C   UNL     1       5.356   4.255  14.483  0.00  0.00    +0.000 C 
ATOM     13  C   UNL     1       6.614   4.245  13.658  0.00  0.00    +0.000 C 
ATOM     14  O   UNL     1       7.511   5.158  14.290  0.00  0.00    +0.000 OA
ATOM     15  C   UNL     1       7.106   5.370  15.577  0.00  0.00    +0.000 C 
ATOM     16  O   UNL     1       7.672   6.115  16.363  0.00  0.00    +0.000 OA
ENDBRANCH   9  11
ENDBRANCH   4   7
BRANCH   1  17
ATOM     17  O   UNL     1       0.732   7.810  20.923  0.00  0.00    +0.000 OA
BRANCH  17  18
ATOM     18  C   UNL     1       0.887   9.232  20.819  0.00  0.00    +0.000 C 
BRANCH  18  19
ATOM     19  C   UNL     1      -0.417   9.911  20.435  0.00  0.00    +0.000 C 
BRANCH  19  20
ATOM     20  C   UNL     1      -0.432  10.214  18.933  0.00  0.00    +0.000 C 
BRANCH  20  21
ATOM     21  C   UNL     1      -1.849  10.157  18.373  0.00  0.00    +0.000 C 
BRANCH  21  22
ATOM     22  C   UNL     1      -1.872  10.504  16.885  0.00  0.00    +0.000 C 
BRANCH  22  24
ATOM     23  C   UNL     1      -3.058  10.081  14.708  0.00  0.00    +0.000 C 
ATOM     24  C   UNL     1      -3.153  10.000  16.222  0.00  0.00    +0.000 C 
ENDBRANCH  22  24
ENDBRANCH  21  22
ENDBRANCH  20  21
ENDBRANCH  19  20
ENDBRANCH  18  19
ENDBRANCH  17  18
ENDBRANCH   1  17
TORSDOF 9
ENDMDL
MODEL 8
REMARK VINA RESULT:      -6.4      1.933      2.539
REMARK  Name = 
REMARK  10 active torsions:
REMARK  status: ('A' for Active; 'I' for Inactive)
REMARK    1  A    between atoms: C_1  and  C_2
REMARK    2  A    between atoms: C_2  and  C_3
REMARK    3  A    between atoms: C_3  and  C_4
REMARK    4  A    between atoms: C_4  and  C_5
REMARK    5  A    between atoms: C_5  and  C_6
REMARK    6  A    between atoms: C_6  and  C_7
REMARK    7  A    between atoms: C_7  and  O_8
REMARK    8  A    between atoms: O_8  and  C_9
REMARK    9  A    between atoms: C_12  and  C_13
REMARK   10  A    between atoms: N_15  and  C_16
REMARK                            x       y       z     vdW  Elec       q    Type
REMARK                         _______ _______ _______ _____ _____    ______ ____
ROOT
ATOM      1  C   UNL     1       4.239   5.987  18.314  0.00  0.00    +0.000 A 
ATOM      2  C   UNL     1       3.505   5.893  19.493  0.00  0.00    +0.000 A 
ATOM      3  C   UNL     1       2.507   6.814  19.796  0.00  0.00    +0.000 A 
ATOM      4  C   UNL     1       2.226   7.855  18.920  0.00  0.00    +0.000 A 
ATOM      5  C   UNL     1       2.955   7.976  17.728  0.00  0.00    +0.000 A 
ATOM      6  C   UNL     1       3.964   7.037  17.433  0.00  0.00    +0.000 A 
ENDROOT
BRANCH   4   7
ATOM      7  C   UNL     1       1.189   8.823  19.363  0.00  0.00    +0.000 C 
ATOM      8  O   UNL     1       0.844   8.854  20.540  0.00  0.00    +0.000 OA
ATOM      9  N   UNL     1       0.643   9.650  18.412  0.00  0.00    +0.000 N 
ATOM     10  H   UNL     1       0.789   9.460  17.425  0.00  0.00    +0.000 HD
BRANCH   9  11
ATOM     11  C   UNL     1      -0.393  10.599  18.773  0.00  0.00    +0.000 C 
ATOM     12  C   UNL     1       0.119  12.020  18.847  0.00  0.00    +0.000 C 
ATOM     13  C   UNL     1      -1.076  12.837  18.433  0.00  0.00    +0.000 C 
ATOM     14  O   UNL     1      -1.820  12.020  17.530  0.00  0.00    +0.000 OA
ATOM     15  C   UNL     1      -1.450  10.715  17.692  0.00  0.00    +0.000 C 
ATOM     16  O   UNL     1      -1.909   9.784  17.046  0.00  0.00    +0.000 OA
ENDBRANCH   9  11
ENDBRANCH   4   7
BRANCH   1  17
ATOM     17  O   UNL     1       5.237   5.100  17.973  0.00  0.00    +0.000 OA
BRANCH  17  18
ATOM     18  C   UNL     1       5.026   3.776  18.481  0.00  0.00    +0.000 C 
BRANCH  18  19
ATOM     19  C   UNL     1       4.069   2.985  17.603  0.00  0.00    +0.000 C 
BRANCH  19  20
ATOM     20  C   UNL     1       3.007   2.297  18.466  0.00  0.00    +0.000 C 
BRANCH  20  21
ATOM     21  C   UNL     1       1.605   2.765  18.091  0.00  0.00    +0.000 C 
BRANCH  21  22
ATOM     22  C   UNL     1       0.650   2.665  19.280  0.00  0.00    +0.000 C 
BRANCH  22  24
ATOM     23  C   UNL     1       1.342   2.640  21.698  0.00  0.00    +0.000 C 
ATOM     24  C   UNL     1       1.150   3.499  20.459  0.00  0.00    +0.000 C 
ENDBRANCH  22  24
ENDBRANCH  21  22
ENDBRANCH  20  21
ENDBRANCH  19  20
ENDBRANCH  18  19
ENDBRANCH  17  18
ENDBRANCH   1  17
TORSDOF 9
ENDMDL
MODEL 9
REMARK VINA RESULT:      -6.2      2.712      8.149
REMARK  Name = 
REMARK  10 active torsions:
REMARK  status: ('A' for Active; 'I' for Inactive)
REMARK    1  A    between atoms: C_1  and  C_2
REMARK    2  A    between atoms: C_2  and  C_3
REMARK    3  A    between atoms: C_3  and  C_4
REMARK    4  A    between atoms: C_4  and  C_5
REMARK    5  A    between atoms: C_5  and  C_6
REMARK    6  A    between atoms: C_6  and  C_7
REMARK    7  A    between atoms: C_7  and  O_8
REMARK    8  A    between atoms: O_8  and  C_9
REMARK    9  A    between atoms: C_12  and  C_13
REMARK   10  A    between atoms: N_15  and  C_16
REMARK                            x       y       z     vdW  Elec       q    Type
REMARK                         _______ _______ _______ _____ _____    ______ ____
ROOT
ATOM      1  C   UNL     1       1.168   9.116  19.439  0.00  0.00    +0.000 A 
ATOM      2  C   UNL     1       1.568   8.046  20.236  0.00  0.00    +0.000 A 
ATOM      3  C   UNL     1       2.440   7.074  19.754  0.00  0.00    +0.000 A 
ATOM      4  C   UNL     1       2.928   7.154  18.455  0.00  0.00    +0.000 A 
ATOM      5  C   UNL     1       2.536   8.218  17.631  0.00  0.00    +0.000 A 
ATOM      6  C   UNL     1       1.652   9.195  18.130  0.00  0.00    +0.000 A 
ENDROOT
BRANCH   4   7
ATOM      7  C   UNL     1       3.800   6.035  18.014  0.00  0.00    +0.000 C 
ATOM      8  O   UNL     1       3.703   4.936  18.549  0.00  0.00    +0.000 OA
ATOM      9  N   UNL     1       4.702   6.290  17.010  0.00  0.00    +0.000 N 
ATOM     10  H   UNL     1       4.906   7.248  16.738  0.00  0.00    +0.000 HD
BRANCH   9  11
ATOM     11  C   UNL     1       5.602   5.250  16.550  0.00  0.00    +0.000 C 
ATOM     12  C   UNL     1       5.166   4.641  15.236  0.00  0.00    +0.000 C 
ATOM     13  C   UNL     1       6.469   4.266  14.583  0.00  0.00    +0.000 C 
ATOM     14  O   UNL     1       7.433   5.208  15.051  0.00  0.00    +0.000 OA
ATOM     15  C   UNL     1       6.966   5.805  16.189  0.00  0.00    +0.000 C 
ATOM     16  O   UNL     1       7.569   6.666  16.811  0.00  0.00    +0.000 OA
ENDBRANCH   9  11
ENDBRANCH   4   7
BRANCH   1  17
ATOM     17  O   UNL     1       0.306  10.099  19.873  0.00  0.00    +0.000 OA
BRANCH  17  18
ATOM     18  C   UNL     1       0.476  11.350  19.194  0.00  0.00    +0.000 C 
BRANCH  18  19
ATOM     19  C   UNL     1      -0.823  12.139  19.140  0.00  0.00    +0.000 C 
BRANCH  19  20
ATOM     20  C   UNL     1      -0.866  13.163  20.277  0.00  0.00    +0.000 C 
BRANCH  20  21
ATOM     21  C   UNL     1      -1.715  12.661  21.440  0.00  0.00    +0.000 C 
BRANCH  21  22
ATOM     22  C   UNL     1      -0.842  12.176  22.597  0.00  0.00    +0.000 C 
BRANCH  22  24
ATOM     23  C   UNL     1      -0.199   9.806  23.142  0.00  0.00    +0.000 C 
ATOM     24  C   UNL     1      -1.325  10.826  23.124  0.00  0.00    +0.000 C 
ENDBRANCH  22  24
ENDBRANCH  21  22
ENDBRANCH  20  21
ENDBRANCH  19  20
ENDBRANCH  18  19
ENDBRANCH  17  18
ENDBRANCH   1  17
TORSDOF 9
ENDMDL
