MODEL 1
REMARK VINA RESULT:      -7.2      0.000      0.000
REMARK  Name = 
REMARK  5 active torsions:
REMARK  status: ('A' for Active; 'I' for Inactive)
REMARK    1  A    between atoms: C_1  and  C_2
REMARK    2  A    between atoms: C_2  and  C_3
REMARK    3  A    between atoms: C_2  and  C_4
REMARK    4  A    between atoms: C_6  and  C_8
REMARK    5  A    between atoms: C_8  and  C_9
REMARK                            x       y       z     vdW  Elec       q    Type
REMARK                         _______ _______ _______ _____ _____    ______ ____
ROOT
ATOM      1  C   UNL     1       3.063   5.395  19.314  0.00  0.00    +0.000 C 
ATOM      2  N   UNL     1       3.602   4.783  18.080  0.00  0.00    +0.000 N 
ATOM      3  C   UNL     1       4.834   4.620  17.482  0.00  0.00    +0.000 C 
ATOM      4  O   UNL     1       4.921   3.821  16.532  0.00  0.00    +0.000 OA
ATOM      5  C   UNL     1       2.510   3.793  17.997  0.00  0.00    +0.000 C 
ATOM      6  C   UNL     1       2.362   4.048  19.469  0.00  0.00    +0.000 C 
ATOM      7  C   UNL     1       1.024   3.863  20.137  0.00  0.00    +0.000 C 
ATOM      8  C   UNL     1       1.812   3.341  21.369  0.00  0.00    +0.000 C 
ATOM      9  C   UNL     1       2.988   3.028  20.412  0.00  0.00    +0.000 C 
ENDROOT
BRANCH   3  10
ATOM     10  C   UNL     1       6.091   5.396  17.938  0.00  0.00    +0.000 C 
ATOM     11  C   UNL     1       6.203   6.765  17.245  0.00  0.00    +0.000 C 
ATOM     12  C   UNL     1       6.604   5.434  19.390  0.00  0.00    +0.000 C 
ATOM     13  O   UNL     1       7.957   5.130  18.945  0.00  0.00    +0.000 OA
ATOM     14  C   UNL     1       7.401   4.583  17.719  0.00  0.00    +0.000 C 
ENDBRANCH   3  10
BRANCH   1  16
ATOM     15  C   UNL     1       1.973   7.453  20.287  0.00  0.00    +0.000 C 
ATOM     16  C   UNL     1       2.217   6.648  19.006  0.00  0.00    +0.000 C 
ATOM     17  C   UNL     1       2.910   7.559  17.991  0.00  0.00    +0.000 C 
ENDBRANCH   1  16
TORSDOF 2
ENDMDL
MODEL 2
REMARK VINA RESULT:      -6.9      0.700      1.234
REMARK  Name = 
REMARK  5 active torsions:
REMARK  status: ('A' for Active; 'I' for Inactive)
REMARK    1  A    between atoms: C_1  and  C_2
REMARK    2  A    between atoms: C_2  and  C_3
REMARK    3  A    between atoms: C_2  and  C_4
REMARK    4  A    between atoms: C_6  and  C_8
REMARK    5  A    between atoms: C_8  and  C_9
REMARK                            x       y       z     vdW  Elec       q    Type
REMARK                         _______ _______ _______ _____ _____    ______ ____
ROOT
ATOM      1  C   UNL     1       3.077   5.316  19.278  0.00  0.00    +0.000 C 
ATOM      2  N   UNL     1       3.482   4.642  18.026  0.00  0.00    +0.000 N 
ATOM      3  C   UNL     1       4.649   4.409  17.329  0.00  0.00    +0.000 C 
ATOM      4  O   UNL     1       4.622   3.577  16.405  0.00  0.00    +0.000 OA
ATOM      5  C   UNL     1       2.350   3.697  18.073  0.00  0.00    +0.000 C 
ATOM      6  C   UNL     1       2.341   4.005  19.542  0.00  0.00    +0.000 C 
ATOM      7  C   UNL     1       1.061   3.897  20.328  0.00  0.00    +0.000 C 
ATOM      8  C   UNL     1       1.932   3.383  21.506  0.00  0.00    +0.000 C 
ATOM      9  C   UNL     1       3.008   2.992  20.463  0.00  0.00    +0.000 C 
ENDROOT
BRANCH   3  10
ATOM     10  C   UNL     1       5.971   5.147  17.648  0.00  0.00    +0.000 C 
ATOM     11  C   UNL     1       6.169   5.342  19.161  0.00  0.00    +0.000 C 
ATOM     12  C   UNL     1       7.301   4.895  16.914  0.00  0.00    +0.000 C 
ATOM     13  O   UNL     1       7.501   6.326  16.733  0.00  0.00    +0.000 OA
ATOM     14  C   UNL     1       6.073   6.520  16.920  0.00  0.00    +0.000 C 
ENDBRANCH   3  10
BRANCH   1  16
ATOM     15  C   UNL     1       2.031   7.374  20.298  0.00  0.00    +0.000 C 
ATOM     16  C   UNL     1       2.256   6.592  18.999  0.00  0.00    +0.000 C 
ATOM     17  C   UNL     1       2.965   7.511  18.003  0.00  0.00    +0.000 C 
ENDBRANCH   1  16
TORSDOF 2
ENDMDL
MODEL 3
REMARK VINA RESULT:      -6.8      1.919      4.789
REMARK  Name = 
REMARK  5 active torsions:
REMARK  status: ('A' for Active; 'I' for Inactive)
REMARK    1  A    between atoms: C_1  and  C_2
REMARK    2  A    between atoms: C_2  and  C_3
REMARK    3  A    between atoms: C_2  and  C_4
REMARK    4  A    between atoms: C_6  and  C_8
REMARK    5  A    between atoms: C_8  and  C_9
REMARK                            x       y       z     vdW  Elec       q    Type
REMARK                         _______ _______ _______ _____ _____    ______ ____
ROOT
ATOM      1  C   UNL     1       3.447   5.907  18.186  0.00  0.00    +0.000 C 
ATOM      2  N   UNL     1       3.898   4.920  19.192  0.00  0.00    +0.000 N 
ATOM      3  C   UNL     1       3.426   3.749  19.748  0.00  0.00    +0.000 C 
ATOM      4  O   UNL     1       4.219   3.058  20.413  0.00  0.00    +0.000 OA
ATOM      5  C   UNL     1       5.325   5.195  18.940  0.00  0.00    +0.000 C 
ATOM      6  C   UNL     1       4.845   5.700  17.611  0.00  0.00    +0.000 C 
ATOM      7  C   UNL     1       5.625   6.762  16.880  0.00  0.00    +0.000 C 
ATOM      8  C   UNL     1       5.223   6.031  15.571  0.00  0.00    +0.000 C 
ATOM      9  C   UNL     1       4.990   4.758  16.422  0.00  0.00    +0.000 C 
ENDROOT
BRANCH   3  10
ATOM     10  C   UNL     1       1.962   3.279  19.583  0.00  0.00    +0.000 C 
ATOM     11  C   UNL     1       1.165   3.421  20.891  0.00  0.00    +0.000 C 
ATOM     12  C   UNL     1       1.098   3.560  18.340  0.00  0.00    +0.000 C 
ATOM     13  O   UNL     1       0.692   2.162  18.277  0.00  0.00    +0.000 OA
ATOM     14  C   UNL     1       1.865   1.816  19.060  0.00  0.00    +0.000 C 
ENDBRANCH   3  10
BRANCH   1  16
ATOM     15  C   UNL     1       2.437   8.188  17.807  0.00  0.00    +0.000 C 
ATOM     16  C   UNL     1       3.097   7.262  18.834  0.00  0.00    +0.000 C 
ATOM     17  C   UNL     1       2.137   7.091  20.013  0.00  0.00    +0.000 C 
ENDBRANCH   1  16
TORSDOF 2
ENDMDL
MODEL 4
REMARK VINA RESULT:      -6.1      0.672      1.082
REMARK  Name = 
REMARK  5 active torsions:
REMARK  status: ('A' for Active; 'I' for Inactive)
REMARK    1  A    between atoms: C_1  and  C_2
REMARK    2  A    between atoms: C_2  and  C_3
REMARK    3  A    between atoms: C_2  and  C_4
REMARK    4  A    between atoms: C_6  and  C_8
REMARK    5  A    between atoms: C_8  and  C_9
REMARK                            x       y       z     vdW  Elec       q    Type
REMARK                         _______ _______ _______ _____ _____    ______ ____
ROOT
ATOM      1  C   UNL     1       3.074   5.367  18.967  0.00  0.00    +0.000 C 
ATOM      2  N   UNL     1       3.412   4.706  17.688  0.00  0.00    +0.000 N 
ATOM      3  C   UNL     1       4.547   4.431  16.955  0.00  0.00    +0.000 C 
ATOM      4  O   UNL     1       4.454   3.625  16.012  0.00  0.00    +0.000 OA
ATOM      5  C   UNL     1       2.233   3.820  17.741  0.00  0.00    +0.000 C 
ATOM      6  C   UNL     1       2.278   4.090  19.217  0.00  0.00    +0.000 C 
ATOM      7  C   UNL     1       1.013   4.028  20.034  0.00  0.00    +0.000 C 
ATOM      8  C   UNL     1       1.886   3.439  21.176  0.00  0.00    +0.000 C 
ATOM      9  C   UNL     1       2.913   3.019  20.096  0.00  0.00    +0.000 C 
ENDROOT
BRANCH   3  10
ATOM     10  C   UNL     1       5.914   5.091  17.257  0.00  0.00    +0.000 C 
ATOM     11  C   UNL     1       7.051   4.450  16.444  0.00  0.00    +0.000 C 
ATOM     12  C   UNL     1       6.118   6.605  17.452  0.00  0.00    +0.000 C 
ATOM     13  O   UNL     1       6.889   6.368  18.665  0.00  0.00    +0.000 OA
ATOM     14  C   UNL     1       6.264   5.061  18.773  0.00  0.00    +0.000 C 
ENDBRANCH   3  10
BRANCH   1  16
ATOM     15  C   UNL     1       2.087   7.408  20.077  0.00  0.00    +0.000 C 
ATOM     16  C   UNL     1       2.314   6.691  18.741  0.00  0.00    +0.000 C 
ATOM     17  C   UNL     1       3.088   7.633  17.816  0.00  0.00    +0.000 C 
ENDBRANCH   1  16
TORSDOF 2
ENDMDL
MODEL 5
REMARK VINA RESULT:      -6.1      2.058      4.774
REMARK  Name = 
REMARK  5 active torsions:
REMARK  status: ('A' for Active; 'I' for Inactive)
REMARK    1  A    between atoms: C_1  and  C_2
REMARK    2  A    between atoms: C_2  and  C_3
REMARK    3  A    between atoms: C_2  and  C_4
REMARK    4  A    between atoms: C_6  and  C_8
REMARK    5  A    between atoms: C_8  and  C_9
REMARK                            x       y       z     vdW  Elec       q    Type
REMARK                         _______ _______ _______ _____ _____    ______ ____
ROOT
ATOM      1  C   UNL     1       3.800   5.563  17.823  0.00  0.00    +0.000 C 
ATOM      2  N   UNL     1       4.328   4.607  18.820  0.00  0.00    +0.000 N 
ATOM      3  C   UNL     1       3.917   3.436  19.421  0.00  0.00    +0.000 C 
ATOM      4  O   UNL     1       4.760   2.777  20.056  0.00  0.00    +0.000 OA
ATOM      5  C   UNL     1       5.733   4.912  18.489  0.00  0.00    +0.000 C 
ATOM      6  C   UNL     1       5.171   5.380  17.178  0.00  0.00    +0.000 C 
ATOM      7  C   UNL     1       5.884   6.448  16.389  0.00  0.00    +0.000 C 
ATOM      8  C   UNL     1       5.433   5.682  15.116  0.00  0.00    +0.000 C 
ATOM      9  C   UNL     1       5.277   4.420  16.000  0.00  0.00    +0.000 C 
ENDROOT
BRANCH   3  10
ATOM     10  C   UNL     1       2.458   2.926  19.342  0.00  0.00    +0.000 C 
ATOM     11  C   UNL     1       2.110   2.399  17.940  0.00  0.00    +0.000 C 
ATOM     12  C   UNL     1       1.761   2.123  20.457  0.00  0.00    +0.000 C 
ATOM     13  O   UNL     1       0.596   2.994  20.388  0.00  0.00    +0.000 OA
ATOM     14  C   UNL     1       1.427   4.012  19.771  0.00  0.00    +0.000 C 
ENDBRANCH   3  10
BRANCH   1  16
ATOM     15  C   UNL     1       2.740   7.823  17.449  0.00  0.00    +0.000 C 
ATOM     16  C   UNL     1       3.450   6.922  18.465  0.00  0.00    +0.000 C 
ATOM     17  C   UNL     1       2.534   6.751  19.678  0.00  0.00    +0.000 C 
ENDBRANCH   1  16
TORSDOF 2
ENDMDL
MODEL 6
REMARK VINA RESULT:      -6.1      2.116      4.978
REMARK  Name = 
REMARK  5 active torsions:
REMARK  status: ('A' for Active; 'I' for Inactive)
REMARK    1  A    between atoms: C_1  and  C_2
REMARK    2  A    between atoms: C_2  and  C_3
REMARK    3  A    between atoms: C_2  and  C_4
REMARK    4  A    between atoms: C_6  and  C_8
REMARK    5  A    between atoms: C_8  and  C_9
REMARK                            x       y       z     vdW  Elec       q    Type
REMARK                         _______ _______ _______ _____ _____    ______ ____
ROOT
ATOM      1  C   UNL     1       4.853   5.316  16.579  0.00  0.00    +0.000 C 
ATOM      2  N   UNL     1       5.212   4.624  17.836  0.00  0.00    +0.000 N 
ATOM      3  C   UNL     1       4.570   3.884  18.807  0.00  0.00    +0.000 C 
ATOM      4  O   UNL     1       5.271   3.249  19.616  0.00  0.00    +0.000 OA
ATOM      5  C   UNL     1       6.600   4.379  17.399  0.00  0.00    +0.000 C 
ATOM      6  C   UNL     1       6.040   4.542  16.016  0.00  0.00    +0.000 C 
ATOM      7  C   UNL     1       6.921   5.039  14.899  0.00  0.00    +0.000 C 
ATOM      8  C   UNL     1       6.138   4.071  13.971  0.00  0.00    +0.000 C 
ATOM      9  C   UNL     1       5.749   3.266  15.235  0.00  0.00    +0.000 C 
ENDROOT
BRANCH   3  10
ATOM     10  C   UNL     1       3.029   3.827  18.929  0.00  0.00    +0.000 C 
ATOM     11  C   UNL     1       2.491   4.900  19.891  0.00  0.00    +0.000 C 
ATOM     12  C   UNL     1       2.076   3.574  17.746  0.00  0.00    +0.000 C 
ATOM     13  O   UNL     1       1.355   2.567  18.512  0.00  0.00    +0.000 OA
ATOM     14  C   UNL     1       2.521   2.422  19.366  0.00  0.00    +0.000 C 
ENDBRANCH   3  10
BRANCH   1  16
ATOM     15  C   UNL     1       3.767   7.391  17.520  0.00  0.00    +0.000 C 
ATOM     16  C   UNL     1       4.958   6.849  16.723  0.00  0.00    +0.000 C 
ATOM     17  C   UNL     1       6.244   7.259  17.444  0.00  0.00    +0.000 C 
ENDBRANCH   1  16
TORSDOF 2
ENDMDL
MODEL 7
REMARK VINA RESULT:      -5.9      2.137      4.969
REMARK  Name = 
REMARK  5 active torsions:
REMARK  status: ('A' for Active; 'I' for Inactive)
REMARK    1  A    between atoms: C_1  and  C_2
REMARK    2  A    between atoms: C_2  and  C_3
REMARK    3  A    between atoms: C_2  and  C_4
REMARK    4  A    between atoms: C_6  and  C_8
REMARK    5  A    between atoms: C_8  and  C_9
REMARK                            x       y       z     vdW  Elec       q    Type
REMARK                         _______ _______ _______ _____ _____    ______ ____
ROOT
ATOM      1  C   UNL     1       4.532   5.161  17.061  0.00  0.00    +0.000 C 
ATOM      2  N   UNL     1       4.843   4.414  18.299  0.00  0.00    +0.000 N 
ATOM      3  C   UNL     1       4.177   3.587  19.181  0.00  0.00    +0.000 C 
ATOM      4  O   UNL     1       4.855   2.940  20.000  0.00  0.00    +0.000 OA
ATOM      5  C   UNL     1       6.268   4.263  17.947  0.00  0.00    +0.000 C 
ATOM      6  C   UNL     1       5.794   4.480  16.539  0.00  0.00    +0.000 C 
ATOM      7  C   UNL     1       6.719   5.084  15.516  0.00  0.00    +0.000 C 
ATOM      8  C   UNL     1       6.052   4.136  14.483  0.00  0.00    +0.000 C 
ATOM      9  C   UNL     1       5.622   3.240  15.671  0.00  0.00    +0.000 C 
ENDROOT
BRANCH   3  10
ATOM     10  C   UNL     1       2.637   3.449  19.192  0.00  0.00    +0.000 C 
ATOM     11  C   UNL     1       1.983   4.412  20.197  0.00  0.00    +0.000 C 
ATOM     12  C   UNL     1       1.776   3.252  17.930  0.00  0.00    +0.000 C 
ATOM     13  O   UNL     1       1.061   2.152  18.562  0.00  0.00    +0.000 OA
ATOM     14  C   UNL     1       2.175   1.991  19.480  0.00  0.00    +0.000 C 
ENDBRANCH   3  10
BRANCH   1  16
ATOM     15  C   UNL     1       4.655   7.430  15.962  0.00  0.00    +0.000 C 
ATOM     16  C   UNL     1       4.548   6.686  17.298  0.00  0.00    +0.000 C 
ATOM     17  C   UNL     1       3.279   7.158  18.010  0.00  0.00    +0.000 C 
ENDBRANCH   1  16
TORSDOF 2
ENDMDL
MODEL 8
REMARK VINA RESULT:      -5.8      2.218      4.996
REMARK  Name = 
REMARK  5 active torsions:
REMARK  status: ('A' for Active; 'I' for Inactive)
REMARK    1  A    between atoms: C_1  and  C_2
REMARK    2  A    between atoms: C_2  and  C_3
REMARK    3  A    between atoms: C_2  and  C_4
REMARK    4  A    between atoms: C_6  and  C_8
REMARK    5  A    between atoms: C_8  and  C_9
REMARK                            x       y       z     vdW  Elec       q    Type
REMARK                         _______ _______ _______ _____ _____    ______ ____
ROOT
ATOM      1  C   UNL     1       5.165   4.582  17.258  0.00  0.00    +0.000 C 
ATOM      2  N   UNL     1       3.916   5.150  17.812  0.00  0.00    +0.000 N 
ATOM      3  C   UNL     1       2.809   4.694  18.497  0.00  0.00    +0.000 C 
ATOM      4  O   UNL     1       2.054   5.537  19.014  0.00  0.00    +0.000 OA
ATOM      5  C   UNL     1       4.516   6.483  18.013  0.00  0.00    +0.000 C 
ATOM      6  C   UNL     1       5.819   5.738  18.009  0.00  0.00    +0.000 C 
ATOM      7  C   UNL     1       7.082   6.428  17.564  0.00  0.00    +0.000 C 
ATOM      8  C   UNL     1       7.813   5.601  18.657  0.00  0.00    +0.000 C 
ATOM      9  C   UNL     1       6.445   5.437  19.365  0.00  0.00    +0.000 C 
ENDROOT
BRANCH   3  10
ATOM     10  C   UNL     1       2.474   3.190  18.633  0.00  0.00    +0.000 C 
ATOM     11  C   UNL     1       1.072   2.967  19.224  0.00  0.00    +0.000 C 
ATOM     12  C   UNL     1       2.841   2.124  17.584  0.00  0.00    +0.000 C 
ATOM     13  O   UNL     1       3.385   1.257  18.620  0.00  0.00    +0.000 OA
ATOM     14  C   UNL     1       3.533   2.421  19.477  0.00  0.00    +0.000 C 
ENDBRANCH   3  10
BRANCH   1  16
ATOM     15  C   UNL     1       5.279   6.035  15.198  0.00  0.00    +0.000 C 
ATOM     16  C   UNL     1       5.162   4.597  15.715  0.00  0.00    +0.000 C 
ATOM     17  C   UNL     1       6.326   3.785  15.143  0.00  0.00    +0.000 C 
ENDBRANCH   1  16
TORSDOF 2
ENDMDL
MODEL 9
REMARK VINA RESULT:      -5.8      2.214      5.090
REMARK  Name = 
REMARK  5 active torsions:
REMARK  status: ('A' for Active; 'I' for Inactive)
REMARK    1  A    between atoms: C_1  and  C_2
REMARK    2  A    between atoms: C_2  and  C_3
REMARK    3  A    between atoms: C_2  and  C_4
REMARK    4  A    between atoms: C_6  and  C_8
REMARK    5  A    between atoms: C_8  and  C_9
REMARK                            x       y       z     vdW  Elec       q    Type
REMARK                         _______ _______ _______ _____ _____    ______ ____
ROOT
ATOM      1  C   UNL     1       4.776   4.444  17.970  0.00  0.00    +0.000 C 
ATOM      2  N   UNL     1       3.734   5.244  18.650  0.00  0.00    +0.000 N 
ATOM      3  C   UNL     1       2.820   5.066  19.667  0.00  0.00    +0.000 C 
ATOM      4  O   UNL     1       2.257   6.075  20.130  0.00  0.00    +0.000 OA
ATOM      5  C   UNL     1       4.422   6.520  18.377  0.00  0.00    +0.000 C 
ATOM      6  C   UNL     1       5.649   5.664  18.244  0.00  0.00    +0.000 C 
ATOM      7  C   UNL     1       6.786   6.107  17.360  0.00  0.00    +0.000 C 
ATOM      8  C   UNL     1       7.734   5.473  18.415  0.00  0.00    +0.000 C 
ATOM      9  C   UNL     1       6.585   5.610  19.444  0.00  0.00    +0.000 C 
ENDROOT
BRANCH   3  10
ATOM     10  C   UNL     1       2.465   3.672  20.235  0.00  0.00    +0.000 C 
ATOM     11  C   UNL     1       1.255   3.051  19.518  0.00  0.00    +0.000 C 
ATOM     12  C   UNL     1       3.508   2.613  20.641  0.00  0.00    +0.000 C 
ATOM     13  O   UNL     1       2.829   2.398  21.912  0.00  0.00    +0.000 OA
ATOM     14  C   UNL     1       2.211   3.705  21.771  0.00  0.00    +0.000 C 
ENDBRANCH   3  10
BRANCH   1  16
ATOM     15  C   UNL     1       5.573   3.509  15.765  0.00  0.00    +0.000 C 
ATOM     16  C   UNL     1       4.382   4.117  16.514  0.00  0.00    +0.000 C 
ATOM     17  C   UNL     1       3.220   3.123  16.455  0.00  0.00    +0.000 C 
ENDBRANCH   1  16
TORSDOF 2
ENDMDL
