MODEL 1
REMARK VINA RESULT:      -8.2      0.000      0.000
REMARK  Name = 
REMARK  12 active torsions:
REMARK  status: ('A' for Active; 'I' for Inactive)
REMARK    1  A    between atoms: C_1  and  C_2
REMARK    2  A    between atoms: C_2  and  C_3
REMARK    3  A    between atoms: C_2  and  C_4
REMARK    4  A    between atoms: C_8  and  C_9
REMARK    5  A    between atoms: C_9  and  N_10
REMARK    6  A    between atoms: C_13  and  C_14
REMARK    7  A    between atoms: C_13  and  N_17
REMARK    8  A    between atoms: C_14  and  O_16
REMARK    9  A    between atoms: C_20  and  C_21
REMARK   10  A    between atoms: C_21  and  C_22
REMARK   11  A    between atoms: C_21  and  C_23
REMARK   12  A    between atoms: C_21  and  C_24
REMARK                            x       y       z     vdW  Elec       q    Type
REMARK                         _______ _______ _______ _____ _____    ______ ____
ROOT
ATOM      1  N   UNL     1       3.517   3.058  17.372  0.00  0.00    +0.000 NA
ATOM      2  C   UNL     1       4.407   3.521  18.427  0.00  0.00    +0.000 C 
ATOM      3  C   UNL     1       3.853   3.386  19.845  0.00  0.00    +0.000 C 
ATOM      4  C   UNL     1       2.399   3.901  20.013  0.00  0.00    +0.000 C 
ATOM      5  C   UNL     1       1.542   3.188  18.948  0.00  0.00    +0.000 C 
ATOM      6  C   UNL     1       2.093   3.322  17.525  0.00  0.00    +0.000 C 
ENDROOT
BRANCH   4   7
ATOM      7  N   UNL     1       2.284   5.369  19.910  0.00  0.00    +0.000 N 
ATOM      8  C   UNL     1       3.033   6.227  19.161  0.00  0.00    +0.000 A 
ATOM      9  C   UNL     1       2.478   7.468  19.299  0.00  0.00    +0.000 A 
ATOM     10  C   UNL     1       1.550   7.338  20.356  0.00  0.00    +0.000 A 
ATOM     11  N   UNL     1       1.393   6.045  20.705  0.00  0.00    +0.000 NA
BRANCH  10  12
ATOM     12  C   UNL     1       0.924   8.512  21.105  0.00  0.00    +0.000 C 
ATOM     13  C   UNL     1      -0.486   8.153  21.618  0.00  0.00    +0.000 C 
ATOM     14  C   UNL     1       1.772   8.980  22.301  0.00  0.00    +0.000 C 
ATOM     15  C   UNL     1       0.782   9.699  20.119  0.00  0.00    +0.000 C 
ENDBRANCH  10  12
ENDBRANCH   4   7
BRANCH   4  16
ATOM     16  C   UNL     1       1.899   3.415  21.391  0.00  0.00    +0.000 C 
ATOM     17  O   UNL     1       2.586   3.437  22.405  0.00  0.00    +0.000 OA
BRANCH  16  18
ATOM     18  O   UNL     1       0.657   2.868  21.422  0.00  0.00    +0.000 OA
ATOM     19  H   UNL     1       0.019   3.341  20.819  0.00  0.00    +0.000 HD
ENDBRANCH  16  18
ENDBRANCH   4  16
BRANCH   1  20
ATOM     20  C   UNL     1       4.046   3.404  16.022  0.00  0.00    +0.000 C 
BRANCH  20  25
ATOM     21  C   UNL     1       6.734   5.829  16.894  0.00  0.00    +0.000 A 
ATOM     22  N   UNL     1       7.583   5.796  15.854  0.00  0.00    +0.000 NA
ATOM     23  C   UNL     1       7.280   4.953  14.861  0.00  0.00    +0.000 A 
ATOM     24  C   UNL     1       6.164   4.147  14.863  0.00  0.00    +0.000 A 
ATOM     25  C   UNL     1       5.323   4.250  15.953  0.00  0.00    +0.000 A 
ATOM     26  N   UNL     1       5.602   5.091  16.984  0.00  0.00    +0.000 NA
BRANCH  21  28
ATOM     27  C   UNL     1       7.942   6.034  19.091  0.00  0.00    +0.000 C 
ATOM     28  C   UNL     1       7.114   6.760  18.031  0.00  0.00    +0.000 C 
ATOM     29  C   UNL     1       7.811   8.013  17.508  0.00  0.00    +0.000 C 
ENDBRANCH  21  28
ENDBRANCH  20  25
ENDBRANCH   1  20
TORSDOF 7
ENDMDL
MODEL 2
REMARK VINA RESULT:      -7.8      4.539      7.335
REMARK  Name = 
REMARK  12 active torsions:
REMARK  status: ('A' for Active; 'I' for Inactive)
REMARK    1  A    between atoms: C_1  and  C_2
REMARK    2  A    between atoms: C_2  and  C_3
REMARK    3  A    between atoms: C_2  and  C_4
REMARK    4  A    between atoms: C_8  and  C_9
REMARK    5  A    between atoms: C_9  and  N_10
REMARK    6  A    between atoms: C_13  and  C_14
REMARK    7  A    between atoms: C_13  and  N_17
REMARK    8  A    between atoms: C_14  and  O_16
REMARK    9  A    between atoms: C_20  and  C_21
REMARK   10  A    between atoms: C_21  and  C_22
REMARK   11  A    between atoms: C_21  and  C_23
REMARK   12  A    between atoms: C_21  and  C_24
REMARK                            x       y       z     vdW  Elec       q    Type
REMARK                         _______ _______ _______ _____ _____    ______ ____
ROOT
ATOM      1  N   UNL     1       1.035   8.670  19.630  0.00  0.00    +0.000 NA
ATOM      2  C   UNL     1       0.322   9.393  20.673  0.00  0.00    +0.000 C 
ATOM      3  C   UNL     1      -0.675  10.436  20.171  0.00  0.00    +0.000 C 
ATOM      4  C   UNL     1      -0.118  11.369  19.062  0.00  0.00    +0.000 C 
ATOM      5  C   UNL     1       0.438  10.463  17.947  0.00  0.00    +0.000 C 
ATOM      6  C   UNL     1       1.439   9.416  18.446  0.00  0.00    +0.000 C 
ENDROOT
BRANCH   4   7
ATOM      7  N   UNL     1       0.903  12.314  19.555  0.00  0.00    +0.000 N 
ATOM      8  C   UNL     1       1.204  12.641  20.845  0.00  0.00    +0.000 A 
ATOM      9  C   UNL     1       2.296  13.462  20.805  0.00  0.00    +0.000 A 
ATOM     10  C   UNL     1       2.448  13.804  19.443  0.00  0.00    +0.000 A 
ATOM     11  N   UNL     1       1.625  13.069  18.666  0.00  0.00    +0.000 NA
BRANCH  10  12
ATOM     12  C   UNL     1       3.311  14.955  18.932  0.00  0.00    +0.000 C 
ATOM     13  C   UNL     1       4.455  14.433  18.037  0.00  0.00    +0.000 C 
ATOM     14  C   UNL     1       2.508  15.999  18.137  0.00  0.00    +0.000 C 
ATOM     15  C   UNL     1       3.951  15.663  20.153  0.00  0.00    +0.000 C 
ENDBRANCH  10  12
ENDBRANCH   4   7
BRANCH   4  16
ATOM     16  C   UNL     1      -1.318  12.135  18.464  0.00  0.00    +0.000 C 
ATOM     17  O   UNL     1      -2.438  12.128  18.959  0.00  0.00    +0.000 OA
BRANCH  16  18
ATOM     18  O   UNL     1      -1.099  12.769  17.284  0.00  0.00    +0.000 OA
ATOM     19  H   UNL     1      -0.220  12.527  16.881  0.00  0.00    +0.000 HD
ENDBRANCH  16  18
ENDBRANCH   4  16
BRANCH   1  20
ATOM     20  C   UNL     1       2.120   7.821  20.199  0.00  0.00    +0.000 C 
BRANCH  20  25
ATOM     21  C   UNL     1       2.327   4.219  19.274  0.00  0.00    +0.000 A 
ATOM     22  N   UNL     1       3.101   4.187  18.178  0.00  0.00    +0.000 NA
ATOM     23  C   UNL     1       3.546   5.363  17.724  0.00  0.00    +0.000 A 
ATOM     24  C   UNL     1       3.254   6.567  18.322  0.00  0.00    +0.000 A 
ATOM     25  C   UNL     1       2.472   6.525  19.458  0.00  0.00    +0.000 A 
ATOM     26  N   UNL     1       1.996   5.348  19.946  0.00  0.00    +0.000 NA
BRANCH  21  28
ATOM     27  C   UNL     1       1.338   2.952  21.208  0.00  0.00    +0.000 C 
ATOM     28  C   UNL     1       1.795   2.881  19.752  0.00  0.00    +0.000 C 
ATOM     29  C   UNL     1       0.701   2.360  18.825  0.00  0.00    +0.000 C 
ENDBRANCH  21  28
ENDBRANCH  20  25
ENDBRANCH   1  20
TORSDOF 7
ENDMDL
MODEL 3
REMARK VINA RESULT:      -7.7      4.678      7.558
REMARK  Name = 
REMARK  12 active torsions:
REMARK  status: ('A' for Active; 'I' for Inactive)
REMARK    1  A    between atoms: C_1  and  C_2
REMARK    2  A    between atoms: C_2  and  C_3
REMARK    3  A    between atoms: C_2  and  C_4
REMARK    4  A    between atoms: C_8  and  C_9
REMARK    5  A    between atoms: C_9  and  N_10
REMARK    6  A    between atoms: C_13  and  C_14
REMARK    7  A    between atoms: C_13  and  N_17
REMARK    8  A    between atoms: C_14  and  O_16
REMARK    9  A    between atoms: C_20  and  C_21
REMARK   10  A    between atoms: C_21  and  C_22
REMARK   11  A    between atoms: C_21  and  C_23
REMARK   12  A    between atoms: C_21  and  C_24
REMARK                            x       y       z     vdW  Elec       q    Type
REMARK                         _______ _______ _______ _____ _____    ______ ____
ROOT
ATOM      1  N   UNL     1       0.782   8.924  20.092  0.00  0.00    +0.000 NA
ATOM      2  C   UNL     1       0.485  10.070  20.939  0.00  0.00    +0.000 C 
ATOM      3  C   UNL     1      -0.572  11.026  20.386  0.00  0.00    +0.000 C 
ATOM      4  C   UNL     1      -0.366  11.413  18.897  0.00  0.00    +0.000 C 
ATOM      5  C   UNL     1      -0.249  10.098  18.101  0.00  0.00    +0.000 C 
ATOM      6  C   UNL     1       0.810   9.138  18.651  0.00  0.00    +0.000 C 
ENDROOT
BRANCH   4   7
ATOM      7  N   UNL     1       0.804  12.287  18.678  0.00  0.00    +0.000 N 
ATOM      8  C   UNL     1       2.103  11.927  18.468  0.00  0.00    +0.000 A 
ATOM      9  C   UNL     1       2.796  13.073  18.198  0.00  0.00    +0.000 A 
ATOM     10  C   UNL     1       1.907  14.123  18.520  0.00  0.00    +0.000 A 
ATOM     11  N   UNL     1       0.670  13.649  18.772  0.00  0.00    +0.000 NA
BRANCH  10  12
ATOM     12  C   UNL     1       2.323  15.580  18.708  0.00  0.00    +0.000 C 
ATOM     13  C   UNL     1       2.978  15.794  20.089  0.00  0.00    +0.000 C 
ATOM     14  C   UNL     1       3.300  16.069  17.625  0.00  0.00    +0.000 C 
ATOM     15  C   UNL     1       1.051  16.462  18.646  0.00  0.00    +0.000 C 
ENDBRANCH  10  12
ENDBRANCH   4   7
BRANCH   4  16
ATOM     16  C   UNL     1      -1.659  12.112  18.424  0.00  0.00    +0.000 C 
ATOM     17  O   UNL     1      -2.626  12.305  19.148  0.00  0.00    +0.000 OA
BRANCH  16  18
ATOM     18  O   UNL     1      -1.716  12.443  17.109  0.00  0.00    +0.000 OA
ATOM     19  H   UNL     1      -0.820  12.420  16.672  0.00  0.00    +0.000 HD
ENDBRANCH  16  18
ENDBRANCH   4  16
BRANCH   1  20
ATOM     20  C   UNL     1       1.952   8.157  20.604  0.00  0.00    +0.000 C 
BRANCH  20  25
ATOM     21  C   UNL     1       1.796   4.511  19.858  0.00  0.00    +0.000 A 
ATOM     22  N   UNL     1       2.721   4.311  18.906  0.00  0.00    +0.000 NA
ATOM     23  C   UNL     1       3.393   5.390  18.489  0.00  0.00    +0.000 A 
ATOM     24  C   UNL     1       3.182   6.655  18.986  0.00  0.00    +0.000 A 
ATOM     25  C   UNL     1       2.232   6.784  19.979  0.00  0.00    +0.000 A 
ATOM     26  N   UNL     1       1.524   5.711  20.424  0.00  0.00    +0.000 NA
BRANCH  21  28
ATOM     27  C   UNL     1       0.890   2.273  19.153  0.00  0.00    +0.000 C 
ATOM     28  C   UNL     1       1.013   3.285  20.291  0.00  0.00    +0.000 C 
ATOM     29  C   UNL     1       1.608   2.669  21.554  0.00  0.00    +0.000 C 
ENDBRANCH  21  28
ENDBRANCH  20  25
ENDBRANCH   1  20
TORSDOF 7
ENDMDL
MODEL 4
REMARK VINA RESULT:      -7.7      0.800      1.070
REMARK  Name = 
REMARK  12 active torsions:
REMARK  status: ('A' for Active; 'I' for Inactive)
REMARK    1  A    between atoms: C_1  and  C_2
REMARK    2  A    between atoms: C_2  and  C_3
REMARK    3  A    between atoms: C_2  and  C_4
REMARK    4  A    between atoms: C_8  and  C_9
REMARK    5  A    between atoms: C_9  and  N_10
REMARK    6  A    between atoms: C_13  and  C_14
REMARK    7  A    between atoms: C_13  and  N_17
REMARK    8  A    between atoms: C_14  and  O_16
REMARK    9  A    between atoms: C_20  and  C_21
REMARK   10  A    between atoms: C_21  and  C_22
REMARK   11  A    between atoms: C_21  and  C_23
REMARK   12  A    between atoms: C_21  and  C_24
REMARK                            x       y       z     vdW  Elec       q    Type
REMARK                         _______ _______ _______ _____ _____    ______ ____
ROOT
ATOM      1  N   UNL     1       4.092   2.885  17.702  0.00  0.00    +0.000 NA
ATOM      2  C   UNL     1       4.757   3.376  18.900  0.00  0.00    +0.000 C 
ATOM      3  C   UNL     1       3.945   3.247  20.189  0.00  0.00    +0.000 C 
ATOM      4  C   UNL     1       2.477   3.736  20.070  0.00  0.00    +0.000 C 
ATOM      5  C   UNL     1       1.851   2.996  18.871  0.00  0.00    +0.000 C 
ATOM      6  C   UNL     1       2.660   3.124  17.578  0.00  0.00    +0.000 C 
ENDROOT
BRANCH   4   7
ATOM      7  N   UNL     1       2.360   5.201  19.925  0.00  0.00    +0.000 N 
ATOM      8  C   UNL     1       3.122   6.041  19.167  0.00  0.00    +0.000 A 
ATOM      9  C   UNL     1       2.561   7.283  19.262  0.00  0.00    +0.000 A 
ATOM     10  C   UNL     1       1.614   7.180  20.304  0.00  0.00    +0.000 A 
ATOM     11  N   UNL     1       1.454   5.895  20.685  0.00  0.00    +0.000 NA
BRANCH  10  12
ATOM     12  C   UNL     1       0.972   8.371  21.010  0.00  0.00    +0.000 C 
ATOM     13  C   UNL     1      -0.470   8.042  21.451  0.00  0.00    +0.000 C 
ATOM     14  C   UNL     1       1.764   8.833  22.246  0.00  0.00    +0.000 C 
ATOM     15  C   UNL     1       0.904   9.552  20.009  0.00  0.00    +0.000 C 
ENDBRANCH  10  12
ENDBRANCH   4   7
BRANCH   4  16
ATOM     16  C   UNL     1       1.732   3.257  21.334  0.00  0.00    +0.000 C 
ATOM     17  O   UNL     1       2.268   3.135  22.428  0.00  0.00    +0.000 OA
BRANCH  16  18
ATOM     18  O   UNL     1       0.437   2.886  21.164  0.00  0.00    +0.000 OA
ATOM     19  H   UNL     1       0.334   2.172  20.476  0.00  0.00    +0.000 HD
ENDBRANCH  16  18
ENDBRANCH   4  16
BRANCH   1  20
ATOM     20  C   UNL     1       4.863   3.225  16.473  0.00  0.00    +0.000 C 
BRANCH  20  25
ATOM     21  C   UNL     1       6.910   6.269  17.118  0.00  0.00    +0.000 A 
ATOM     22  N   UNL     1       6.483   7.171  16.220  0.00  0.00    +0.000 NA
ATOM     23  C   UNL     1       5.524   6.771  15.378  0.00  0.00    +0.000 A 
ATOM     24  C   UNL     1       4.972   5.511  15.400  0.00  0.00    +0.000 A 
ATOM     25  C   UNL     1       5.442   4.642  16.365  0.00  0.00    +0.000 A 
ATOM     26  N   UNL     1       6.421   5.012  17.233  0.00  0.00    +0.000 NA
BRANCH  21  28
ATOM     27  C   UNL     1       8.080   8.249  18.137  0.00  0.00    +0.000 C 
ATOM     28  C   UNL     1       8.028   6.725  18.037  0.00  0.00    +0.000 C 
ATOM     29  C   UNL     1       7.922   6.057  19.405  0.00  0.00    +0.000 C 
ENDBRANCH  21  28
ENDBRANCH  20  25
ENDBRANCH   1  20
TORSDOF 7
ENDMDL
MODEL 5
REMARK VINA RESULT:      -7.7      2.365      7.290
REMARK  Name = 
REMARK  12 active torsions:
REMARK  status: ('A' for Active; 'I' for Inactive)
REMARK    1  A    between atoms: C_1  and  C_2
REMARK    2  A    between atoms: C_2  and  C_3
REMARK    3  A    between atoms: C_2  and  C_4
REMARK    4  A    between atoms: C_8  and  C_9
REMARK    5  A    between atoms: C_9  and  N_10
REMARK    6  A    between atoms: C_13  and  C_14
REMARK    7  A    between atoms: C_13  and  N_17
REMARK    8  A    between atoms: C_14  and  O_16
REMARK    9  A    between atoms: C_20  and  C_21
REMARK   10  A    between atoms: C_21  and  C_22
REMARK   11  A    between atoms: C_21  and  C_23
REMARK   12  A    between atoms: C_21  and  C_24
REMARK                            x       y       z     vdW  Elec       q    Type
REMARK                         _______ _______ _______ _____ _____    ______ ____
ROOT
ATOM      1  N   UNL     1       1.453   6.728  19.941  0.00  0.00    +0.000 NA
ATOM      2  C   UNL     1       1.700   6.596  18.512  0.00  0.00    +0.000 C 
ATOM      3  C   UNL     1       1.430   5.208  17.935  0.00  0.00    +0.000 C 
ATOM      4  C   UNL     1       2.038   4.044  18.762  0.00  0.00    +0.000 C 
ATOM      5  C   UNL     1       1.543   4.213  20.212  0.00  0.00    +0.000 C 
ATOM      6  C   UNL     1       1.813   5.604  20.795  0.00  0.00    +0.000 C 
ENDROOT
BRANCH   4   7
ATOM      7  N   UNL     1       3.512   3.988  18.694  0.00  0.00    +0.000 N 
ATOM      8  C   UNL     1       4.388   3.535  19.637  0.00  0.00    +0.000 A 
ATOM      9  C   UNL     1       5.633   3.569  19.075  0.00  0.00    +0.000 A 
ATOM     10  C   UNL     1       5.475   4.301  17.877  0.00  0.00    +0.000 A 
ATOM     11  N   UNL     1       4.170   4.522  17.615  0.00  0.00    +0.000 NA
BRANCH  10  12
ATOM     12  C   UNL     1       6.626   4.895  17.070  0.00  0.00    +0.000 C 
ATOM     13  C   UNL     1       6.647   4.324  15.636  0.00  0.00    +0.000 C 
ATOM     14  C   UNL     1       6.567   6.430  16.982  0.00  0.00    +0.000 C 
ATOM     15  C   UNL     1       7.957   4.500  17.756  0.00  0.00    +0.000 C 
ENDBRANCH  10  12
ENDBRANCH   4   7
BRANCH   4  16
ATOM     16  C   UNL     1       1.423   2.733  18.227  0.00  0.00    +0.000 C 
ATOM     17  O   UNL     1       0.312   2.329  18.544  0.00  0.00    +0.000 OA
BRANCH  16  18
ATOM     18  O   UNL     1       2.219   1.977  17.428  0.00  0.00    +0.000 OA
ATOM     19  H   UNL     1       2.999   2.489  17.076  0.00  0.00    +0.000 HD
ENDBRANCH  16  18
ENDBRANCH   4  16
BRANCH   1  20
ATOM     20  C   UNL     1       1.924   8.044  20.457  0.00  0.00    +0.000 C 
BRANCH  20  25
ATOM     21  C   UNL     1      -0.664  10.634  19.778  0.00  0.00    +0.000 A 
ATOM     22  N   UNL     1      -0.982  11.132  20.984  0.00  0.00    +0.000 NA
ATOM     23  C   UNL     1      -0.353  10.599  22.036  0.00  0.00    +0.000 A 
ATOM     24  C   UNL     1       0.582   9.594  21.933  0.00  0.00    +0.000 A 
ATOM     25  C   UNL     1       0.877   9.146  20.661  0.00  0.00    +0.000 A 
ATOM     26  N   UNL     1       0.252   9.660  19.568  0.00  0.00    +0.000 NA
BRANCH  21  28
ATOM     27  C   UNL     1      -1.688  10.162  17.530  0.00  0.00    +0.000 C 
ATOM     28  C   UNL     1      -1.417  11.221  18.598  0.00  0.00    +0.000 C 
ATOM     29  C   UNL     1      -2.692  11.925  19.054  0.00  0.00    +0.000 C 
ENDBRANCH  21  28
ENDBRANCH  20  25
ENDBRANCH   1  20
TORSDOF 7
ENDMDL
MODEL 6
REMARK VINA RESULT:      -7.6      2.170      7.175
REMARK  Name = 
REMARK  12 active torsions:
REMARK  status: ('A' for Active; 'I' for Inactive)
REMARK    1  A    between atoms: C_1  and  C_2
REMARK    2  A    between atoms: C_2  and  C_3
REMARK    3  A    between atoms: C_2  and  C_4
REMARK    4  A    between atoms: C_8  and  C_9
REMARK    5  A    between atoms: C_9  and  N_10
REMARK    6  A    between atoms: C_13  and  C_14
REMARK    7  A    between atoms: C_13  and  N_17
REMARK    8  A    between atoms: C_14  and  O_16
REMARK    9  A    between atoms: C_20  and  C_21
REMARK   10  A    between atoms: C_21  and  C_22
REMARK   11  A    between atoms: C_21  and  C_23
REMARK   12  A    between atoms: C_21  and  C_24
REMARK                            x       y       z     vdW  Elec       q    Type
REMARK                         _______ _______ _______ _____ _____    ______ ____
ROOT
ATOM      1  N   UNL     1       1.845   6.908  19.105  0.00  0.00    +0.000 NA
ATOM      2  C   UNL     1       1.639   6.179  17.862  0.00  0.00    +0.000 C 
ATOM      3  C   UNL     1       1.590   4.659  18.005  0.00  0.00    +0.000 C 
ATOM      4  C   UNL     1       2.730   4.062  18.872  0.00  0.00    +0.000 C 
ATOM      5  C   UNL     1       2.708   4.807  20.221  0.00  0.00    +0.000 C 
ATOM      6  C   UNL     1       2.759   6.331  20.083  0.00  0.00    +0.000 C 
ENDROOT
BRANCH   4   7
ATOM      7  N   UNL     1       4.055   4.142  18.228  0.00  0.00    +0.000 N 
ATOM      8  C   UNL     1       5.286   4.124  18.815  0.00  0.00    +0.000 A 
ATOM      9  C   UNL     1       6.210   4.101  17.809  0.00  0.00    +0.000 A 
ATOM     10  C   UNL     1       5.476   4.372  16.632  0.00  0.00    +0.000 A 
ATOM     11  N   UNL     1       4.150   4.354  16.875  0.00  0.00    +0.000 NA
BRANCH  10  12
ATOM     12  C   UNL     1       6.100   4.782  15.301  0.00  0.00    +0.000 C 
ATOM     13  C   UNL     1       5.938   3.665  14.247  0.00  0.00    +0.000 C 
ATOM     14  C   UNL     1       5.500   6.079  14.732  0.00  0.00    +0.000 C 
ATOM     15  C   UNL     1       7.617   5.007  15.522  0.00  0.00    +0.000 C 
ENDBRANCH  10  12
ENDBRANCH   4   7
BRANCH   4  16
ATOM     16  C   UNL     1       2.360   2.591  19.164  0.00  0.00    +0.000 C 
ATOM     17  O   UNL     1       1.862   2.217  20.217  0.00  0.00    +0.000 OA
BRANCH  16  18
ATOM     18  O   UNL     1       2.695   1.687  18.209  0.00  0.00    +0.000 OA
ATOM     19  H   UNL     1       2.962   2.120  17.352  0.00  0.00    +0.000 HD
ENDBRANCH  16  18
ENDBRANCH   4  16
BRANCH   1  20
ATOM     20  C   UNL     1       2.077   8.359  18.855  0.00  0.00    +0.000 C 
BRANCH  20  25
ATOM     21  C   UNL     1      -0.111  10.443  21.032  0.00  0.00    +0.000 A 
ATOM     22  N   UNL     1      -0.941  11.075  20.186  0.00  0.00    +0.000 NA
ATOM     23  C   UNL     1      -0.768  10.830  18.883  0.00  0.00    +0.000 A 
ATOM     24  C   UNL     1       0.194   9.978  18.392  0.00  0.00    +0.000 A 
ATOM     25  C   UNL     1       0.996   9.343  19.319  0.00  0.00    +0.000 A 
ATOM     26  N   UNL     1       0.854   9.573  20.652  0.00  0.00    +0.000 NA
BRANCH  21  28
ATOM     27  C   UNL     1      -1.592  11.528  22.751  0.00  0.00    +0.000 C 
ATOM     28  C   UNL     1      -0.292  10.764  22.504  0.00  0.00    +0.000 C 
ATOM     29  C   UNL     1      -0.188   9.504  23.359  0.00  0.00    +0.000 C 
ENDBRANCH  21  28
ENDBRANCH  20  25
ENDBRANCH   1  20
TORSDOF 7
ENDMDL
MODEL 7
REMARK VINA RESULT:      -7.6      2.116      6.136
REMARK  Name = 
REMARK  12 active torsions:
REMARK  status: ('A' for Active; 'I' for Inactive)
REMARK    1  A    between atoms: C_1  and  C_2
REMARK    2  A    between atoms: C_2  and  C_3
REMARK    3  A    between atoms: C_2  and  C_4
REMARK    4  A    between atoms: C_8  and  C_9
REMARK    5  A    between atoms: C_9  and  N_10
REMARK    6  A    between atoms: C_13  and  C_14
REMARK    7  A    between atoms: C_13  and  N_17
REMARK    8  A    between atoms: C_14  and  O_16
REMARK    9  A    between atoms: C_20  and  C_21
REMARK   10  A    between atoms: C_21  and  C_22
REMARK   11  A    between atoms: C_21  and  C_23
REMARK   12  A    between atoms: C_21  and  C_24
REMARK                            x       y       z     vdW  Elec       q    Type
REMARK                         _______ _______ _______ _____ _____    ______ ____
ROOT
ATOM      1  N   UNL     1       1.558   5.557  20.477  0.00  0.00    +0.000 NA
ATOM      2  C   UNL     1       1.346   5.361  19.051  0.00  0.00    +0.000 C 
ATOM      3  C   UNL     1       1.529   3.925  18.561  0.00  0.00    +0.000 C 
ATOM      4  C   UNL     1       2.818   3.234  19.080  0.00  0.00    +0.000 C 
ATOM      5  C   UNL     1       2.814   3.365  20.616  0.00  0.00    +0.000 C 
ATOM      6  C   UNL     1       2.631   4.803  21.111  0.00  0.00    +0.000 C 
ENDROOT
BRANCH   4   7
ATOM      7  N   UNL     1       4.054   3.788  18.492  0.00  0.00    +0.000 N 
ATOM      8  C   UNL     1       5.200   4.166  19.127  0.00  0.00    +0.000 A 
ATOM      9  C   UNL     1       6.103   4.499  18.158  0.00  0.00    +0.000 A 
ATOM     10  C   UNL     1       5.354   4.552  16.961  0.00  0.00    +0.000 A 
ATOM     11  N   UNL     1       4.107   4.074  17.151  0.00  0.00    +0.000 NA
BRANCH  10  12
ATOM     12  C   UNL     1       5.836   5.204  15.668  0.00  0.00    +0.000 C 
ATOM     13  C   UNL     1       5.184   6.589  15.470  0.00  0.00    +0.000 C 
ATOM     14  C   UNL     1       7.365   5.374  15.616  0.00  0.00    +0.000 C 
ATOM     15  C   UNL     1       5.409   4.305  14.480  0.00  0.00    +0.000 C 
ENDBRANCH  10  12
ENDBRANCH   4   7
BRANCH   4  16
ATOM     16  C   UNL     1       2.693   1.730  18.756  0.00  0.00    +0.000 C 
ATOM     17  O   UNL     1       3.652   1.008  18.517  0.00  0.00    +0.000 OA
BRANCH  16  18
ATOM     18  O   UNL     1       1.431   1.239  18.661  0.00  0.00    +0.000 OA
ATOM     19  H   UNL     1       1.333   0.584  17.916  0.00  0.00    +0.000 HD
ENDBRANCH  16  18
ENDBRANCH   4  16
BRANCH   1  20
ATOM     20  C   UNL     1       1.555   7.004  20.835  0.00  0.00    +0.000 C 
BRANCH  20  25
ATOM     21  C   UNL     1       1.209  10.067  18.745  0.00  0.00    +0.000 A 
ATOM     22  N   UNL     1       1.987   9.846  17.674  0.00  0.00    +0.000 NA
ATOM     23  C   UNL     1       2.649   8.685  17.644  0.00  0.00    +0.000 A 
ATOM     24  C   UNL     1       2.562   7.736  18.637  0.00  0.00    +0.000 A 
ATOM     25  C   UNL     1       1.726   8.019  19.698  0.00  0.00    +0.000 A 
ATOM     26  N   UNL     1       1.042   9.193  19.766  0.00  0.00    +0.000 NA
BRANCH  21  28
ATOM     27  C   UNL     1      -0.388  11.531  20.024  0.00  0.00    +0.000 C 
ATOM     28  C   UNL     1       0.497  11.407  18.784  0.00  0.00    +0.000 C 
ATOM     29  C   UNL     1       1.488  12.561  18.661  0.00  0.00    +0.000 C 
ENDBRANCH  21  28
ENDBRANCH  20  25
ENDBRANCH   1  20
TORSDOF 7
ENDMDL
MODEL 8
REMARK VINA RESULT:      -7.6      4.687      7.552
REMARK  Name = 
REMARK  12 active torsions:
REMARK  status: ('A' for Active; 'I' for Inactive)
REMARK    1  A    between atoms: C_1  and  C_2
REMARK    2  A    between atoms: C_2  and  C_3
REMARK    3  A    between atoms: C_2  and  C_4
REMARK    4  A    between atoms: C_8  and  C_9
REMARK    5  A    between atoms: C_9  and  N_10
REMARK    6  A    between atoms: C_13  and  C_14
REMARK    7  A    between atoms: C_13  and  N_17
REMARK    8  A    between atoms: C_14  and  O_16
REMARK    9  A    between atoms: C_20  and  C_21
REMARK   10  A    between atoms: C_21  and  C_22
REMARK   11  A    between atoms: C_21  and  C_23
REMARK   12  A    between atoms: C_21  and  C_24
REMARK                            x       y       z     vdW  Elec       q    Type
REMARK                         _______ _______ _______ _____ _____    ______ ____
ROOT
ATOM      1  N   UNL     1       1.073   9.185  20.491  0.00  0.00    +0.000 NA
ATOM      2  C   UNL     1       1.204   9.224  19.042  0.00  0.00    +0.000 C 
ATOM      3  C   UNL     1       1.157  10.622  18.426  0.00  0.00    +0.000 C 
ATOM      4  C   UNL     1      -0.001  11.512  18.953  0.00  0.00    +0.000 C 
ATOM      5  C   UNL     1       0.099  11.520  20.491  0.00  0.00    +0.000 C 
ATOM      6  C   UNL     1       0.145  10.121  21.111  0.00  0.00    +0.000 C 
ENDROOT
BRANCH   4   7
ATOM      7  N   UNL     1      -1.332  11.067  18.497  0.00  0.00    +0.000 N 
ATOM      8  C   UNL     1      -1.635  10.134  17.549  0.00  0.00    +0.000 A 
ATOM      9  C   UNL     1      -2.993   9.978  17.562  0.00  0.00    +0.000 A 
ATOM     10  C   UNL     1      -3.476  11.038  18.359  0.00  0.00    +0.000 A 
ATOM     11  N   UNL     1      -2.462  11.683  18.972  0.00  0.00    +0.000 NA
BRANCH  10  12
ATOM     12  C   UNL     1      -4.933  11.492  18.402  0.00  0.00    +0.000 C 
ATOM     13  C   UNL     1      -5.349  12.144  17.066  0.00  0.00    +0.000 C 
ATOM     14  C   UNL     1      -5.910  10.344  18.709  0.00  0.00    +0.000 C 
ATOM     15  C   UNL     1      -5.078  12.561  19.515  0.00  0.00    +0.000 C 
ENDBRANCH  10  12
ENDBRANCH   4   7
BRANCH   4  16
ATOM     16  C   UNL     1       0.279  12.954  18.476  0.00  0.00    +0.000 C 
ATOM     17  O   UNL     1       1.328  13.546  18.694  0.00  0.00    +0.000 OA
BRANCH  16  18
ATOM     18  O   UNL     1      -0.747  13.592  17.857  0.00  0.00    +0.000 OA
ATOM     19  H   UNL     1      -0.447  14.106  17.057  0.00  0.00    +0.000 HD
ENDBRANCH  16  18
ENDBRANCH   4  16
BRANCH   1  20
ATOM     20  C   UNL     1       0.930   7.786  20.987  0.00  0.00    +0.000 C 
BRANCH  20  25
ATOM     21  C   UNL     1       2.214   4.455  19.926  0.00  0.00    +0.000 A 
ATOM     22  N   UNL     1       3.241   4.725  19.104  0.00  0.00    +0.000 NA
ATOM     23  C   UNL     1       3.505   6.016  18.880  0.00  0.00    +0.000 A 
ATOM     24  C   UNL     1       2.790   7.047  19.445  0.00  0.00    +0.000 A 
ATOM     25  C   UNL     1       1.762   6.697  20.298  0.00  0.00    +0.000 A 
ATOM     26  N   UNL     1       1.460   5.395  20.545  0.00  0.00    +0.000 NA
BRANCH  21  28
ATOM     27  C   UNL     1       1.383   2.725  21.551  0.00  0.00    +0.000 C 
ATOM     28  C   UNL     1       1.900   2.985  20.137  0.00  0.00    +0.000 C 
ATOM     29  C   UNL     1       0.946   2.467  19.065  0.00  0.00    +0.000 C 
ENDBRANCH  21  28
ENDBRANCH  20  25
ENDBRANCH   1  20
TORSDOF 7
ENDMDL
MODEL 9
REMARK VINA RESULT:      -7.5      2.153      6.169
REMARK  Name = 
REMARK  12 active torsions:
REMARK  status: ('A' for Active; 'I' for Inactive)
REMARK    1  A    between atoms: C_1  and  C_2
REMARK    2  A    between atoms: C_2  and  C_3
REMARK    3  A    between atoms: C_2  and  C_4
REMARK    4  A    between atoms: C_8  and  C_9
REMARK    5  A    between atoms: C_9  and  N_10
REMARK    6  A    between atoms: C_13  and  C_14
REMARK    7  A    between atoms: C_13  and  N_17
REMARK    8  A    between atoms: C_14  and  O_16
REMARK    9  A    between atoms: C_20  and  C_21
REMARK   10  A    between atoms: C_21  and  C_22
REMARK   11  A    between atoms: C_21  and  C_23
REMARK   12  A    between atoms: C_21  and  C_24
REMARK                            x       y       z     vdW  Elec       q    Type
REMARK                         _______ _______ _______ _____ _____    ______ ____
ROOT
ATOM      1  N   UNL     1       1.507   5.635  20.405  0.00  0.00    +0.000 NA
ATOM      2  C   UNL     1       1.449   5.485  18.958  0.00  0.00    +0.000 C 
ATOM      3  C   UNL     1       1.662   4.060  18.448  0.00  0.00    +0.000 C 
ATOM      4  C   UNL     1       2.876   3.330  19.082  0.00  0.00    +0.000 C 
ATOM      5  C   UNL     1       2.705   3.416  20.612  0.00  0.00    +0.000 C 
ATOM      6  C   UNL     1       2.492   4.842  21.128  0.00  0.00    +0.000 C 
ENDROOT
BRANCH   4   7
ATOM      7  N   UNL     1       4.177   3.876  18.649  0.00  0.00    +0.000 N 
ATOM      8  C   UNL     1       5.336   3.970  19.361  0.00  0.00    +0.000 A 
ATOM      9  C   UNL     1       6.296   4.430  18.504  0.00  0.00    +0.000 A 
ATOM     10  C   UNL     1       5.590   4.845  17.353  0.00  0.00    +0.000 A 
ATOM     11  N   UNL     1       4.297   4.467  17.417  0.00  0.00    +0.000 NA
BRANCH  10  12
ATOM     12  C   UNL     1       6.172   5.733  16.256  0.00  0.00    +0.000 C 
ATOM     13  C   UNL     1       6.887   4.887  15.181  0.00  0.00    +0.000 C 
ATOM     14  C   UNL     1       5.110   6.604  15.563  0.00  0.00    +0.000 C 
ATOM     15  C   UNL     1       7.225   6.671  16.897  0.00  0.00    +0.000 C 
ENDBRANCH  10  12
ENDBRANCH   4   7
BRANCH   4  16
ATOM     16  C   UNL     1       2.762   1.838  18.700  0.00  0.00    +0.000 C 
ATOM     17  O   UNL     1       3.700   1.177  18.273  0.00  0.00    +0.000 OA
BRANCH  16  18
ATOM     18  O   UNL     1       1.523   1.290  18.779  0.00  0.00    +0.000 OA
ATOM     19  H   UNL     1       1.127   1.113  17.881  0.00  0.00    +0.000 HD
ENDBRANCH  16  18
ENDBRANCH   4  16
BRANCH   1  20
ATOM     20  C   UNL     1       1.488   7.071  20.805  0.00  0.00    +0.000 C 
BRANCH  20  25
ATOM     21  C   UNL     1       1.125  10.188  18.799  0.00  0.00    +0.000 A 
ATOM     22  N   UNL     1       1.919  10.008  17.731  0.00  0.00    +0.000 NA
ATOM     23  C   UNL     1       2.597   8.857  17.677  0.00  0.00    +0.000 A 
ATOM     24  C   UNL     1       2.512   7.879  18.641  0.00  0.00    +0.000 A 
ATOM     25  C   UNL     1       1.659   8.121  19.699  0.00  0.00    +0.000 A 
ATOM     26  N   UNL     1       0.958   9.282  19.792  0.00  0.00    +0.000 NA
BRANCH  21  28
ATOM     27  C   UNL     1      -1.106  11.317  19.073  0.00  0.00    +0.000 C 
ATOM     28  C   UNL     1       0.395  11.517  18.867  0.00  0.00    +0.000 C 
ATOM     29  C   UNL     1       1.009  12.429  19.926  0.00  0.00    +0.000 C 
ENDBRANCH  21  28
ENDBRANCH  20  25
ENDBRANCH   1  20
TORSDOF 7
ENDMDL
