MODEL 1
REMARK VINA RESULT:      -7.7      0.000      0.000
REMARK  Name = 
REMARK  8 active torsions:
REMARK  status: ('A' for Active; 'I' for Inactive)
REMARK    1  A    between atoms: C_2  and  C_3
REMARK    2  A    between atoms: C_3  and  C_4
REMARK    3  A    between atoms: N_6  and  CA_7
REMARK    4  A    between atoms: CA_7  and  C_8
REMARK    5  A    between atoms: CA_7  and  C_10
REMARK    6  A    between atoms: C_8  and  O_9
REMARK    7  A    between atoms: C_10  and  C_11
REMARK    8  A    between atoms: C_14  and  C_15
REMARK                            x       y       z     vdW  Elec       q    Type
REMARK                         _______ _______ _______ _____ _____    ______ ____
ROOT
ATOM      1  C   UNL     1       3.221   5.606  18.831  0.00  0.00    +0.000 A 
ATOM      2  C   UNL     1       3.093   6.695  17.964  0.00  0.00    +0.000 A 
ATOM      3  C   UNL     1       2.397   7.849  18.357  0.00  0.00    +0.000 A 
ATOM      4  C   UNL     1       1.783   7.948  19.618  0.00  0.00    +0.000 A 
ATOM      5  C   UNL     1       1.931   6.845  20.477  0.00  0.00    +0.000 A 
ATOM      6  C   UNL     1       2.645   5.701  20.098  0.00  0.00    +0.000 A 
ENDROOT
BRANCH   4   7
ATOM      7  C   UNL     1       1.011   9.150  20.028  0.00  0.00    +0.000 A 
ATOM      8  C   UNL     1       0.439   9.263  21.309  0.00  0.00    +0.000 A 
ATOM      9  C   UNL     1      -0.290  10.400  21.682  0.00  0.00    +0.000 A 
ATOM     10 CL   UNL     1      -0.997  10.481  23.249  0.00  0.00    +0.000 Cl
ATOM     11  C   UNL     1      -0.455  11.462  20.802  0.00  0.00    +0.000 A 
ATOM     12  C   UNL     1       0.113  11.377  19.539  0.00  0.00    +0.000 A 
ATOM     13 CL   UNL     1      -0.062  12.685  18.433  0.00  0.00    +0.000 Cl
ATOM     14  C   UNL     1       0.828  10.238  19.152  0.00  0.00    +0.000 A 
ENDBRANCH   4   7
BRANCH   1  15
ATOM     15  C   UNL     1       3.905   4.327  18.402  0.00  0.00    +0.000 C 
BRANCH  15  16
ATOM     16  CA  UNL     1       5.427   4.437  18.196  0.00  0.00    +0.000 C 
BRANCH  16  19
ATOM     17  C   UNL     1       7.041   4.536  16.317  0.00  0.00    +0.000 C 
ATOM     18  O   UNL     1       7.987   4.228  17.039  0.00  0.00    +0.000 OA
ATOM     19  N   UNL     1       5.753   4.665  16.788  0.00  0.00    +0.000 N 
ATOM     20  H   UNL     1       5.100   5.190  16.218  0.00  0.00    +0.000 HD
BRANCH  17  21
ATOM     21  C   UNL     1       7.190   4.818  14.827  0.00  0.00    +0.000 C 
BRANCH  21  23
ATOM     22  C   UNL     1       6.127   3.595  12.906  0.00  0.00    +0.000 C 
ATOM     23  C   UNL     1       6.025   4.251  14.072  0.00  0.00    +0.000 C 
ENDBRANCH  21  23
ENDBRANCH  17  21
ENDBRANCH  16  19
BRANCH  16  24
ATOM     24  C   UNL     1       5.995   5.561  19.090  0.00  0.00    +0.000 C 
BRANCH  24  25
ATOM     25  O   UNL     1       7.121   5.146  19.857  0.00  0.00    +0.000 OA
ATOM     26  H   UNL     1       7.812   4.830  19.240  0.00  0.00    +0.000 HD
ENDBRANCH  24  25
ENDBRANCH  16  24
ENDBRANCH  15  16
ENDBRANCH   1  15
TORSDOF 8
ENDMDL
MODEL 2
REMARK VINA RESULT:      -7.6      2.029      3.821
REMARK  Name = 
REMARK  8 active torsions:
REMARK  status: ('A' for Active; 'I' for Inactive)
REMARK    1  A    between atoms: C_2  and  C_3
REMARK    2  A    between atoms: C_3  and  C_4
REMARK    3  A    between atoms: N_6  and  CA_7
REMARK    4  A    between atoms: CA_7  and  C_8
REMARK    5  A    between atoms: CA_7  and  C_10
REMARK    6  A    between atoms: C_8  and  O_9
REMARK    7  A    between atoms: C_10  and  C_11
REMARK    8  A    between atoms: C_14  and  C_15
REMARK                            x       y       z     vdW  Elec       q    Type
REMARK                         _______ _______ _______ _____ _____    ______ ____
ROOT
ATOM      1  C   UNL     1       3.815   6.348  18.502  0.00  0.00    +0.000 A 
ATOM      2  C   UNL     1       3.097   6.277  19.699  0.00  0.00    +0.000 A 
ATOM      3  C   UNL     1       2.107   7.224  20.001  0.00  0.00    +0.000 A 
ATOM      4  C   UNL     1       1.814   8.290  19.133  0.00  0.00    +0.000 A 
ATOM      5  C   UNL     1       2.542   8.339  17.931  0.00  0.00    +0.000 A 
ATOM      6  C   UNL     1       3.515   7.382  17.613  0.00  0.00    +0.000 A 
ENDROOT
BRANCH   4   7
ATOM      7  C   UNL     1       0.795   9.321  19.462  0.00  0.00    +0.000 A 
ATOM      8  C   UNL     1       0.518   9.693  20.790  0.00  0.00    +0.000 A 
ATOM      9  C   UNL     1      -0.448  10.663  21.086  0.00  0.00    +0.000 A 
ATOM     10 CL   UNL     1      -0.775  11.065  22.728  0.00  0.00    +0.000 Cl
ATOM     11  C   UNL     1      -1.151  11.303  20.073  0.00  0.00    +0.000 A 
ATOM     12  C   UNL     1      -0.884  10.961  18.757  0.00  0.00    +0.000 A 
ATOM     13 CL   UNL     1      -1.728  11.749  17.480  0.00  0.00    +0.000 Cl
ATOM     14  C   UNL     1       0.067   9.981  18.452  0.00  0.00    +0.000 A 
ENDBRANCH   4   7
BRANCH   1  15
ATOM     15  C   UNL     1       4.934   5.379  18.189  0.00  0.00    +0.000 C 
BRANCH  15  16
ATOM     16  CA  UNL     1       4.482   4.016  17.636  0.00  0.00    +0.000 C 
BRANCH  16  19
ATOM     17  C   UNL     1       2.650   2.539  18.416  0.00  0.00    +0.000 C 
ATOM     18  O   UNL     1       3.414   1.593  18.601  0.00  0.00    +0.000 OA
ATOM     19  N   UNL     1       3.074   3.762  17.947  0.00  0.00    +0.000 N 
ATOM     20  H   UNL     1       2.372   4.377  17.553  0.00  0.00    +0.000 HD
BRANCH  17  21
ATOM     21  C   UNL     1       1.151   2.458  18.678  0.00  0.00    +0.000 C 
BRANCH  21  23
ATOM     22  C   UNL     1       1.347   3.208  21.069  0.00  0.00    +0.000 C 
ATOM     23  C   UNL     1       0.783   3.310  19.855  0.00  0.00    +0.000 C 
ENDBRANCH  21  23
ENDBRANCH  17  21
ENDBRANCH  16  19
BRANCH  16  24
ATOM     24  C   UNL     1       4.736   3.958  16.114  0.00  0.00    +0.000 C 
BRANCH  24  25
ATOM     25  O   UNL     1       5.994   3.376  15.782  0.00  0.00    +0.000 OA
ATOM     26  H   UNL     1       5.834   2.636  15.162  0.00  0.00    +0.000 HD
ENDBRANCH  24  25
ENDBRANCH  16  24
ENDBRANCH  15  16
ENDBRANCH   1  15
TORSDOF 8
ENDMDL
MODEL 3
REMARK VINA RESULT:      -7.5      1.996      4.177
REMARK  Name = 
REMARK  8 active torsions:
REMARK  status: ('A' for Active; 'I' for Inactive)
REMARK    1  A    between atoms: C_2  and  C_3
REMARK    2  A    between atoms: C_3  and  C_4
REMARK    3  A    between atoms: N_6  and  CA_7
REMARK    4  A    between atoms: CA_7  and  C_8
REMARK    5  A    between atoms: CA_7  and  C_10
REMARK    6  A    between atoms: C_8  and  O_9
REMARK    7  A    between atoms: C_10  and  C_11
REMARK    8  A    between atoms: C_14  and  C_15
REMARK                            x       y       z     vdW  Elec       q    Type
REMARK                         _______ _______ _______ _____ _____    ______ ____
ROOT
ATOM      1  C   UNL     1       3.882   6.240  18.471  0.00  0.00    +0.000 A 
ATOM      2  C   UNL     1       3.164   6.147  19.666  0.00  0.00    +0.000 A 
ATOM      3  C   UNL     1       2.191   7.103  19.996  0.00  0.00    +0.000 A 
ATOM      4  C   UNL     1       1.917   8.198  19.158  0.00  0.00    +0.000 A 
ATOM      5  C   UNL     1       2.644   8.268  17.957  0.00  0.00    +0.000 A 
ATOM      6  C   UNL     1       3.600   7.303  17.612  0.00  0.00    +0.000 A 
ENDROOT
BRANCH   4   7
ATOM      7  C   UNL     1       0.916   9.236  19.517  0.00  0.00    +0.000 A 
ATOM      8  C   UNL     1       0.256  10.002  18.538  0.00  0.00    +0.000 A 
ATOM      9  C   UNL     1      -0.683  10.980  18.890  0.00  0.00    +0.000 A 
ATOM     10 CL   UNL     1      -1.443  11.913  17.659  0.00  0.00    +0.000 Cl
ATOM     11  C   UNL     1      -1.006  11.213  20.221  0.00  0.00    +0.000 A 
ATOM     12  C   UNL     1      -0.377  10.460  21.201  0.00  0.00    +0.000 A 
ATOM     13 CL   UNL     1      -0.770  10.715  22.858  0.00  0.00    +0.000 Cl
ATOM     14  C   UNL     1       0.574   9.493  20.859  0.00  0.00    +0.000 A 
ENDBRANCH   4   7
BRANCH   1  15
ATOM     15  C   UNL     1       4.984   5.261  18.129  0.00  0.00    +0.000 C 
BRANCH  15  16
ATOM     16  CA  UNL     1       4.510   3.935  17.508  0.00  0.00    +0.000 C 
BRANCH  16  19
ATOM     17  C   UNL     1       2.714   2.448  18.351  0.00  0.00    +0.000 C 
ATOM     18  O   UNL     1       3.497   1.520  18.548  0.00  0.00    +0.000 OA
ATOM     19  N   UNL     1       3.111   3.665  17.845  0.00  0.00    +0.000 N 
ATOM     20  H   UNL     1       2.394   4.259  17.446  0.00  0.00    +0.000 HD
BRANCH  17  21
ATOM     21  C   UNL     1       1.221   2.349  18.636  0.00  0.00    +0.000 C 
BRANCH  21  23
ATOM     22  C   UNL     1       1.341   3.085  21.036  0.00  0.00    +0.000 C 
ATOM     23  C   UNL     1       0.854   3.228  19.794  0.00  0.00    +0.000 C 
ENDBRANCH  21  23
ENDBRANCH  17  21
ENDBRANCH  16  19
BRANCH  16  24
ATOM     24  C   UNL     1       4.719   3.969  15.978  0.00  0.00    +0.000 C 
BRANCH  24  25
ATOM     25  O   UNL     1       6.094   3.982  15.605  0.00  0.00    +0.000 OA
ATOM     26  H   UNL     1       6.235   3.282  14.935  0.00  0.00    +0.000 HD
ENDBRANCH  24  25
ENDBRANCH  16  24
ENDBRANCH  15  16
ENDBRANCH   1  15
TORSDOF 8
ENDMDL
MODEL 4
REMARK VINA RESULT:      -7.5      1.785      2.556
REMARK  Name = 
REMARK  8 active torsions:
REMARK  status: ('A' for Active; 'I' for Inactive)
REMARK    1  A    between atoms: C_2  and  C_3
REMARK    2  A    between atoms: C_3  and  C_4
REMARK    3  A    between atoms: N_6  and  CA_7
REMARK    4  A    between atoms: CA_7  and  C_8
REMARK    5  A    between atoms: CA_7  and  C_10
REMARK    6  A    between atoms: C_8  and  O_9
REMARK    7  A    between atoms: C_10  and  C_11
REMARK    8  A    between atoms: C_14  and  C_15
REMARK                            x       y       z     vdW  Elec       q    Type
REMARK                         _______ _______ _______ _____ _____    ______ ____
ROOT
ATOM      1  C   UNL     1       3.514   5.556  17.656  0.00  0.00    +0.000 A 
ATOM      2  C   UNL     1       2.573   5.304  18.658  0.00  0.00    +0.000 A 
ATOM      3  C   UNL     1       1.894   6.358  19.288  0.00  0.00    +0.000 A 
ATOM      4  C   UNL     1       2.146   7.701  18.959  0.00  0.00    +0.000 A 
ATOM      5  C   UNL     1       3.090   7.933  17.943  0.00  0.00    +0.000 A 
ATOM      6  C   UNL     1       3.753   6.883  17.294  0.00  0.00    +0.000 A 
ENDROOT
BRANCH   4   7
ATOM      7  C   UNL     1       1.461   8.826  19.648  0.00  0.00    +0.000 A 
ATOM      8  C   UNL     1       1.060   8.739  20.994  0.00  0.00    +0.000 A 
ATOM      9  C   UNL     1       0.412   9.805  21.630  0.00  0.00    +0.000 A 
ATOM     10 CL   UNL     1      -0.087   9.641  23.269  0.00  0.00    +0.000 Cl
ATOM     11  C   UNL     1       0.159  10.992  20.954  0.00  0.00    +0.000 A 
ATOM     12  C   UNL     1       0.558  11.104  19.631  0.00  0.00    +0.000 A 
ATOM     13 CL   UNL     1       0.274  12.570  18.774  0.00  0.00    +0.000 Cl
ATOM     14  C   UNL     1       1.192  10.038  18.983  0.00  0.00    +0.000 A 
ENDBRANCH   4   7
BRANCH   1  15
ATOM     15  C   UNL     1       4.308   4.440  17.014  0.00  0.00    +0.000 C 
BRANCH  15  16
ATOM     16  CA  UNL     1       5.244   3.672  17.965  0.00  0.00    +0.000 C 
BRANCH  16  19
ATOM     17  C   UNL     1       7.402   4.864  18.226  0.00  0.00    +0.000 C 
ATOM     18  O   UNL     1       7.866   4.365  17.202  0.00  0.00    +0.000 OA
ATOM     19  N   UNL     1       6.133   4.588  18.682  0.00  0.00    +0.000 N 
ATOM     20  H   UNL     1       5.932   4.796  19.654  0.00  0.00    +0.000 HD
BRANCH  17  21
ATOM     21  C   UNL     1       8.183   5.833  19.104  0.00  0.00    +0.000 C 
BRANCH  21  23
ATOM     22  C   UNL     1       7.486   7.543  17.399  0.00  0.00    +0.000 C 
ATOM     23  C   UNL     1       8.073   7.228  18.565  0.00  0.00    +0.000 C 
ENDBRANCH  21  23
ENDBRANCH  17  21
ENDBRANCH  16  19
BRANCH  16  24
ATOM     24  C   UNL     1       4.408   2.823  18.948  0.00  0.00    +0.000 C 
BRANCH  24  25
ATOM     25  O   UNL     1       5.205   2.160  19.925  0.00  0.00    +0.000 OA
ATOM     26  H   UNL     1       4.654   1.472  20.353  0.00  0.00    +0.000 HD
ENDBRANCH  24  25
ENDBRANCH  16  24
ENDBRANCH  15  16
ENDBRANCH   1  15
TORSDOF 8
ENDMDL
MODEL 5
REMARK VINA RESULT:      -7.5      2.014      3.078
REMARK  Name = 
REMARK  8 active torsions:
REMARK  status: ('A' for Active; 'I' for Inactive)
REMARK    1  A    between atoms: C_2  and  C_3
REMARK    2  A    between atoms: C_3  and  C_4
REMARK    3  A    between atoms: N_6  and  CA_7
REMARK    4  A    between atoms: CA_7  and  C_8
REMARK    5  A    between atoms: CA_7  and  C_10
REMARK    6  A    between atoms: C_8  and  O_9
REMARK    7  A    between atoms: C_10  and  C_11
REMARK    8  A    between atoms: C_14  and  C_15
REMARK                            x       y       z     vdW  Elec       q    Type
REMARK                         _______ _______ _______ _____ _____    ______ ____
ROOT
ATOM      1  C   UNL     1       3.575   6.262  18.157  0.00  0.00    +0.000 A 
ATOM      2  C   UNL     1       3.309   7.409  17.404  0.00  0.00    +0.000 A 
ATOM      3  C   UNL     1       2.483   8.424  17.910  0.00  0.00    +0.000 A 
ATOM      4  C   UNL     1       1.874   8.322  19.173  0.00  0.00    +0.000 A 
ATOM      5  C   UNL     1       2.161   7.163  19.916  0.00  0.00    +0.000 A 
ATOM      6  C   UNL     1       3.004   6.158  19.426  0.00  0.00    +0.000 A 
ENDROOT
BRANCH   4   7
ATOM      7  C   UNL     1       0.967   9.374  19.701  0.00  0.00    +0.000 A 
ATOM      8  C   UNL     1       0.536   9.380  21.040  0.00  0.00    +0.000 A 
ATOM      9  C   UNL     1      -0.322  10.376  21.524  0.00  0.00    +0.000 A 
ATOM     10 CL   UNL     1      -0.847  10.325  23.162  0.00  0.00    +0.000 Cl
ATOM     11  C   UNL     1      -0.761  11.402  20.698  0.00  0.00    +0.000 A 
ATOM     12  C   UNL     1      -0.337  11.424  19.377  0.00  0.00    +0.000 A 
ATOM     13 CL   UNL     1      -0.851  12.693  18.335  0.00  0.00    +0.000 Cl
ATOM     14  C   UNL     1       0.506  10.424  18.881  0.00  0.00    +0.000 A 
ENDBRANCH   4   7
BRANCH   1  15
ATOM     15  C   UNL     1       4.404   5.124  17.603  0.00  0.00    +0.000 C 
BRANCH  15  16
ATOM     16  CA  UNL     1       5.757   5.537  16.995  0.00  0.00    +0.000 C 
BRANCH  16  19
ATOM     17  C   UNL     1       7.569   7.137  17.544  0.00  0.00    +0.000 C 
ATOM     18  O   UNL     1       7.871   7.288  16.361  0.00  0.00    +0.000 OA
ATOM     19  N   UNL     1       6.553   6.304  17.955  0.00  0.00    +0.000 N 
ATOM     20  H   UNL     1       6.554   6.013  18.925  0.00  0.00    +0.000 HD
BRANCH  17  21
ATOM     21  C   UNL     1       8.291   7.848  18.682  0.00  0.00    +0.000 C 
BRANCH  21  23
ATOM     22  C   UNL     1       9.187  10.157  19.110  0.00  0.00    +0.000 C 
ATOM     23  C   UNL     1       8.537   9.283  18.325  0.00  0.00    +0.000 C 
ENDBRANCH  21  23
ENDBRANCH  17  21
ENDBRANCH  16  19
BRANCH  16  24
ATOM     24  C   UNL     1       6.519   4.283  16.514  0.00  0.00    +0.000 C 
BRANCH  24  25
ATOM     25  O   UNL     1       7.399   4.551  15.427  0.00  0.00    +0.000 OA
ATOM     26  H   UNL     1       7.412   3.765  14.843  0.00  0.00    +0.000 HD
ENDBRANCH  24  25
ENDBRANCH  16  24
ENDBRANCH  15  16
ENDBRANCH   1  15
TORSDOF 8
ENDMDL
MODEL 6
REMARK VINA RESULT:      -7.4      1.972      2.380
REMARK  Name = 
REMARK  8 active torsions:
REMARK  status: ('A' for Active; 'I' for Inactive)
REMARK    1  A    between atoms: C_2  and  C_3
REMARK    2  A    between atoms: C_3  and  C_4
REMARK    3  A    between atoms: N_6  and  CA_7
REMARK    4  A    between atoms: CA_7  and  C_8
REMARK    5  A    between atoms: CA_7  and  C_10
REMARK    6  A    between atoms: C_8  and  O_9
REMARK    7  A    between atoms: C_10  and  C_11
REMARK    8  A    between atoms: C_14  and  C_15
REMARK                            x       y       z     vdW  Elec       q    Type
REMARK                         _______ _______ _______ _____ _____    ______ ____
ROOT
ATOM      1  C   UNL     1       3.001   4.945  18.374  0.00  0.00    +0.000 A 
ATOM      2  C   UNL     1       3.102   6.184  17.735  0.00  0.00    +0.000 A 
ATOM      3  C   UNL     1       2.594   7.346  18.337  0.00  0.00    +0.000 A 
ATOM      4  C   UNL     1       1.946   7.310  19.584  0.00  0.00    +0.000 A 
ATOM      5  C   UNL     1       1.862   6.055  20.212  0.00  0.00    +0.000 A 
ATOM      6  C   UNL     1       2.389   4.896  19.628  0.00  0.00    +0.000 A 
ENDROOT
BRANCH   4   7
ATOM      7  C   UNL     1       1.370   8.528  20.210  0.00  0.00    +0.000 A 
ATOM      8  C   UNL     1       0.953   8.546  21.554  0.00  0.00    +0.000 A 
ATOM      9  C   UNL     1       0.408   9.700  22.131  0.00  0.00    +0.000 A 
ATOM     10 CL   UNL     1      -0.118   9.666  23.770  0.00  0.00    +0.000 Cl
ATOM     11  C   UNL     1       0.281  10.873  21.398  0.00  0.00    +0.000 A 
ATOM     12  C   UNL     1       0.699  10.881  20.076  0.00  0.00    +0.000 A 
ATOM     13 CL   UNL     1       0.569  12.325  19.147  0.00  0.00    +0.000 Cl
ATOM     14  C   UNL     1       1.228   9.728  19.486  0.00  0.00    +0.000 A 
ENDBRANCH   4   7
BRANCH   1  15
ATOM     15  C   UNL     1       3.478   3.670  17.713  0.00  0.00    +0.000 C 
BRANCH  15  16
ATOM     16  CA  UNL     1       4.720   3.026  18.356  0.00  0.00    +0.000 C 
BRANCH  16  19
ATOM     17  C   UNL     1       6.637   4.594  18.235  0.00  0.00    +0.000 C 
ATOM     18  O   UNL     1       6.899   4.274  17.077  0.00  0.00    +0.000 OA
ATOM     19  N   UNL     1       5.594   4.041  18.945  0.00  0.00    +0.000 N 
ATOM     20  H   UNL     1       5.618   4.133  19.954  0.00  0.00    +0.000 HD
BRANCH  17  21
ATOM     21  C   UNL     1       7.441   5.628  19.013  0.00  0.00    +0.000 C 
BRANCH  21  23
ATOM     22  C   UNL     1       6.886   7.479  17.406  0.00  0.00    +0.000 C 
ATOM     23  C   UNL     1       7.782   6.792  18.131  0.00  0.00    +0.000 C 
ENDBRANCH  21  23
ENDBRANCH  17  21
ENDBRANCH  16  19
BRANCH  16  24
ATOM     24  C   UNL     1       4.284   1.985  19.410  0.00  0.00    +0.000 C 
BRANCH  24  25
ATOM     25  O   UNL     1       5.221   1.846  20.473  0.00  0.00    +0.000 OA
ATOM     26  H   UNL     1       6.028   2.347  20.238  0.00  0.00    +0.000 HD
ENDBRANCH  24  25
ENDBRANCH  16  24
ENDBRANCH  15  16
ENDBRANCH   1  15
TORSDOF 8
ENDMDL
MODEL 7
REMARK VINA RESULT:      -7.4      1.642      3.211
REMARK  Name = 
REMARK  8 active torsions:
REMARK  status: ('A' for Active; 'I' for Inactive)
REMARK    1  A    between atoms: C_2  and  C_3
REMARK    2  A    between atoms: C_3  and  C_4
REMARK    3  A    between atoms: N_6  and  CA_7
REMARK    4  A    between atoms: CA_7  and  C_8
REMARK    5  A    between atoms: CA_7  and  C_10
REMARK    6  A    between atoms: C_8  and  O_9
REMARK    7  A    between atoms: C_10  and  C_11
REMARK    8  A    between atoms: C_14  and  C_15
REMARK                            x       y       z     vdW  Elec       q    Type
REMARK                         _______ _______ _______ _____ _____    ______ ____
ROOT
ATOM      1  C   UNL     1       3.541   6.878  17.722  0.00  0.00    +0.000 A 
ATOM      2  C   UNL     1       3.074   6.552  18.999  0.00  0.00    +0.000 A 
ATOM      3  C   UNL     1       2.179   7.396  19.674  0.00  0.00    +0.000 A 
ATOM      4  C   UNL     1       1.737   8.606  19.111  0.00  0.00    +0.000 A 
ATOM      5  C   UNL     1       2.212   8.911  17.824  0.00  0.00    +0.000 A 
ATOM      6  C   UNL     1       3.087   8.060  17.135  0.00  0.00    +0.000 A 
ENDROOT
BRANCH   4   7
ATOM      7  C   UNL     1       0.820   9.525  19.835  0.00  0.00    +0.000 A 
ATOM      8  C   UNL     1       0.530   9.361  21.202  0.00  0.00    +0.000 A 
ATOM      9  C   UNL     1      -0.339  10.232  21.871  0.00  0.00    +0.000 A 
ATOM     10 CL   UNL     1      -0.688   9.973  23.536  0.00  0.00    +0.000 Cl
ATOM     11  C   UNL     1      -0.929  11.300  21.207  0.00  0.00    +0.000 A 
ATOM     12  C   UNL     1      -0.646  11.488  19.863  0.00  0.00    +0.000 A 
ATOM     13 CL   UNL     1      -1.349  12.814  19.019  0.00  0.00    +0.000 Cl
ATOM     14  C   UNL     1       0.208  10.613  19.182  0.00  0.00    +0.000 A 
ENDBRANCH   4   7
BRANCH   1  15
ATOM     15  C   UNL     1       4.560   6.019  17.006  0.00  0.00    +0.000 C 
BRANCH  15  16
ATOM     16  CA  UNL     1       5.128   4.852  17.835  0.00  0.00    +0.000 C 
BRANCH  16  19
ATOM     17  C   UNL     1       4.192   2.789  18.842  0.00  0.00    +0.000 C 
ATOM     18  O   UNL     1       4.907   2.883  19.838  0.00  0.00    +0.000 OA
ATOM     19  N   UNL     1       4.227   3.699  17.809  0.00  0.00    +0.000 N 
ATOM     20  H   UNL     1       3.838   3.408  16.919  0.00  0.00    +0.000 HD
BRANCH  17  21
ATOM     21  C   UNL     1       3.198   1.653  18.637  0.00  0.00    +0.000 C 
BRANCH  21  23
ATOM     22  C   UNL     1       1.285   2.803  19.793  0.00  0.00    +0.000 C 
ATOM     23  C   UNL     1       1.793   2.170  18.724  0.00  0.00    +0.000 C 
ENDBRANCH  21  23
ENDBRANCH  17  21
ENDBRANCH  16  19
BRANCH  16  24
ATOM     24  C   UNL     1       6.532   4.475  17.313  0.00  0.00    +0.000 C 
BRANCH  24  25
ATOM     25  O   UNL     1       7.458   4.200  18.360  0.00  0.00    +0.000 OA
ATOM     26  H   UNL     1       8.008   4.998  18.499  0.00  0.00    +0.000 HD
ENDBRANCH  24  25
ENDBRANCH  16  24
ENDBRANCH  15  16
ENDBRANCH   1  15
TORSDOF 8
ENDMDL
MODEL 8
REMARK VINA RESULT:      -7.3      1.917      2.123
REMARK  Name = 
REMARK  8 active torsions:
REMARK  status: ('A' for Active; 'I' for Inactive)
REMARK    1  A    between atoms: C_2  and  C_3
REMARK    2  A    between atoms: C_3  and  C_4
REMARK    3  A    between atoms: N_6  and  CA_7
REMARK    4  A    between atoms: CA_7  and  C_8
REMARK    5  A    between atoms: CA_7  and  C_10
REMARK    6  A    between atoms: C_8  and  O_9
REMARK    7  A    between atoms: C_10  and  C_11
REMARK    8  A    between atoms: C_14  and  C_15
REMARK                            x       y       z     vdW  Elec       q    Type
REMARK                         _______ _______ _______ _____ _____    ______ ____
ROOT
ATOM      1  C   UNL     1       3.404   6.753  18.517  0.00  0.00    +0.000 A 
ATOM      2  C   UNL     1       3.157   7.815  17.642  0.00  0.00    +0.000 A 
ATOM      3  C   UNL     1       2.214   8.804  17.961  0.00  0.00    +0.000 A 
ATOM      4  C   UNL     1       1.467   8.758  19.151  0.00  0.00    +0.000 A 
ATOM      5  C   UNL     1       1.737   7.686  20.021  0.00  0.00    +0.000 A 
ATOM      6  C   UNL     1       2.694   6.709  19.719  0.00  0.00    +0.000 A 
ENDROOT
BRANCH   4   7
ATOM      7  C   UNL     1       0.439   9.780  19.479  0.00  0.00    +0.000 A 
ATOM      8  C   UNL     1       0.336  10.343  20.765  0.00  0.00    +0.000 A 
ATOM      9  C   UNL     1      -0.641  11.302  21.062  0.00  0.00    +0.000 A 
ATOM     10 CL   UNL     1      -0.749  11.941  22.657  0.00  0.00    +0.000 Cl
ATOM     11  C   UNL     1      -1.528  11.743  20.088  0.00  0.00    +0.000 A 
ATOM     12  C   UNL     1      -1.434  11.211  18.811  0.00  0.00    +0.000 A 
ATOM     13 CL   UNL     1      -2.509  11.751  17.579  0.00  0.00    +0.000 Cl
ATOM     14  C   UNL     1      -0.473  10.240  18.510  0.00  0.00    +0.000 A 
ENDBRANCH   4   7
BRANCH   1  15
ATOM     15  C   UNL     1       4.363   5.639  18.162  0.00  0.00    +0.000 C 
BRANCH  15  16
ATOM     16  CA  UNL     1       3.889   4.703  17.035  0.00  0.00    +0.000 C 
BRANCH  16  19
ATOM     17  C   UNL     1       5.584   5.209  15.297  0.00  0.00    +0.000 C 
ATOM     18  O   UNL     1       5.208   6.375  15.190  0.00  0.00    +0.000 OA
ATOM     19  N   UNL     1       5.003   4.315  16.169  0.00  0.00    +0.000 N 
ATOM     20  H   UNL     1       5.163   3.328  15.998  0.00  0.00    +0.000 HD
BRANCH  17  21
ATOM     21  C   UNL     1       6.724   4.625  14.473  0.00  0.00    +0.000 C 
BRANCH  21  23
ATOM     22  C   UNL     1       6.780   3.638  12.162  0.00  0.00    +0.000 C 
ATOM     23  C   UNL     1       6.181   3.788  13.354  0.00  0.00    +0.000 C 
ENDBRANCH  21  23
ENDBRANCH  17  21
ENDBRANCH  16  19
BRANCH  16  24
ATOM     24  C   UNL     1       3.196   3.464  17.641  0.00  0.00    +0.000 C 
BRANCH  24  25
ATOM     25  O   UNL     1       1.814   3.380  17.304  0.00  0.00    +0.000 OA
ATOM     26  H   UNL     1       1.743   3.256  16.336  0.00  0.00    +0.000 HD
ENDBRANCH  24  25
ENDBRANCH  16  24
ENDBRANCH  15  16
ENDBRANCH   1  15
TORSDOF 8
ENDMDL
MODEL 9
REMARK VINA RESULT:      -7.3      1.818      2.997
REMARK  Name = 
REMARK  8 active torsions:
REMARK  status: ('A' for Active; 'I' for Inactive)
REMARK    1  A    between atoms: C_2  and  C_3
REMARK    2  A    between atoms: C_3  and  C_4
REMARK    3  A    between atoms: N_6  and  CA_7
REMARK    4  A    between atoms: CA_7  and  C_8
REMARK    5  A    between atoms: CA_7  and  C_10
REMARK    6  A    between atoms: C_8  and  O_9
REMARK    7  A    between atoms: C_10  and  C_11
REMARK    8  A    between atoms: C_14  and  C_15
REMARK                            x       y       z     vdW  Elec       q    Type
REMARK                         _______ _______ _______ _____ _____    ______ ____
ROOT
ATOM      1  C   UNL     1       3.467   6.436  17.956  0.00  0.00    +0.000 A 
ATOM      2  C   UNL     1       2.935   6.282  19.240  0.00  0.00    +0.000 A 
ATOM      3  C   UNL     1       2.102   7.265  19.795  0.00  0.00    +0.000 A 
ATOM      4  C   UNL     1       1.789   8.447  19.101  0.00  0.00    +0.000 A 
ATOM      5  C   UNL     1       2.328   8.578  17.809  0.00  0.00    +0.000 A 
ATOM      6  C   UNL     1       3.141   7.589  17.240  0.00  0.00    +0.000 A 
ENDROOT
BRANCH   4   7
ATOM      7  C   UNL     1       0.940   9.512  19.696  0.00  0.00    +0.000 A 
ATOM      8  C   UNL     1       0.511   9.458  21.035  0.00  0.00    +0.000 A 
ATOM      9  C   UNL     1      -0.292  10.466  21.583  0.00  0.00    +0.000 A 
ATOM     10 CL   UNL     1      -0.818  10.343  23.217  0.00  0.00    +0.000 Cl
ATOM     11  C   UNL     1      -0.677  11.564  20.823  0.00  0.00    +0.000 A 
ATOM     12  C   UNL     1      -0.254  11.643  19.504  0.00  0.00    +0.000 A 
ATOM     13 CL   UNL     1      -0.701  13.000  18.544  0.00  0.00    +0.000 Cl
ATOM     14  C   UNL     1       0.535  10.633  18.944  0.00  0.00    +0.000 A 
ENDBRANCH   4   7
BRANCH   1  15
ATOM     15  C   UNL     1       4.423   5.422  17.367  0.00  0.00    +0.000 C 
BRANCH  15  16
ATOM     16  CA  UNL     1       5.377   5.973  16.291  0.00  0.00    +0.000 C 
BRANCH  16  19
ATOM     17  C   UNL     1       7.174   6.331  17.961  0.00  0.00    +0.000 C 
ATOM     18  O   UNL     1       6.995   5.229  18.474  0.00  0.00    +0.000 OA
ATOM     19  N   UNL     1       6.435   6.786  16.892  0.00  0.00    +0.000 N 
ATOM     20  H   UNL     1       6.437   7.784  16.716  0.00  0.00    +0.000 HD
BRANCH  17  21
ATOM     21  C   UNL     1       8.226   7.317  18.455  0.00  0.00    +0.000 C 
BRANCH  21  23
ATOM     22  C   UNL     1       8.592   9.795  18.256  0.00  0.00    +0.000 C 
ATOM     23  C   UNL     1       8.010   8.663  17.832  0.00  0.00    +0.000 C 
ENDBRANCH  21  23
ENDBRANCH  17  21
ENDBRANCH  16  19
BRANCH  16  24
ATOM     24  C   UNL     1       5.968   4.806  15.470  0.00  0.00    +0.000 C 
BRANCH  24  25
ATOM     25  O   UNL     1       6.005   3.580  16.193  0.00  0.00    +0.000 OA
ATOM     26  H   UNL     1       5.918   2.844  15.553  0.00  0.00    +0.000 HD
ENDBRANCH  24  25
ENDBRANCH  16  24
ENDBRANCH  15  16
ENDBRANCH   1  15
TORSDOF 8
ENDMDL
