MODEL 1
REMARK VINA RESULT:      -8.7      0.000      0.000
REMARK  Name = 
REMARK  6 active torsions:
REMARK  status: ('A' for Active; 'I' for Inactive)
REMARK    1  A    between atoms: C_2  and  C_3
REMARK    2  A    between atoms: C_3  and  C_4
REMARK    3  A    between atoms: C_4  and  C_5
REMARK    4  A    between atoms: C_8  and  C_9
REMARK    5  A    between atoms: N_16  and  C_17
REMARK    6  A    between atoms: C_17  and  C_18
REMARK                            x       y       z     vdW  Elec       q    Type
REMARK                         _______ _______ _______ _____ _____    ______ ____
ROOT
ATOM      1  O   UNL     1       6.631   7.291  17.044  0.00  0.00    +0.000 OA
ATOM      2  C   UNL     1       7.569   7.197  17.830  0.00  0.00    +0.000 C 
ATOM      3  N   UNL     1       8.359   8.253  18.218  0.00  0.00    +0.000 N 
ATOM      4  H   UNL     1       9.148   8.095  18.811  0.00  0.00    +0.000 HD
ENDROOT
BRANCH   2   5
ATOM      5  C   UNL     1       7.953   5.874  18.469  0.00  0.00    +0.000 C 
BRANCH   5   6
ATOM      6  C   UNL     1       6.954   5.485  19.557  0.00  0.00    +0.000 C 
BRANCH   6   7
ATOM      7  C   UNL     1       5.700   4.953  18.978  0.00  0.00    +0.000 A 
ATOM      8  N   UNL     1       5.533   4.084  18.005  0.00  0.00    +0.000 NA
ATOM      9  N   UNL     1       4.173   3.952  17.837  0.00  0.00    +0.000 NA
ATOM     10  C   UNL     1       3.601   4.746  18.721  0.00  0.00    +0.000 A 
ATOM     11  O   UNL     1       4.517   5.422  19.485  0.00  0.00    +0.000 OA
BRANCH  10  12
ATOM     12  C   UNL     1       2.153   5.016  18.987  0.00  0.00    +0.000 C 
ATOM     13  C   UNL     1       1.253   3.932  18.400  0.00  0.00    +0.000 C 
ATOM     14  C   UNL     1       1.329   2.595  19.141  0.00  0.00    +0.000 C 
ATOM     15  C   UNL     1       1.075   2.764  20.633  0.00  0.00    +0.000 C 
ATOM     16  C   UNL     1       1.930   3.865  21.253  0.00  0.00    +0.000 C 
ATOM     17  C   UNL     1       1.850   5.180  20.478  0.00  0.00    +0.000 C 
ENDBRANCH  10  12
ENDBRANCH   6   7
ENDBRANCH   5   6
ENDBRANCH   2   5
BRANCH   3  18
ATOM     18  C   UNL     1       8.169   9.595  17.695  0.00  0.00    +0.000 C 
BRANCH  18  19
ATOM     19  C   UNL     1       8.990  10.596  18.466  0.00  0.00    +0.000 A 
ATOM     20  C   UNL     1       9.318  10.379  19.819  0.00  0.00    +0.000 A 
ATOM     21  C   UNL     1      10.116  11.291  20.518  0.00  0.00    +0.000 A 
ATOM     22  C   UNL     1      10.574  12.431  19.878  0.00  0.00    +0.000 A 
ATOM     23  F   UNL     1      11.357  13.297  20.535  0.00  0.00    +0.000 F 
ATOM     24  C   UNL     1      10.216  12.679  18.563  0.00  0.00    +0.000 A 
ATOM     25  F   UNL     1      10.591  13.829  17.988  0.00  0.00    +0.000 F 
ATOM     26  C   UNL     1       9.462  11.757  17.839  0.00  0.00    +0.000 A 
ENDBRANCH  18  19
ENDBRANCH   3  18
TORSDOF 6
ENDMDL
MODEL 2
REMARK VINA RESULT:      -8.4      0.863      1.506
REMARK  Name = 
REMARK  6 active torsions:
REMARK  status: ('A' for Active; 'I' for Inactive)
REMARK    1  A    between atoms: C_2  and  C_3
REMARK    2  A    between atoms: C_3  and  C_4
REMARK    3  A    between atoms: C_4  and  C_5
REMARK    4  A    between atoms: C_8  and  C_9
REMARK    5  A    between atoms: N_16  and  C_17
REMARK    6  A    between atoms: C_17  and  C_18
REMARK                            x       y       z     vdW  Elec       q    Type
REMARK                         _______ _______ _______ _____ _____    ______ ____
ROOT
ATOM      1  O   UNL     1       6.318   7.535  16.979  0.00  0.00    +0.000 OA
ATOM      2  C   UNL     1       7.306   7.312  17.675  0.00  0.00    +0.000 C 
ATOM      3  N   UNL     1       8.221   8.270  18.043  0.00  0.00    +0.000 N 
ATOM      4  H   UNL     1       9.038   8.008  18.556  0.00  0.00    +0.000 HD
ENDROOT
BRANCH   2   5
ATOM      5  C   UNL     1       7.614   5.926  18.213  0.00  0.00    +0.000 C 
BRANCH   5   6
ATOM      6  C   UNL     1       6.602   5.519  19.281  0.00  0.00    +0.000 C 
BRANCH   6   7
ATOM      7  C   UNL     1       5.635   4.524  18.763  0.00  0.00    +0.000 A 
ATOM      8  N   UNL     1       5.353   4.206  17.518  0.00  0.00    +0.000 NA
ATOM      9  N   UNL     1       4.369   3.244  17.582  0.00  0.00    +0.000 NA
ATOM     10  C   UNL     1       4.120   3.039  18.860  0.00  0.00    +0.000 A 
ATOM     11  O   UNL     1       4.891   3.825  19.675  0.00  0.00    +0.000 OA
BRANCH  10  12
ATOM     12  C   UNL     1       3.142   2.117  19.520  0.00  0.00    +0.000 C 
ATOM     13  C   UNL     1       2.945   2.454  20.995  0.00  0.00    +0.000 C 
ATOM     14  C   UNL     1       2.166   3.749  21.236  0.00  0.00    +0.000 C 
ATOM     15  C   UNL     1       0.835   3.751  20.495  0.00  0.00    +0.000 C 
ATOM     16  C   UNL     1       0.983   3.382  19.022  0.00  0.00    +0.000 C 
ATOM     17  C   UNL     1       1.784   2.098  18.814  0.00  0.00    +0.000 C 
ENDBRANCH  10  12
ENDBRANCH   6   7
ENDBRANCH   5   6
ENDBRANCH   2   5
BRANCH   3  18
ATOM     18  C   UNL     1       8.117   9.650  17.605  0.00  0.00    +0.000 C 
BRANCH  18  19
ATOM     19  C   UNL     1       9.073  10.532  18.366  0.00  0.00    +0.000 A 
ATOM     20  C   UNL     1       9.329  10.316  19.733  0.00  0.00    +0.000 A 
ATOM     21  C   UNL     1      10.250  11.111  20.424  0.00  0.00    +0.000 A 
ATOM     22  C   UNL     1      10.904  12.136  19.760  0.00  0.00    +0.000 A 
ATOM     23  F   UNL     1      11.803  12.887  20.411  0.00  0.00    +0.000 F 
ATOM     24  C   UNL     1      10.622  12.389  18.428  0.00  0.00    +0.000 A 
ATOM     25  F   UNL     1      11.193  13.440  17.826  0.00  0.00    +0.000 F 
ATOM     26  C   UNL     1       9.743  11.576  17.713  0.00  0.00    +0.000 A 
ENDBRANCH  18  19
ENDBRANCH   3  18
TORSDOF 6
ENDMDL
MODEL 3
REMARK VINA RESULT:      -8.4      1.099      1.339
REMARK  Name = 
REMARK  6 active torsions:
REMARK  status: ('A' for Active; 'I' for Inactive)
REMARK    1  A    between atoms: C_2  and  C_3
REMARK    2  A    between atoms: C_3  and  C_4
REMARK    3  A    between atoms: C_4  and  C_5
REMARK    4  A    between atoms: C_8  and  C_9
REMARK    5  A    between atoms: N_16  and  C_17
REMARK    6  A    between atoms: C_17  and  C_18
REMARK                            x       y       z     vdW  Elec       q    Type
REMARK                         _______ _______ _______ _____ _____    ______ ____
ROOT
ATOM      1  O   UNL     1       7.704   7.105  16.644  0.00  0.00    +0.000 OA
ATOM      2  C   UNL     1       7.924   7.160  17.851  0.00  0.00    +0.000 C 
ATOM      3  N   UNL     1       8.202   8.322  18.531  0.00  0.00    +0.000 N 
ATOM      4  H   UNL     1       8.436   8.288  19.502  0.00  0.00    +0.000 HD
ENDROOT
BRANCH   2   5
ATOM      5  C   UNL     1       7.905   5.921  18.729  0.00  0.00    +0.000 C 
BRANCH   5   6
ATOM      6  C   UNL     1       6.489   5.618  19.212  0.00  0.00    +0.000 C 
BRANCH   6   7
ATOM      7  C   UNL     1       5.726   4.844  18.207  0.00  0.00    +0.000 A 
ATOM      8  N   UNL     1       6.128   4.341  17.061  0.00  0.00    +0.000 NA
ATOM      9  N   UNL     1       5.026   3.736  16.499  0.00  0.00    +0.000 NA
ATOM     10  C   UNL     1       4.027   3.908  17.341  0.00  0.00    +0.000 A 
ATOM     11  O   UNL     1       4.400   4.611  18.457  0.00  0.00    +0.000 OA
BRANCH  10  12
ATOM     12  C   UNL     1       2.597   3.475  17.248  0.00  0.00    +0.000 C 
ATOM     13  C   UNL     1       2.363   2.128  17.925  0.00  0.00    +0.000 C 
ATOM     14  C   UNL     1       2.439   2.180  19.453  0.00  0.00    +0.000 C 
ATOM     15  C   UNL     1       1.513   3.245  20.026  0.00  0.00    +0.000 C 
ATOM     16  C   UNL     1       1.689   4.601  19.350  0.00  0.00    +0.000 C 
ATOM     17  C   UNL     1       1.630   4.512  17.825  0.00  0.00    +0.000 C 
ENDBRANCH  10  12
ENDBRANCH   6   7
ENDBRANCH   5   6
ENDBRANCH   2   5
BRANCH   3  18
ATOM     18  C   UNL     1       8.293   9.608  17.863  0.00  0.00    +0.000 C 
BRANCH  18  19
ATOM     19  C   UNL     1       9.327  10.486  18.520  0.00  0.00    +0.000 A 
ATOM     20  C   UNL     1       9.316  10.703  19.911  0.00  0.00    +0.000 A 
ATOM     21  C   UNL     1      10.303  11.485  20.522  0.00  0.00    +0.000 A 
ATOM     22  C   UNL     1      11.292  12.067  19.746  0.00  0.00    +0.000 A 
ATOM     23  F   UNL     1      12.253  12.799  20.328  0.00  0.00    +0.000 F 
ATOM     24  C   UNL     1      11.283  11.901  18.372  0.00  0.00    +0.000 A 
ATOM     25  F   UNL     1      12.191  12.545  17.628  0.00  0.00    +0.000 F 
ATOM     26  C   UNL     1      10.335  11.086  17.754  0.00  0.00    +0.000 A 
ENDBRANCH  18  19
ENDBRANCH   3  18
TORSDOF 6
ENDMDL
MODEL 4
REMARK VINA RESULT:      -8.3      1.199      1.718
REMARK  Name = 
REMARK  6 active torsions:
REMARK  status: ('A' for Active; 'I' for Inactive)
REMARK    1  A    between atoms: C_2  and  C_3
REMARK    2  A    between atoms: C_3  and  C_4
REMARK    3  A    between atoms: C_4  and  C_5
REMARK    4  A    between atoms: C_8  and  C_9
REMARK    5  A    between atoms: N_16  and  C_17
REMARK    6  A    between atoms: C_17  and  C_18
REMARK                            x       y       z     vdW  Elec       q    Type
REMARK                         _______ _______ _______ _____ _____    ______ ____
ROOT
ATOM      1  O   UNL     1       8.286   6.749  18.931  0.00  0.00    +0.000 OA
ATOM      2  C   UNL     1       7.882   7.534  18.078  0.00  0.00    +0.000 C 
ATOM      3  N   UNL     1       8.222   8.866  18.034  0.00  0.00    +0.000 N 
ATOM      4  H   UNL     1       7.806   9.465  17.351  0.00  0.00    +0.000 HD
ENDROOT
BRANCH   2   5
ATOM      5  C   UNL     1       6.952   7.099  16.960  0.00  0.00    +0.000 C 
BRANCH   5   6
ATOM      6  C   UNL     1       6.838   5.577  16.908  0.00  0.00    +0.000 C 
BRANCH   6   7
ATOM      7  C   UNL     1       5.781   5.080  17.819  0.00  0.00    +0.000 A 
ATOM      8  N   UNL     1       5.862   4.187  18.781  0.00  0.00    +0.000 NA
ATOM      9  N   UNL     1       4.593   4.071  19.304  0.00  0.00    +0.000 NA
ATOM     10  C   UNL     1       3.825   4.901  18.627  0.00  0.00    +0.000 A 
ATOM     11  O   UNL     1       4.516   5.580  17.658  0.00  0.00    +0.000 OA
BRANCH  10  12
ATOM     12  C   UNL     1       2.360   5.185  18.752  0.00  0.00    +0.000 C 
ATOM     13  C   UNL     1       1.510   4.106  18.086  0.00  0.00    +0.000 C 
ATOM     14  C   UNL     1       1.502   2.773  18.838  0.00  0.00    +0.000 C 
ATOM     15  C   UNL     1       1.108   2.952  20.298  0.00  0.00    +0.000 C 
ATOM     16  C   UNL     1       1.910   4.049  20.992  0.00  0.00    +0.000 C 
ATOM     17  C   UNL     1       1.917   5.360  20.206  0.00  0.00    +0.000 C 
ENDBRANCH  10  12
ENDBRANCH   6   7
ENDBRANCH   5   6
ENDBRANCH   2   5
BRANCH   3  18
ATOM     18  C   UNL     1       9.079   9.480  19.033  0.00  0.00    +0.000 C 
BRANCH  18  19
ATOM     19  C   UNL     1       9.383  10.912  18.676  0.00  0.00    +0.000 A 
ATOM     20  C   UNL     1       8.517  11.655  17.852  0.00  0.00    +0.000 A 
ATOM     21  C   UNL     1       8.782  12.998  17.559  0.00  0.00    +0.000 A 
ATOM     22  C   UNL     1       9.921  13.598  18.070  0.00  0.00    +0.000 A 
ATOM     23  F   UNL     1      10.170  14.888  17.811  0.00  0.00    +0.000 F 
ATOM     24  C   UNL     1      10.806  12.861  18.841  0.00  0.00    +0.000 A 
ATOM     25  F   UNL     1      11.947  13.430  19.250  0.00  0.00    +0.000 F 
ATOM     26  C   UNL     1      10.532  11.538  19.181  0.00  0.00    +0.000 A 
ENDBRANCH  18  19
ENDBRANCH   3  18
TORSDOF 6
ENDMDL
MODEL 5
REMARK VINA RESULT:      -8.3      4.602      5.802
REMARK  Name = 
REMARK  6 active torsions:
REMARK  status: ('A' for Active; 'I' for Inactive)
REMARK    1  A    between atoms: C_2  and  C_3
REMARK    2  A    between atoms: C_3  and  C_4
REMARK    3  A    between atoms: C_4  and  C_5
REMARK    4  A    between atoms: C_8  and  C_9
REMARK    5  A    between atoms: N_16  and  C_17
REMARK    6  A    between atoms: C_17  and  C_18
REMARK                            x       y       z     vdW  Elec       q    Type
REMARK                         _______ _______ _______ _____ _____    ______ ____
ROOT
ATOM      1  O   UNL     1       5.198   6.965  15.409  0.00  0.00    +0.000 OA
ATOM      2  C   UNL     1       5.436   6.964  16.614  0.00  0.00    +0.000 C 
ATOM      3  N   UNL     1       4.468   6.986  17.590  0.00  0.00    +0.000 N 
ATOM      4  H   UNL     1       4.731   7.051  18.552  0.00  0.00    +0.000 HD
ENDROOT
BRANCH   2   5
ATOM      5  C   UNL     1       6.855   6.930  17.153  0.00  0.00    +0.000 C 
BRANCH   5   6
ATOM      6  C   UNL     1       7.314   5.493  17.387  0.00  0.00    +0.000 C 
BRANCH   6   7
ATOM      7  C   UNL     1       6.281   4.699  18.090  0.00  0.00    +0.000 A 
ATOM      8  N   UNL     1       6.086   4.543  19.381  0.00  0.00    +0.000 NA
ATOM      9  N   UNL     1       5.012   3.689  19.506  0.00  0.00    +0.000 NA
ATOM     10  C   UNL     1       4.625   3.384  18.284  0.00  0.00    +0.000 A 
ATOM     11  O   UNL     1       5.393   3.992  17.325  0.00  0.00    +0.000 OA
BRANCH  10  12
ATOM     12  C   UNL     1       3.519   2.491  17.813  0.00  0.00    +0.000 C 
ATOM     13  C   UNL     1       2.958   1.632  18.943  0.00  0.00    +0.000 C 
ATOM     14  C   UNL     1       2.136   2.416  19.968  0.00  0.00    +0.000 C 
ATOM     15  C   UNL     1       1.032   3.227  19.303  0.00  0.00    +0.000 C 
ATOM     16  C   UNL     1       1.545   4.074  18.142  0.00  0.00    +0.000 C 
ATOM     17  C   UNL     1       2.380   3.267  17.148  0.00  0.00    +0.000 C 
ENDBRANCH  10  12
ENDBRANCH   6   7
ENDBRANCH   5   6
ENDBRANCH   2   5
BRANCH   3  18
ATOM     18  C   UNL     1       3.052   7.049  17.275  0.00  0.00    +0.000 C 
BRANCH  18  19
ATOM     19  C   UNL     1       2.299   7.824  18.325  0.00  0.00    +0.000 A 
ATOM     20  C   UNL     1       2.225   7.364  19.654  0.00  0.00    +0.000 A 
ATOM     21  C   UNL     1       1.561   8.110  20.635  0.00  0.00    +0.000 A 
ATOM     22  C   UNL     1       0.952   9.306  20.290  0.00  0.00    +0.000 A 
ATOM     23  F   UNL     1       0.333  10.034  21.229  0.00  0.00    +0.000 F 
ATOM     24  C   UNL     1       0.976   9.742  18.976  0.00  0.00    +0.000 A 
ATOM     25  F   UNL     1       0.305  10.852  18.643  0.00  0.00    +0.000 F 
ATOM     26  C   UNL     1       1.674   9.036  17.998  0.00  0.00    +0.000 A 
ENDBRANCH  18  19
ENDBRANCH   3  18
TORSDOF 6
ENDMDL
MODEL 6
REMARK VINA RESULT:      -8.1      6.298      8.380
REMARK  Name = 
REMARK  6 active torsions:
REMARK  status: ('A' for Active; 'I' for Inactive)
REMARK    1  A    between atoms: C_2  and  C_3
REMARK    2  A    between atoms: C_3  and  C_4
REMARK    3  A    between atoms: C_4  and  C_5
REMARK    4  A    between atoms: C_8  and  C_9
REMARK    5  A    between atoms: N_16  and  C_17
REMARK    6  A    between atoms: C_17  and  C_18
REMARK                            x       y       z     vdW  Elec       q    Type
REMARK                         _______ _______ _______ _____ _____    ______ ____
ROOT
ATOM      1  O   UNL     1       2.255   9.856  17.370  0.00  0.00    +0.000 OA
ATOM      2  C   UNL     1       1.748   9.171  18.253  0.00  0.00    +0.000 C 
ATOM      3  N   UNL     1       0.724   9.597  19.067  0.00  0.00    +0.000 N 
ATOM      4  H   UNL     1       0.401   9.012  19.810  0.00  0.00    +0.000 HD
ENDROOT
BRANCH   2   5
ATOM      5  C   UNL     1       2.209   7.752  18.535  0.00  0.00    +0.000 C 
BRANCH   5   6
ATOM      6  C   UNL     1       3.474   7.424  17.746  0.00  0.00    +0.000 C 
BRANCH   6   7
ATOM      7  C   UNL     1       3.626   5.965  17.544  0.00  0.00    +0.000 A 
ATOM      8  N   UNL     1       4.541   5.308  16.866  0.00  0.00    +0.000 NA
ATOM      9  N   UNL     1       4.215   3.974  16.973  0.00  0.00    +0.000 NA
ATOM     10  C   UNL     1       3.124   3.907  17.710  0.00  0.00    +0.000 A 
ATOM     11  O   UNL     1       2.688   5.143  18.110  0.00  0.00    +0.000 OA
BRANCH  10  12
ATOM     12  C   UNL     1       2.319   2.721  18.143  0.00  0.00    +0.000 C 
ATOM     13  C   UNL     1       3.042   1.897  19.204  0.00  0.00    +0.000 C 
ATOM     14  C   UNL     1       3.116   2.576  20.574  0.00  0.00    +0.000 C 
ATOM     15  C   UNL     1       1.740   3.007  21.063  0.00  0.00    +0.000 C 
ATOM     16  C   UNL     1       0.967   3.804  20.017  0.00  0.00    +0.000 C 
ATOM     17  C   UNL     1       0.931   3.110  18.656  0.00  0.00    +0.000 C 
ENDBRANCH  10  12
ENDBRANCH   6   7
ENDBRANCH   5   6
ENDBRANCH   2   5
BRANCH   3  18
ATOM     18  C   UNL     1       0.165  10.933  18.972  0.00  0.00    +0.000 C 
BRANCH  18  19
ATOM     19  C   UNL     1      -1.241  10.894  18.431  0.00  0.00    +0.000 A 
ATOM     20  C   UNL     1      -2.269  11.651  19.024  0.00  0.00    +0.000 A 
ATOM     21  C   UNL     1      -3.563  11.644  18.491  0.00  0.00    +0.000 A 
ATOM     22  C   UNL     1      -3.841  10.866  17.379  0.00  0.00    +0.000 A 
ATOM     23  F   UNL     1      -5.073  10.871  16.851  0.00  0.00    +0.000 F 
ATOM     24  C   UNL     1      -2.849  10.078  16.819  0.00  0.00    +0.000 A 
ATOM     25  F   UNL     1      -3.157   9.263  15.802  0.00  0.00    +0.000 F 
ATOM     26  C   UNL     1      -1.544  10.111  17.308  0.00  0.00    +0.000 A 
ENDBRANCH  18  19
ENDBRANCH   3  18
TORSDOF 6
ENDMDL
MODEL 7
REMARK VINA RESULT:      -8.0      5.289      6.192
REMARK  Name = 
REMARK  6 active torsions:
REMARK  status: ('A' for Active; 'I' for Inactive)
REMARK    1  A    between atoms: C_2  and  C_3
REMARK    2  A    between atoms: C_3  and  C_4
REMARK    3  A    between atoms: C_4  and  C_5
REMARK    4  A    between atoms: C_8  and  C_9
REMARK    5  A    between atoms: N_16  and  C_17
REMARK    6  A    between atoms: C_17  and  C_18
REMARK                            x       y       z     vdW  Elec       q    Type
REMARK                         _______ _______ _______ _____ _____    ______ ____
ROOT
ATOM      1  O   UNL     1       5.632   7.381  17.779  0.00  0.00    +0.000 OA
ATOM      2  C   UNL     1       4.808   6.638  17.251  0.00  0.00    +0.000 C 
ATOM      3  N   UNL     1       3.612   6.280  17.829  0.00  0.00    +0.000 N 
ATOM      4  H   UNL     1       3.016   5.620  17.373  0.00  0.00    +0.000 HD
ENDROOT
BRANCH   2   5
ATOM      5  C   UNL     1       5.032   6.035  15.876  0.00  0.00    +0.000 C 
BRANCH   5   6
ATOM      6  C   UNL     1       5.439   4.567  15.985  0.00  0.00    +0.000 C 
BRANCH   6   7
ATOM      7  C   UNL     1       5.217   4.042  17.351  0.00  0.00    +0.000 A 
ATOM      8  N   UNL     1       5.993   4.119  18.410  0.00  0.00    +0.000 NA
ATOM      9  N   UNL     1       5.335   3.449  19.418  0.00  0.00    +0.000 NA
ATOM     10  C   UNL     1       4.202   3.010  18.906  0.00  0.00    +0.000 A 
ATOM     11  O   UNL     1       4.059   3.350  17.586  0.00  0.00    +0.000 OA
BRANCH  10  12
ATOM     12  C   UNL     1       3.101   2.213  19.533  0.00  0.00    +0.000 C 
ATOM     13  C   UNL     1       2.850   2.626  20.981  0.00  0.00    +0.000 C 
ATOM     14  C   UNL     1       2.189   3.998  21.128  0.00  0.00    +0.000 C 
ATOM     15  C   UNL     1       0.912   4.098  20.305  0.00  0.00    +0.000 C 
ATOM     16  C   UNL     1       1.110   3.659  18.858  0.00  0.00    +0.000 C 
ATOM     17  C   UNL     1       1.793   2.296  18.744  0.00  0.00    +0.000 C 
ENDBRANCH  10  12
ENDBRANCH   6   7
ENDBRANCH   5   6
ENDBRANCH   2   5
BRANCH   3  18
ATOM     18  C   UNL     1       3.227   6.731  19.154  0.00  0.00    +0.000 C 
BRANCH  18  19
ATOM     19  C   UNL     1       2.246   7.872  19.072  0.00  0.00    +0.000 A 
ATOM     20  C   UNL     1       1.967   8.503  17.845  0.00  0.00    +0.000 A 
ATOM     21  C   UNL     1       1.023   9.534  17.767  0.00  0.00    +0.000 A 
ATOM     22  C   UNL     1       0.370   9.952  18.915  0.00  0.00    +0.000 A 
ATOM     23  F   UNL     1      -0.550  10.923  18.843  0.00  0.00    +0.000 F 
ATOM     24  C   UNL     1       0.674   9.372  20.135  0.00  0.00    +0.000 A 
ATOM     25  F   UNL     1       0.100   9.849  21.248  0.00  0.00    +0.000 F 
ATOM     26  C   UNL     1       1.575   8.312  20.222  0.00  0.00    +0.000 A 
ENDBRANCH  18  19
ENDBRANCH   3  18
TORSDOF 6
ENDMDL
MODEL 8
REMARK VINA RESULT:      -8.0      1.430      1.852
REMARK  Name = 
REMARK  6 active torsions:
REMARK  status: ('A' for Active; 'I' for Inactive)
REMARK    1  A    between atoms: C_2  and  C_3
REMARK    2  A    between atoms: C_3  and  C_4
REMARK    3  A    between atoms: C_4  and  C_5
REMARK    4  A    between atoms: C_8  and  C_9
REMARK    5  A    between atoms: N_16  and  C_17
REMARK    6  A    between atoms: C_17  and  C_18
REMARK                            x       y       z     vdW  Elec       q    Type
REMARK                         _______ _______ _______ _____ _____    ______ ____
ROOT
ATOM      1  O   UNL     1       7.864   6.381  18.819  0.00  0.00    +0.000 OA
ATOM      2  C   UNL     1       7.619   7.076  17.836  0.00  0.00    +0.000 C 
ATOM      3  N   UNL     1       8.027   8.381  17.693  0.00  0.00    +0.000 N 
ATOM      4  H   UNL     1       7.738   8.911  16.897  0.00  0.00    +0.000 HD
ENDROOT
BRANCH   2   5
ATOM      5  C   UNL     1       6.828   6.546  16.653  0.00  0.00    +0.000 C 
BRANCH   5   6
ATOM      6  C   UNL     1       5.339   6.843  16.817  0.00  0.00    +0.000 C 
BRANCH   6   7
ATOM      7  C   UNL     1       4.602   5.663  17.325  0.00  0.00    +0.000 A 
ATOM      8  N   UNL     1       5.000   4.414  17.432  0.00  0.00    +0.000 NA
ATOM      9  N   UNL     1       3.928   3.712  17.937  0.00  0.00    +0.000 NA
ATOM     10  C   UNL     1       2.950   4.580  18.105  0.00  0.00    +0.000 A 
ATOM     11  O   UNL     1       3.308   5.849  17.732  0.00  0.00    +0.000 OA
BRANCH  10  12
ATOM     12  C   UNL     1       1.555   4.381  18.612  0.00  0.00    +0.000 C 
ATOM     13  C   UNL     1       1.132   2.915  18.559  0.00  0.00    +0.000 C 
ATOM     14  C   UNL     1       1.830   2.031  19.595  0.00  0.00    +0.000 C 
ATOM     15  C   UNL     1       1.682   2.590  21.004  0.00  0.00    +0.000 C 
ATOM     16  C   UNL     1       2.060   4.065  21.093  0.00  0.00    +0.000 C 
ATOM     17  C   UNL     1       1.364   4.917  20.032  0.00  0.00    +0.000 C 
ENDBRANCH  10  12
ENDBRANCH   6   7
ENDBRANCH   5   6
ENDBRANCH   2   5
BRANCH   3  18
ATOM     18  C   UNL     1       8.771   9.077  18.728  0.00  0.00    +0.000 C 
BRANCH  18  19
ATOM     19  C   UNL     1       9.093  10.488  18.306  0.00  0.00    +0.000 A 
ATOM     20  C   UNL     1       8.082  11.359  17.854  0.00  0.00    +0.000 A 
ATOM     21  C   UNL     1       8.380  12.681  17.504  0.00  0.00    +0.000 A 
ATOM     22  C   UNL     1       9.687  13.132  17.584  0.00  0.00    +0.000 A 
ATOM     23  F   UNL     1       9.975  14.403  17.271  0.00  0.00    +0.000 F 
ATOM     24  C   UNL     1      10.696  12.269  17.978  0.00  0.00    +0.000 A 
ATOM     25  F   UNL     1      11.965  12.695  17.962  0.00  0.00    +0.000 F 
ATOM     26  C   UNL     1      10.409  10.965  18.377  0.00  0.00    +0.000 A 
ENDBRANCH  18  19
ENDBRANCH   3  18
TORSDOF 6
ENDMDL
MODEL 9
REMARK VINA RESULT:      -8.0      6.175      8.283
REMARK  Name = 
REMARK  6 active torsions:
REMARK  status: ('A' for Active; 'I' for Inactive)
REMARK    1  A    between atoms: C_2  and  C_3
REMARK    2  A    between atoms: C_3  and  C_4
REMARK    3  A    between atoms: C_4  and  C_5
REMARK    4  A    between atoms: C_8  and  C_9
REMARK    5  A    between atoms: N_16  and  C_17
REMARK    6  A    between atoms: C_17  and  C_18
REMARK                            x       y       z     vdW  Elec       q    Type
REMARK                         _______ _______ _______ _____ _____    ______ ____
ROOT
ATOM      1  O   UNL     1       2.344   9.683  17.318  0.00  0.00    +0.000 OA
ATOM      2  C   UNL     1       1.841   8.954  18.169  0.00  0.00    +0.000 C 
ATOM      3  N   UNL     1       0.866   9.357  19.050  0.00  0.00    +0.000 N 
ATOM      4  H   UNL     1       0.546   8.732  19.761  0.00  0.00    +0.000 HD
ENDROOT
BRANCH   2   5
ATOM      5  C   UNL     1       2.253   7.501  18.329  0.00  0.00    +0.000 C 
BRANCH   5   6
ATOM      6  C   UNL     1       3.647   7.264  17.753  0.00  0.00    +0.000 C 
BRANCH   6   7
ATOM      7  C   UNL     1       4.262   6.036  18.306  0.00  0.00    +0.000 A 
ATOM      8  N   UNL     1       5.529   5.687  18.354  0.00  0.00    +0.000 NA
ATOM      9  N   UNL     1       5.563   4.444  18.945  0.00  0.00    +0.000 NA
ATOM     10  C   UNL     1       4.316   4.119  19.220  0.00  0.00    +0.000 A 
ATOM     11  O   UNL     1       3.427   5.090  18.838  0.00  0.00    +0.000 OA
BRANCH  10  12
ATOM     12  C   UNL     1       3.753   2.884  19.853  0.00  0.00    +0.000 C 
ATOM     13  C   UNL     1       2.546   3.193  20.734  0.00  0.00    +0.000 C 
ATOM     14  C   UNL     1       1.291   3.584  19.950  0.00  0.00    +0.000 C 
ATOM     15  C   UNL     1       0.941   2.546  18.892  0.00  0.00    +0.000 C 
ATOM     16  C   UNL     1       2.132   2.181  18.012  0.00  0.00    +0.000 C 
ATOM     17  C   UNL     1       3.375   1.817  18.823  0.00  0.00    +0.000 C 
ENDBRANCH  10  12
ENDBRANCH   6   7
ENDBRANCH   5   6
ENDBRANCH   2   5
BRANCH   3  18
ATOM     18  C   UNL     1       0.359  10.718  19.074  0.00  0.00    +0.000 C 
BRANCH  18  19
ATOM     19  C   UNL     1      -1.049  10.779  18.542  0.00  0.00    +0.000 A 
ATOM     20  C   UNL     1      -2.016  11.611  19.139  0.00  0.00    +0.000 A 
ATOM     21  C   UNL     1      -3.311  11.696  18.614  0.00  0.00    +0.000 A 
ATOM     22  C   UNL     1      -3.651  10.938  17.505  0.00  0.00    +0.000 A 
ATOM     23  F   UNL     1      -4.882  11.032  16.985  0.00  0.00    +0.000 F 
ATOM     24  C   UNL     1      -2.723  10.079  16.941  0.00  0.00    +0.000 A 
ATOM     25  F   UNL     1      -3.095   9.287  15.928  0.00  0.00    +0.000 F 
ATOM     26  C   UNL     1      -1.416  10.019  17.422  0.00  0.00    +0.000 A 
ENDBRANCH  18  19
ENDBRANCH   3  18
TORSDOF 6
ENDMDL
