MODEL 1
REMARK VINA RESULT:      -6.7      0.000      0.000
REMARK  Name = 
REMARK  2 active torsions:
REMARK  status: ('A' for Active; 'I' for Inactive)
REMARK    1  A    between atoms: C_1  and  N_2
REMARK    2  A    between atoms: N_5  and  C_6
REMARK                            x       y       z     vdW  Elec       q    Type
REMARK                         _______ _______ _______ _____ _____    ______ ____
ROOT
ATOM      1  C   UNL     1       5.410   4.791  18.438  0.00  0.00    +0.000 A 
ATOM      2  C   UNL     1       6.235   5.520  19.319  0.00  0.00    +0.000 A 
ATOM      3  C   UNL     1       7.417   6.142  18.907  0.00  0.00    +0.000 A 
ATOM      4  C   UNL     1       7.818   6.054  17.582  0.00  0.00    +0.000 A 
ATOM      5  C   UNL     1       7.021   5.370  16.670  0.00  0.00    +0.000 A 
ATOM      6  C   UNL     1       5.831   4.737  17.085  0.00  0.00    +0.000 A 
ATOM      7  O   UNL     1       5.027   4.091  16.168  0.00  0.00    +0.000 OA
ATOM      8  C   UNL     1       5.743   3.727  14.988  0.00  0.00    +0.000 C 
ATOM      9  C   UNL     1       6.498   4.925  14.450  0.00  0.00    +0.000 C 
ATOM     10  O   UNL     1       7.496   5.348  15.381  0.00  0.00    +0.000 OA
ENDROOT
BRANCH   1  15
ATOM     11  C   UNL     1       1.316   2.667  21.607  0.00  0.00    +0.000 C 
ATOM     12  N   UNL     1       2.088   2.877  20.385  0.00  0.00    +0.000 NA
ATOM     13  C   UNL     1       3.487   2.430  20.579  0.00  0.00    +0.000 C 
ATOM     14  C   UNL     1       4.395   2.687  19.350  0.00  0.00    +0.000 C 
ATOM     15  N   UNL     1       4.320   4.105  18.963  0.00  0.00    +0.000 N 
ATOM     16  C   UNL     1       2.942   4.574  18.735  0.00  0.00    +0.000 C 
ATOM     17  C   UNL     1       2.094   4.308  20.003  0.00  0.00    +0.000 C 
ENDBRANCH   1  15
TORSDOF 1
ENDMDL
MODEL 2
REMARK VINA RESULT:      -6.7      0.924      1.483
REMARK  Name = 
REMARK  2 active torsions:
REMARK  status: ('A' for Active; 'I' for Inactive)
REMARK    1  A    between atoms: C_1  and  N_2
REMARK    2  A    between atoms: N_5  and  C_6
REMARK                            x       y       z     vdW  Elec       q    Type
REMARK                         _______ _______ _______ _____ _____    ______ ____
ROOT
ATOM      1  C   UNL     1       5.342   4.759  18.419  0.00  0.00    +0.000 A 
ATOM      2  C   UNL     1       6.155   5.401  19.377  0.00  0.00    +0.000 A 
ATOM      3  C   UNL     1       7.388   5.976  19.058  0.00  0.00    +0.000 A 
ATOM      4  C   UNL     1       7.856   5.929  17.754  0.00  0.00    +0.000 A 
ATOM      5  C   UNL     1       7.075   5.333  16.768  0.00  0.00    +0.000 A 
ATOM      6  C   UNL     1       5.833   4.747  17.089  0.00  0.00    +0.000 A 
ATOM      7  O   UNL     1       5.048   4.189  16.100  0.00  0.00    +0.000 OA
ATOM      8  C   UNL     1       5.808   3.843  14.943  0.00  0.00    +0.000 C 
ATOM      9  C   UNL     1       6.652   5.022  14.505  0.00  0.00    +0.000 C 
ATOM     10  O   UNL     1       7.618   5.346  15.506  0.00  0.00    +0.000 OA
ENDROOT
BRANCH   1  15
ATOM     11  C   UNL     1       0.466   2.060  18.922  0.00  0.00    +0.000 C 
ATOM     12  N   UNL     1       1.704   2.682  19.385  0.00  0.00    +0.000 NA
ATOM     13  C   UNL     1       1.726   4.117  19.020  0.00  0.00    +0.000 C 
ATOM     14  C   UNL     1       3.041   4.837  19.411  0.00  0.00    +0.000 C 
ATOM     15  N   UNL     1       4.192   4.110  18.852  0.00  0.00    +0.000 N 
ATOM     16  C   UNL     1       4.214   2.683  19.222  0.00  0.00    +0.000 C 
ATOM     17  C   UNL     1       2.885   2.019  18.786  0.00  0.00    +0.000 C 
ENDBRANCH   1  15
TORSDOF 1
ENDMDL
MODEL 3
REMARK VINA RESULT:      -6.4      2.399      5.588
REMARK  Name = 
REMARK  2 active torsions:
REMARK  status: ('A' for Active; 'I' for Inactive)
REMARK    1  A    between atoms: C_1  and  N_2
REMARK    2  A    between atoms: N_5  and  C_6
REMARK                            x       y       z     vdW  Elec       q    Type
REMARK                         _______ _______ _______ _____ _____    ______ ____
ROOT
ATOM      1  C   UNL     1       3.763   5.335  18.530  0.00  0.00    +0.000 A 
ATOM      2  C   UNL     1       3.399   6.463  19.295  0.00  0.00    +0.000 A 
ATOM      3  C   UNL     1       2.303   6.468  20.161  0.00  0.00    +0.000 A 
ATOM      4  C   UNL     1       1.522   5.329  20.292  0.00  0.00    +0.000 A 
ATOM      5  C   UNL     1       1.859   4.182  19.580  0.00  0.00    +0.000 A 
ATOM      6  C   UNL     1       2.962   4.177  18.702  0.00  0.00    +0.000 A 
ATOM      7  O   UNL     1       3.312   3.025  18.027  0.00  0.00    +0.000 OA
ATOM      8  C   UNL     1       2.223   2.108  17.929  0.00  0.00    +0.000 C 
ATOM      9  C   UNL     1       1.605   1.890  19.295  0.00  0.00    +0.000 C 
ATOM     10  O   UNL     1       1.033   3.104  19.786  0.00  0.00    +0.000 OA
ENDROOT
BRANCH   1  15
ATOM     11  C   UNL     1       7.283   4.937  14.198  0.00  0.00    +0.000 C 
ATOM     12  N   UNL     1       6.759   5.477  15.450  0.00  0.00    +0.000 NA
ATOM     13  C   UNL     1       6.745   4.429  16.496  0.00  0.00    +0.000 C 
ATOM     14  C   UNL     1       6.134   4.901  17.839  0.00  0.00    +0.000 C 
ATOM     15  N   UNL     1       4.793   5.463  17.606  0.00  0.00    +0.000 N 
ATOM     16  C   UNL     1       4.779   6.530  16.589  0.00  0.00    +0.000 C 
ATOM     17  C   UNL     1       5.382   5.989  15.269  0.00  0.00    +0.000 C 
ENDBRANCH   1  15
TORSDOF 1
ENDMDL
MODEL 4
REMARK VINA RESULT:      -6.4      2.505      5.724
REMARK  Name = 
REMARK  2 active torsions:
REMARK  status: ('A' for Active; 'I' for Inactive)
REMARK    1  A    between atoms: C_1  and  N_2
REMARK    2  A    between atoms: N_5  and  C_6
REMARK                            x       y       z     vdW  Elec       q    Type
REMARK                         _______ _______ _______ _____ _____    ______ ____
ROOT
ATOM      1  C   UNL     1       3.781   5.857  18.966  0.00  0.00    +0.000 A 
ATOM      2  C   UNL     1       3.047   7.043  19.178  0.00  0.00    +0.000 A 
ATOM      3  C   UNL     1       1.954   7.110  20.047  0.00  0.00    +0.000 A 
ATOM      4  C   UNL     1       1.554   5.978  20.741  0.00  0.00    +0.000 A 
ATOM      5  C   UNL     1       2.266   4.793  20.586  0.00  0.00    +0.000 A 
ATOM      6  C   UNL     1       3.366   4.722  19.707  0.00  0.00    +0.000 A 
ATOM      7  O   UNL     1       4.089   3.553  19.586  0.00  0.00    +0.000 OA
ATOM      8  C   UNL     1       3.342   2.413  20.005  0.00  0.00    +0.000 C 
ATOM      9  C   UNL     1       2.744   2.660  21.375  0.00  0.00    +0.000 C 
ATOM     10  O   UNL     1       1.800   3.732  21.324  0.00  0.00    +0.000 OA
ENDROOT
BRANCH   1  15
ATOM     11  C   UNL     1       7.186   4.806  14.650  0.00  0.00    +0.000 C 
ATOM     12  N   UNL     1       6.669   5.552  15.795  0.00  0.00    +0.000 NA
ATOM     13  C   UNL     1       6.750   4.730  17.024  0.00  0.00    +0.000 C 
ATOM     14  C   UNL     1       6.152   5.423  18.274  0.00  0.00    +0.000 C 
ATOM     15  N   UNL     1       4.774   5.856  17.992  0.00  0.00    +0.000 N 
ATOM     16  C   UNL     1       4.665   6.702  16.790  0.00  0.00    +0.000 C 
ATOM     17  C   UNL     1       5.259   5.946  15.576  0.00  0.00    +0.000 C 
ENDBRANCH   1  15
TORSDOF 1
ENDMDL
MODEL 5
REMARK VINA RESULT:      -6.4      2.624      5.930
REMARK  Name = 
REMARK  2 active torsions:
REMARK  status: ('A' for Active; 'I' for Inactive)
REMARK    1  A    between atoms: C_1  and  N_2
REMARK    2  A    between atoms: N_5  and  C_6
REMARK                            x       y       z     vdW  Elec       q    Type
REMARK                         _______ _______ _______ _____ _____    ______ ____
ROOT
ATOM      1  C   UNL     1       4.184   3.987  18.055  0.00  0.00    +0.000 A 
ATOM      2  C   UNL     1       4.261   2.664  17.569  0.00  0.00    +0.000 A 
ATOM      3  C   UNL     1       3.387   1.655  17.982  0.00  0.00    +0.000 A 
ATOM      4  C   UNL     1       2.394   1.938  18.907  0.00  0.00    +0.000 A 
ATOM      5  C   UNL     1       2.260   3.235  19.393  0.00  0.00    +0.000 A 
ATOM      6  C   UNL     1       3.144   4.253  18.982  0.00  0.00    +0.000 A 
ATOM      7  O   UNL     1       2.983   5.545  19.440  0.00  0.00    +0.000 OA
ATOM      8  C   UNL     1       2.233   5.595  20.653  0.00  0.00    +0.000 C 
ATOM      9  C   UNL     1       0.952   4.801  20.504  0.00  0.00    +0.000 C 
ATOM     10  O   UNL     1       1.240   3.418  20.296  0.00  0.00    +0.000 OA
ENDROOT
BRANCH   1  15
ATOM     11  C   UNL     1       7.817   8.220  17.612  0.00  0.00    +0.000 C 
ATOM     12  N   UNL     1       7.175   6.964  17.233  0.00  0.00    +0.000 NA
ATOM     13  C   UNL     1       5.737   7.185  16.956  0.00  0.00    +0.000 C 
ATOM     14  C   UNL     1       4.964   5.886  16.617  0.00  0.00    +0.000 C 
ATOM     15  N   UNL     1       5.171   4.891  17.681  0.00  0.00    +0.000 N 
ATOM     16  C   UNL     1       6.594   4.627  17.960  0.00  0.00    +0.000 C 
ATOM     17  C   UNL     1       7.303   5.958  18.312  0.00  0.00    +0.000 C 
ENDBRANCH   1  15
TORSDOF 1
ENDMDL
MODEL 6
REMARK VINA RESULT:      -6.3      2.395      5.783
REMARK  Name = 
REMARK  2 active torsions:
REMARK  status: ('A' for Active; 'I' for Inactive)
REMARK    1  A    between atoms: C_1  and  N_2
REMARK    2  A    between atoms: N_5  and  C_6
REMARK                            x       y       z     vdW  Elec       q    Type
REMARK                         _______ _______ _______ _____ _____    ______ ____
ROOT
ATOM      1  C   UNL     1       3.894   5.236  18.589  0.00  0.00    +0.000 A 
ATOM      2  C   UNL     1       3.403   6.558  18.587  0.00  0.00    +0.000 A 
ATOM      3  C   UNL     1       2.400   6.992  19.458  0.00  0.00    +0.000 A 
ATOM      4  C   UNL     1       1.847   6.107  20.371  0.00  0.00    +0.000 A 
ATOM      5  C   UNL     1       2.320   4.800  20.429  0.00  0.00    +0.000 A 
ATOM      6  C   UNL     1       3.329   4.358  19.549  0.00  0.00    +0.000 A 
ATOM      7  O   UNL     1       3.819   3.071  19.636  0.00  0.00    +0.000 OA
ATOM      8  C   UNL     1       2.905   2.192  20.292  0.00  0.00    +0.000 C 
ATOM      9  C   UNL     1       2.453   2.799  21.604  0.00  0.00    +0.000 C 
ATOM     10  O   UNL     1       1.719   4.003  21.374  0.00  0.00    +0.000 OA
ENDROOT
BRANCH   1  15
ATOM     11  C   UNL     1       7.345   4.912  14.195  0.00  0.00    +0.000 C 
ATOM     12  N   UNL     1       6.687   4.451  15.415  0.00  0.00    +0.000 NA
ATOM     13  C   UNL     1       5.220   4.389  15.215  0.00  0.00    +0.000 C 
ATOM     14  C   UNL     1       4.438   3.979  16.489  0.00  0.00    +0.000 C 
ATOM     15  N   UNL     1       4.804   4.864  17.605  0.00  0.00    +0.000 N 
ATOM     16  C   UNL     1       6.257   4.925  17.848  0.00  0.00    +0.000 C 
ATOM     17  C   UNL     1       6.976   5.359  16.547  0.00  0.00    +0.000 C 
ENDBRANCH   1  15
TORSDOF 1
ENDMDL
MODEL 7
REMARK VINA RESULT:      -6.3      1.093      1.096
REMARK  Name = 
REMARK  2 active torsions:
REMARK  status: ('A' for Active; 'I' for Inactive)
REMARK    1  A    between atoms: C_1  and  N_2
REMARK    2  A    between atoms: N_5  and  C_6
REMARK                            x       y       z     vdW  Elec       q    Type
REMARK                         _______ _______ _______ _____ _____    ______ ____
ROOT
ATOM      1  C   UNL     1       5.040   4.820  17.639  0.00  0.00    +0.000 A 
ATOM      2  C   UNL     1       5.674   5.523  18.685  0.00  0.00    +0.000 A 
ATOM      3  C   UNL     1       6.924   6.130  18.539  0.00  0.00    +0.000 A 
ATOM      4  C   UNL     1       7.591   6.053  17.325  0.00  0.00    +0.000 A 
ATOM      5  C   UNL     1       6.992   5.397  16.255  0.00  0.00    +0.000 A 
ATOM      6  C   UNL     1       5.733   4.779  16.402  0.00  0.00    +0.000 A 
ATOM      7  O   UNL     1       5.128   4.161  15.327  0.00  0.00    +0.000 OA
ATOM      8  C   UNL     1       6.068   3.801  14.316  0.00  0.00    +0.000 C 
ATOM      9  C   UNL     1       6.937   4.993  13.967  0.00  0.00    +0.000 C 
ATOM     10  O   UNL     1       7.724   5.385  15.093  0.00  0.00    +0.000 OA
ENDROOT
BRANCH   1  15
ATOM     11  C   UNL     1       0.591   2.333  19.950  0.00  0.00    +0.000 C 
ATOM     12  N   UNL     1       1.435   2.822  18.862  0.00  0.00    +0.000 NA
ATOM     13  C   UNL     1       2.761   2.164  18.904  0.00  0.00    +0.000 C 
ATOM     14  C   UNL     1       3.744   2.682  17.825  0.00  0.00    +0.000 C 
ATOM     15  N   UNL     1       3.855   4.147  17.914  0.00  0.00    +0.000 N 
ATOM     16  C   UNL     1       2.553   4.833  17.846  0.00  0.00    +0.000 C 
ATOM     17  C   UNL     1       1.626   4.287  18.960  0.00  0.00    +0.000 C 
ENDBRANCH   1  15
TORSDOF 1
ENDMDL
MODEL 8
REMARK VINA RESULT:      -6.2      1.354      2.646
REMARK  Name = 
REMARK  2 active torsions:
REMARK  status: ('A' for Active; 'I' for Inactive)
REMARK    1  A    between atoms: C_1  and  N_2
REMARK    2  A    between atoms: N_5  and  C_6
REMARK                            x       y       z     vdW  Elec       q    Type
REMARK                         _______ _______ _______ _____ _____    ______ ____
ROOT
ATOM      1  C   UNL     1       4.920   4.051  16.716  0.00  0.00    +0.000 A 
ATOM      2  C   UNL     1       5.140   3.367  15.501  0.00  0.00    +0.000 A 
ATOM      3  C   UNL     1       6.124   3.751  14.586  0.00  0.00    +0.000 A 
ATOM      4  C   UNL     1       6.931   4.846  14.858  0.00  0.00    +0.000 A 
ATOM      5  C   UNL     1       6.770   5.533  16.057  0.00  0.00    +0.000 A 
ATOM      6  C   UNL     1       5.775   5.151  16.980  0.00  0.00    +0.000 A 
ATOM      7  O   UNL     1       5.645   5.814  18.183  0.00  0.00    +0.000 OA
ATOM      8  C   UNL     1       6.221   7.119  18.141  0.00  0.00    +0.000 C 
ATOM      9  C   UNL     1       7.632   7.046  17.596  0.00  0.00    +0.000 C 
ATOM     10  O   UNL     1       7.624   6.595  16.240  0.00  0.00    +0.000 OA
ENDROOT
BRANCH   1  15
ATOM     11  C   UNL     1       1.260   3.031  20.825  0.00  0.00    +0.000 C 
ATOM     12  N   UNL     1       1.754   3.056  19.450  0.00  0.00    +0.000 NA
ATOM     13  C   UNL     1       2.986   2.243  19.333  0.00  0.00    +0.000 C 
ATOM     14  C   UNL     1       3.619   2.277  17.918  0.00  0.00    +0.000 C 
ATOM     15  N   UNL     1       3.839   3.672  17.505  0.00  0.00    +0.000 N 
ATOM     16  C   UNL     1       2.624   4.501  17.583  0.00  0.00    +0.000 C 
ATOM     17  C   UNL     1       2.055   4.442  19.022  0.00  0.00    +0.000 C 
ENDBRANCH   1  15
TORSDOF 1
ENDMDL
MODEL 9
REMARK VINA RESULT:      -6.2      1.319      2.603
REMARK  Name = 
REMARK  2 active torsions:
REMARK  status: ('A' for Active; 'I' for Inactive)
REMARK    1  A    between atoms: C_1  and  N_2
REMARK    2  A    between atoms: N_5  and  C_6
REMARK                            x       y       z     vdW  Elec       q    Type
REMARK                         _______ _______ _______ _____ _____    ______ ____
ROOT
ATOM      1  C   UNL     1       4.715   3.907  17.545  0.00  0.00    +0.000 A 
ATOM      2  C   UNL     1       4.482   3.825  16.155  0.00  0.00    +0.000 A 
ATOM      3  C   UNL     1       5.305   4.450  15.214  0.00  0.00    +0.000 A 
ATOM      4  C   UNL     1       6.400   5.188  15.635  0.00  0.00    +0.000 A 
ATOM      5  C   UNL     1       6.686   5.273  16.994  0.00  0.00    +0.000 A 
ATOM      6  C   UNL     1       5.855   4.648  17.946  0.00  0.00    +0.000 A 
ATOM      7  O   UNL     1       6.166   4.706  19.290  0.00  0.00    +0.000 OA
ATOM      8  C   UNL     1       7.027   5.802  19.595  0.00  0.00    +0.000 C 
ATOM      9  C   UNL     1       8.219   5.801  18.659  0.00  0.00    +0.000 C 
ATOM     10  O   UNL     1       7.798   6.016  17.311  0.00  0.00    +0.000 OA
ENDROOT
BRANCH   1  15
ATOM     11  C   UNL     1       1.182   2.718  21.719  0.00  0.00    +0.000 C 
ATOM     12  N   UNL     1       1.843   2.525  20.430  0.00  0.00    +0.000 NA
ATOM     13  C   UNL     1       3.302   2.359  20.620  0.00  0.00    +0.000 C 
ATOM     14  C   UNL     1       4.089   2.222  19.292  0.00  0.00    +0.000 C 
ATOM     15  N   UNL     1       3.775   3.356  18.409  0.00  0.00    +0.000 N 
ATOM     16  C   UNL     1       2.330   3.531  18.176  0.00  0.00    +0.000 C 
ATOM     17  C   UNL     1       1.607   3.682  19.537  0.00  0.00    +0.000 C 
ENDBRANCH   1  15
TORSDOF 1
ENDMDL
