MODEL 1
REMARK VINA RESULT:      -7.7      0.000      0.000
REMARK  Name = 
REMARK  2 active torsions:
REMARK  status: ('A' for Active; 'I' for Inactive)
REMARK    1  A    between atoms: C_2  and  C_3
REMARK    2  A    between atoms: C_3  and  C_4
REMARK                            x       y       z     vdW  Elec       q    Type
REMARK                         _______ _______ _______ _____ _____    ______ ____
ROOT
ATOM      1  O   UNL     1      -0.908  11.502  23.241  0.00  0.00    +0.000 OA
ATOM      2  C   UNL     1      -0.916  11.378  22.012  0.00  0.00    +0.000 C 
ATOM      3  N   UNL     1      -0.519  10.202  21.400  0.00  0.00    +0.000 N 
ATOM      4  C   UNL     1      -0.430   9.960  19.958  0.00  0.00    +0.000 C 
ATOM      5  C   UNL     1       1.006   9.597  19.544  0.00  0.00    +0.000 C 
ATOM      6  N   UNL     1       1.491   8.465  20.343  0.00  0.00    +0.000 N 
ATOM      7  C   UNL     1       2.033   7.317  19.790  0.00  0.00    +0.000 A 
ATOM      8  C   UNL     1       2.798   7.418  18.498  0.00  0.00    +0.000 A 
ATOM      9  C   UNL     1       3.305   6.313  17.938  0.00  0.00    +0.000 A 
ATOM     10  C   UNL     1       3.098   5.082  18.578  0.00  0.00    +0.000 A 
ATOM     11  N   UNL     1       3.445   3.848  18.278  0.00  0.00    +0.000 NA
ATOM     12  N   UNL     1       2.955   3.026  19.270  0.00  0.00    +0.000 NA
ATOM     13  C   UNL     1       2.332   3.787  20.144  0.00  0.00    +0.000 A 
ATOM     14  N   UNL     1       2.400   5.097  19.765  0.00  0.00    +0.000 N 
ATOM     15  N   UNL     1       1.864   6.175  20.413  0.00  0.00    +0.000 NA
ATOM     16  C   UNL     1       1.401   8.671  21.803  0.00  0.00    +0.000 C 
ATOM     17  C   UNL     1      -0.024   9.081  22.217  0.00  0.00    +0.000 C 
ENDROOT
BRANCH   2  18
ATOM     18  C   UNL     1      -1.351  12.553  21.144  0.00  0.00    +0.000 C 
BRANCH  18  19
ATOM     19  C   UNL     1      -2.825  12.530  20.808  0.00  0.00    +0.000 A 
ATOM     20  C   UNL     1      -3.778  12.739  21.818  0.00  0.00    +0.000 A 
ATOM     21  C   UNL     1      -5.145  12.681  21.535  0.00  0.00    +0.000 A 
ATOM     22  C   UNL     1      -5.577  12.415  20.237  0.00  0.00    +0.000 A 
ATOM     23  C   UNL     1      -4.640  12.214  19.228  0.00  0.00    +0.000 A 
ATOM     24 CL   UNL     1      -5.171  11.888  17.623  0.00  0.00    +0.000 Cl
ATOM     25  C   UNL     1      -3.271  12.267  19.505  0.00  0.00    +0.000 A 
ENDBRANCH  18  19
ENDBRANCH   2  18
TORSDOF 2
ENDMDL
MODEL 2
REMARK VINA RESULT:      -7.7      1.645      1.999
REMARK  Name = 
REMARK  2 active torsions:
REMARK  status: ('A' for Active; 'I' for Inactive)
REMARK    1  A    between atoms: C_2  and  C_3
REMARK    2  A    between atoms: C_3  and  C_4
REMARK                            x       y       z     vdW  Elec       q    Type
REMARK                         _______ _______ _______ _____ _____    ______ ____
ROOT
ATOM      1  O   UNL     1      -1.009  11.429  21.381  0.00  0.00    +0.000 OA
ATOM      2  C   UNL     1      -0.805  11.149  20.195  0.00  0.00    +0.000 C 
ATOM      3  N   UNL     1      -0.273   9.927  19.821  0.00  0.00    +0.000 N 
ATOM      4  C   UNL     1       0.066   9.508  18.459  0.00  0.00    +0.000 C 
ATOM      5  C   UNL     1       1.562   9.172  18.339  0.00  0.00    +0.000 C 
ATOM      6  N   UNL     1       1.940   8.179  19.352  0.00  0.00    +0.000 N 
ATOM      7  C   UNL     1       2.604   7.000  19.055  0.00  0.00    +0.000 A 
ATOM      8  C   UNL     1       3.573   6.976  17.904  0.00  0.00    +0.000 A 
ATOM      9  C   UNL     1       4.202   5.838  17.589  0.00  0.00    +0.000 A 
ATOM     10  C   UNL     1       3.928   4.689  18.347  0.00  0.00    +0.000 A 
ATOM     11  N   UNL     1       4.359   3.447  18.277  0.00  0.00    +0.000 NA
ATOM     12  N   UNL     1       3.734   2.733  19.277  0.00  0.00    +0.000 NA
ATOM     13  C   UNL     1       2.949   3.565  19.926  0.00  0.00    +0.000 A 
ATOM     14  N   UNL     1       3.038   4.818  19.390  0.00  0.00    +0.000 N 
ATOM     15  N   UNL     1       2.367   5.940  19.790  0.00  0.00    +0.000 NA
ATOM     16  C   UNL     1       1.598   8.565  20.736  0.00  0.00    +0.000 C 
ATOM     17  C   UNL     1       0.111   8.947  20.851  0.00  0.00    +0.000 C 
ENDROOT
BRANCH   2  18
ATOM     18  C   UNL     1      -1.123  12.178  19.117  0.00  0.00    +0.000 C 
BRANCH  18  19
ATOM     19  C   UNL     1      -2.400  11.877  18.365  0.00  0.00    +0.000 A 
ATOM     20  C   UNL     1      -3.642  12.051  18.995  0.00  0.00    +0.000 A 
ATOM     21  C   UNL     1      -4.832  11.739  18.331  0.00  0.00    +0.000 A 
ATOM     22  C   UNL     1      -4.794  11.250  17.027  0.00  0.00    +0.000 A 
ATOM     23  C   UNL     1      -3.567  11.079  16.392  0.00  0.00    +0.000 A 
ATOM     24 CL   UNL     1      -3.517  10.477  14.780  0.00  0.00    +0.000 Cl
ATOM     25  C   UNL     1      -2.373  11.387  17.052  0.00  0.00    +0.000 A 
ENDBRANCH  18  19
ENDBRANCH   2  18
TORSDOF 2
ENDMDL
MODEL 3
REMARK VINA RESULT:      -7.7      3.553      8.632
REMARK  Name = 
REMARK  2 active torsions:
REMARK  status: ('A' for Active; 'I' for Inactive)
REMARK    1  A    between atoms: C_2  and  C_3
REMARK    2  A    between atoms: C_3  and  C_4
REMARK                            x       y       z     vdW  Elec       q    Type
REMARK                         _______ _______ _______ _____ _____    ______ ____
ROOT
ATOM      1  O   UNL     1       3.293   8.022  17.376  0.00  0.00    +0.000 OA
ATOM      2  C   UNL     1       2.809   7.667  18.456  0.00  0.00    +0.000 C 
ATOM      3  N   UNL     1       1.695   8.289  18.990  0.00  0.00    +0.000 N 
ATOM      4  C   UNL     1       1.072   7.995  20.283  0.00  0.00    +0.000 C 
ATOM      5  C   UNL     1       1.080   9.233  21.196  0.00  0.00    +0.000 C 
ATOM      6  N   UNL     1       0.458  10.371  20.510  0.00  0.00    +0.000 N 
ATOM      7  C   UNL     1      -0.568  11.125  21.056  0.00  0.00    +0.000 A 
ATOM      8  C   UNL     1      -0.622  11.314  22.548  0.00  0.00    +0.000 A 
ATOM      9  C   UNL     1      -1.621  12.018  23.093  0.00  0.00    +0.000 A 
ATOM     10  C   UNL     1      -2.601  12.556  22.245  0.00  0.00    +0.000 A 
ATOM     11  N   UNL     1      -3.690  13.262  22.471  0.00  0.00    +0.000 NA
ATOM     12  N   UNL     1      -4.286  13.506  21.252  0.00  0.00    +0.000 NA
ATOM     13  C   UNL     1      -3.539  12.947  20.326  0.00  0.00    +0.000 A 
ATOM     14  N   UNL     1      -2.453  12.342  20.893  0.00  0.00    +0.000 N 
ATOM     15  N   UNL     1      -1.460  11.654  20.253  0.00  0.00    +0.000 NA
ATOM     16  C   UNL     1       1.053  10.685  19.195  0.00  0.00    +0.000 C 
ATOM     17  C   UNL     1       1.091   9.438  18.293  0.00  0.00    +0.000 C 
ENDROOT
BRANCH   2  18
ATOM     18  C   UNL     1       3.465   6.531  19.232  0.00  0.00    +0.000 C 
BRANCH  18  19
ATOM     19  C   UNL     1       2.653   5.255  19.219  0.00  0.00    +0.000 A 
ATOM     20  C   UNL     1       2.107   4.784  18.014  0.00  0.00    +0.000 A 
ATOM     21  C   UNL     1       1.319   3.629  17.988  0.00  0.00    +0.000 A 
ATOM     22  C   UNL     1       1.069   2.931  19.168  0.00  0.00    +0.000 A 
ATOM     23  C   UNL     1       1.612   3.387  20.366  0.00  0.00    +0.000 A 
ATOM     24 CL   UNL     1       1.306   2.524  21.824  0.00  0.00    +0.000 Cl
ATOM     25  C   UNL     1       2.398   4.542  20.399  0.00  0.00    +0.000 A 
ENDBRANCH  18  19
ENDBRANCH   2  18
TORSDOF 2
ENDMDL
MODEL 4
REMARK VINA RESULT:      -7.7      1.170      1.516
REMARK  Name = 
REMARK  2 active torsions:
REMARK  status: ('A' for Active; 'I' for Inactive)
REMARK    1  A    between atoms: C_2  and  C_3
REMARK    2  A    between atoms: C_3  and  C_4
REMARK                            x       y       z     vdW  Elec       q    Type
REMARK                         _______ _______ _______ _____ _____    ______ ____
ROOT
ATOM      1  O   UNL     1      -0.683  11.820  23.252  0.00  0.00    +0.000 OA
ATOM      2  C   UNL     1      -0.811  11.577  22.048  0.00  0.00    +0.000 C 
ATOM      3  N   UNL     1      -0.468  10.346  21.516  0.00  0.00    +0.000 N 
ATOM      4  C   UNL     1      -0.520   9.965  20.103  0.00  0.00    +0.000 C 
ATOM      5  C   UNL     1       0.871   9.561  19.586  0.00  0.00    +0.000 C 
ATOM      6  N   UNL     1       1.441   8.511  20.438  0.00  0.00    +0.000 N 
ATOM      7  C   UNL     1       1.935   7.313  19.948  0.00  0.00    +0.000 A 
ATOM      8  C   UNL     1       2.567   7.287  18.582  0.00  0.00    +0.000 A 
ATOM      9  C   UNL     1       3.025   6.132  18.085  0.00  0.00    +0.000 A 
ATOM     10  C   UNL     1       2.892   4.970  18.859  0.00  0.00    +0.000 A 
ATOM     11  N   UNL     1       3.217   3.711  18.647  0.00  0.00    +0.000 NA
ATOM     12  N   UNL     1       2.834   2.990  19.757  0.00  0.00    +0.000 NA
ATOM     13  C   UNL     1       2.295   3.834  20.611  0.00  0.00    +0.000 A 
ATOM     14  N   UNL     1       2.314   5.101  20.102  0.00  0.00    +0.000 N 
ATOM     15  N   UNL     1       1.837   6.238  20.693  0.00  0.00    +0.000 NA
ATOM     16  C   UNL     1       1.495   8.858  21.873  0.00  0.00    +0.000 C 
ATOM     17  C   UNL     1       0.114   9.308  22.385  0.00  0.00    +0.000 C 
ENDROOT
BRANCH   2  18
ATOM     18  C   UNL     1      -1.340  12.662  21.117  0.00  0.00    +0.000 C 
BRANCH  18  19
ATOM     19  C   UNL     1      -2.837  12.599  20.918  0.00  0.00    +0.000 A 
ATOM     20  C   UNL     1      -3.365  12.370  19.638  0.00  0.00    +0.000 A 
ATOM     21  C   UNL     1      -4.747  12.349  19.427  0.00  0.00    +0.000 A 
ATOM     22  C   UNL     1      -5.618  12.555  20.494  0.00  0.00    +0.000 A 
ATOM     23  C   UNL     1      -5.103  12.776  21.769  0.00  0.00    +0.000 A 
ATOM     24 CL   UNL     1      -6.177  13.029  23.090  0.00  0.00    +0.000 Cl
ATOM     25  C   UNL     1      -3.723  12.801  21.987  0.00  0.00    +0.000 A 
ENDBRANCH  18  19
ENDBRANCH   2  18
TORSDOF 2
ENDMDL
MODEL 5
REMARK VINA RESULT:      -7.5      1.505      2.029
REMARK  Name = 
REMARK  2 active torsions:
REMARK  status: ('A' for Active; 'I' for Inactive)
REMARK    1  A    between atoms: C_2  and  C_3
REMARK    2  A    between atoms: C_3  and  C_4
REMARK                            x       y       z     vdW  Elec       q    Type
REMARK                         _______ _______ _______ _____ _____    ______ ____
ROOT
ATOM      1  O   UNL     1      -1.323  11.555  21.335  0.00  0.00    +0.000 OA
ATOM      2  C   UNL     1      -1.161  11.259  20.147  0.00  0.00    +0.000 C 
ATOM      3  N   UNL     1      -0.542  10.078  19.773  0.00  0.00    +0.000 N 
ATOM      4  C   UNL     1      -0.242   9.652  18.404  0.00  0.00    +0.000 C 
ATOM      5  C   UNL     1       1.270   9.447  18.205  0.00  0.00    +0.000 C 
ATOM      6  N   UNL     1       1.792   8.523  19.219  0.00  0.00    +0.000 N 
ATOM      7  C   UNL     1       2.542   7.399  18.913  0.00  0.00    +0.000 A 
ATOM      8  C   UNL     1       3.444   7.427  17.708  0.00  0.00    +0.000 A 
ATOM      9  C   UNL     1       4.155   6.341  17.385  0.00  0.00    +0.000 A 
ATOM     10  C   UNL     1       4.029   5.196  18.186  0.00  0.00    +0.000 A 
ATOM     11  N   UNL     1       4.567   3.995  18.121  0.00  0.00    +0.000 NA
ATOM     12  N   UNL     1       4.066   3.259  19.173  0.00  0.00    +0.000 NA
ATOM     13  C   UNL     1       3.246   4.036  19.846  0.00  0.00    +0.000 A 
ATOM     14  N   UNL     1       3.191   5.276  19.276  0.00  0.00    +0.000 N 
ATOM     15  N   UNL     1       2.445   6.344  19.686  0.00  0.00    +0.000 NA
ATOM     16  C   UNL     1       1.493   8.917  20.610  0.00  0.00    +0.000 C 
ATOM     17  C   UNL     1      -0.013   9.168  20.803  0.00  0.00    +0.000 C 
ENDROOT
BRANCH   2  18
ATOM     18  C   UNL     1      -1.630  12.223  19.064  0.00  0.00    +0.000 C 
BRANCH  18  19
ATOM     19  C   UNL     1      -3.039  11.945  18.591  0.00  0.00    +0.000 A 
ATOM     20  C   UNL     1      -3.257  11.426  17.305  0.00  0.00    +0.000 A 
ATOM     21  C   UNL     1      -4.554  11.201  16.834  0.00  0.00    +0.000 A 
ATOM     22  C   UNL     1      -5.649  11.492  17.644  0.00  0.00    +0.000 A 
ATOM     23  C   UNL     1      -5.443  12.001  18.924  0.00  0.00    +0.000 A 
ATOM     24 CL   UNL     1      -6.794  12.358  19.928  0.00  0.00    +0.000 Cl
ATOM     25  C   UNL     1      -4.149  12.230  19.400  0.00  0.00    +0.000 A 
ENDBRANCH  18  19
ENDBRANCH   2  18
TORSDOF 2
ENDMDL
MODEL 6
REMARK VINA RESULT:      -7.5      3.079      4.132
REMARK  Name = 
REMARK  2 active torsions:
REMARK  status: ('A' for Active; 'I' for Inactive)
REMARK    1  A    between atoms: C_2  and  C_3
REMARK    2  A    between atoms: C_3  and  C_4
REMARK                            x       y       z     vdW  Elec       q    Type
REMARK                         _______ _______ _______ _____ _____    ______ ____
ROOT
ATOM      1  O   UNL     1      -0.703  12.267  20.930  0.00  0.00    +0.000 OA
ATOM      2  C   UNL     1      -0.430  11.760  19.837  0.00  0.00    +0.000 C 
ATOM      3  N   UNL     1      -0.116  10.417  19.719  0.00  0.00    +0.000 N 
ATOM      4  C   UNL     1       0.281   9.722  18.492  0.00  0.00    +0.000 C 
ATOM      5  C   UNL     1       1.683   9.107  18.632  0.00  0.00    +0.000 C 
ATOM      6  N   UNL     1       1.741   8.246  19.820  0.00  0.00    +0.000 N 
ATOM      7  C   UNL     1       2.184   6.934  19.790  0.00  0.00    +0.000 A 
ATOM      8  C   UNL     1       3.249   6.543  18.801  0.00  0.00    +0.000 A 
ATOM      9  C   UNL     1       3.669   5.274  18.744  0.00  0.00    +0.000 A 
ATOM     10  C   UNL     1       3.089   4.337  19.612  0.00  0.00    +0.000 A 
ATOM     11  N   UNL     1       3.268   3.043  19.781  0.00  0.00    +0.000 NA
ATOM     12  N   UNL     1       2.407   2.631  20.775  0.00  0.00    +0.000 NA
ATOM     13  C   UNL     1       1.737   3.687  21.182  0.00  0.00    +0.000 A 
ATOM     14  N   UNL     1       2.134   4.796  20.491  0.00  0.00    +0.000 N 
ATOM     15  N   UNL     1       1.661   6.071  20.629  0.00  0.00    +0.000 NA
ATOM     16  C   UNL     1       1.333   8.912  21.072  0.00  0.00    +0.000 C 
ATOM     17  C   UNL     1      -0.051   9.570  20.923  0.00  0.00    +0.000 C 
ENDROOT
BRANCH   2  18
ATOM     18  C   UNL     1      -0.416  12.635  18.589  0.00  0.00    +0.000 C 
BRANCH  18  19
ATOM     19  C   UNL     1       0.761  13.583  18.541  0.00  0.00    +0.000 A 
ATOM     20  C   UNL     1       2.049  13.089  18.279  0.00  0.00    +0.000 A 
ATOM     21  C   UNL     1       3.156  13.943  18.272  0.00  0.00    +0.000 A 
ATOM     22  C   UNL     1       2.987  15.303  18.524  0.00  0.00    +0.000 A 
ATOM     23  C   UNL     1       1.713  15.803  18.778  0.00  0.00    +0.000 A 
ATOM     24 CL   UNL     1       1.502  17.483  19.088  0.00  0.00    +0.000 Cl
ATOM     25  C   UNL     1       0.603  14.953  18.790  0.00  0.00    +0.000 A 
ENDBRANCH  18  19
ENDBRANCH   2  18
TORSDOF 2
ENDMDL
MODEL 7
REMARK VINA RESULT:      -7.5      3.497      8.915
REMARK  Name = 
REMARK  2 active torsions:
REMARK  status: ('A' for Active; 'I' for Inactive)
REMARK    1  A    between atoms: C_2  and  C_3
REMARK    2  A    between atoms: C_3  and  C_4
REMARK                            x       y       z     vdW  Elec       q    Type
REMARK                         _______ _______ _______ _____ _____    ______ ____
ROOT
ATOM      1  O   UNL     1       2.727   8.391  17.134  0.00  0.00    +0.000 OA
ATOM      2  C   UNL     1       2.398   8.094  18.287  0.00  0.00    +0.000 C 
ATOM      3  N   UNL     1       1.320   8.699  18.911  0.00  0.00    +0.000 N 
ATOM      4  C   UNL     1       0.876   8.472  20.288  0.00  0.00    +0.000 C 
ATOM      5  C   UNL     1       0.919   9.775  21.106  0.00  0.00    +0.000 C 
ATOM      6  N   UNL     1       0.153  10.825  20.424  0.00  0.00    +0.000 N 
ATOM      7  C   UNL     1      -0.843  11.566  21.040  0.00  0.00    +0.000 A 
ATOM      8  C   UNL     1      -0.729  11.864  22.511  0.00  0.00    +0.000 A 
ATOM      9  C   UNL     1      -1.695  12.557  23.125  0.00  0.00    +0.000 A 
ATOM     10  C   UNL     1      -2.799  12.979  22.370  0.00  0.00    +0.000 A 
ATOM     11  N   UNL     1      -3.893  13.644  22.679  0.00  0.00    +0.000 NA
ATOM     12  N   UNL     1      -4.645  13.765  21.530  0.00  0.00    +0.000 NA
ATOM     13  C   UNL     1      -3.982  13.175  20.559  0.00  0.00    +0.000 A 
ATOM     14  N   UNL     1      -2.802  12.670  21.028  0.00  0.00    +0.000 N 
ATOM     15  N   UNL     1      -1.854  11.986  20.319  0.00  0.00    +0.000 NA
ATOM     16  C   UNL     1       0.567  11.068  19.028  0.00  0.00    +0.000 C 
ATOM     17  C   UNL     1       0.570   9.759  18.217  0.00  0.00    +0.000 C 
ENDROOT
BRANCH   2  18
ATOM     18  C   UNL     1       3.208   7.055  19.053  0.00  0.00    +0.000 C 
BRANCH  18  19
ATOM     19  C   UNL     1       3.071   5.659  18.487  0.00  0.00    +0.000 A 
ATOM     20  C   UNL     1       3.988   5.198  17.530  0.00  0.00    +0.000 A 
ATOM     21  C   UNL     1       3.855   3.926  16.965  0.00  0.00    +0.000 A 
ATOM     22  C   UNL     1       2.802   3.100  17.351  0.00  0.00    +0.000 A 
ATOM     23  C   UNL     1       1.890   3.546  18.305  0.00  0.00    +0.000 A 
ATOM     24 CL   UNL     1       0.590   2.526  18.785  0.00  0.00    +0.000 Cl
ATOM     25  C   UNL     1       2.017   4.818  18.871  0.00  0.00    +0.000 A 
ENDBRANCH  18  19
ENDBRANCH   2  18
TORSDOF 2
ENDMDL
MODEL 8
REMARK VINA RESULT:      -7.5      2.984      3.768
REMARK  Name = 
REMARK  2 active torsions:
REMARK  status: ('A' for Active; 'I' for Inactive)
REMARK    1  A    between atoms: C_2  and  C_3
REMARK    2  A    between atoms: C_3  and  C_4
REMARK                            x       y       z     vdW  Elec       q    Type
REMARK                         _______ _______ _______ _____ _____    ______ ____
ROOT
ATOM      1  O   UNL     1      -1.080  11.809  21.062  0.00  0.00    +0.000 OA
ATOM      2  C   UNL     1      -0.833  11.527  19.886  0.00  0.00    +0.000 C 
ATOM      3  N   UNL     1      -0.326  10.290  19.527  0.00  0.00    +0.000 N 
ATOM      4  C   UNL     1       0.060   9.867  18.179  0.00  0.00    +0.000 C 
ATOM      5  C   UNL     1       1.548   9.482  18.124  0.00  0.00    +0.000 C 
ATOM      6  N   UNL     1       1.847   8.472  19.146  0.00  0.00    +0.000 N 
ATOM      7  C   UNL     1       2.483   7.273  18.872  0.00  0.00    +0.000 A 
ATOM      8  C   UNL     1       3.501   7.221  17.765  0.00  0.00    +0.000 A 
ATOM      9  C   UNL     1       4.106   6.064  17.472  0.00  0.00    +0.000 A 
ATOM     10  C   UNL     1       3.760   4.922  18.209  0.00  0.00    +0.000 A 
ATOM     11  N   UNL     1       4.153   3.666  18.150  0.00  0.00    +0.000 NA
ATOM     12  N   UNL     1       3.461   2.969  19.117  0.00  0.00    +0.000 NA
ATOM     13  C   UNL     1       2.675   3.824  19.736  0.00  0.00    +0.000 A 
ATOM     14  N   UNL     1       2.830   5.076  19.213  0.00  0.00    +0.000 N 
ATOM     15  N   UNL     1       2.179   6.218  19.590  0.00  0.00    +0.000 NA
ATOM     16  C   UNL     1       1.456   8.862  20.516  0.00  0.00    +0.000 C 
ATOM     17  C   UNL     1      -0.021   9.293  20.568  0.00  0.00    +0.000 C 
ENDROOT
BRANCH   2  18
ATOM     18  C   UNL     1      -1.068  12.572  18.801  0.00  0.00    +0.000 C 
BRANCH  18  19
ATOM     19  C   UNL     1      -0.039  13.679  18.808  0.00  0.00    +0.000 A 
ATOM     20  C   UNL     1      -0.436  15.004  19.049  0.00  0.00    +0.000 A 
ATOM     21  C   UNL     1       0.494  16.047  19.019  0.00  0.00    +0.000 A 
ATOM     22  C   UNL     1       1.834  15.777  18.748  0.00  0.00    +0.000 A 
ATOM     23  C   UNL     1       2.238  14.465  18.513  0.00  0.00    +0.000 A 
ATOM     24 CL   UNL     1       3.893  14.129  18.180  0.00  0.00    +0.000 Cl
ATOM     25  C   UNL     1       1.312  13.418  18.539  0.00  0.00    +0.000 A 
ENDBRANCH  18  19
ENDBRANCH   2  18
TORSDOF 2
ENDMDL
MODEL 9
REMARK VINA RESULT:      -7.4      4.280      9.329
REMARK  Name = 
REMARK  2 active torsions:
REMARK  status: ('A' for Active; 'I' for Inactive)
REMARK    1  A    between atoms: C_2  and  C_3
REMARK    2  A    between atoms: C_3  and  C_4
REMARK                            x       y       z     vdW  Elec       q    Type
REMARK                         _______ _______ _______ _____ _____    ______ ____
ROOT
ATOM      1  O   UNL     1       2.414   5.239  20.182  0.00  0.00    +0.000 OA
ATOM      2  C   UNL     1       2.520   5.986  19.204  0.00  0.00    +0.000 C 
ATOM      3  N   UNL     1       2.346   7.354  19.314  0.00  0.00    +0.000 N 
ATOM      4  C   UNL     1       2.388   8.326  18.219  0.00  0.00    +0.000 C 
ATOM      5  C   UNL     1       1.053   9.080  18.096  0.00  0.00    +0.000 C 
ATOM      6  N   UNL     1       0.695   9.687  19.384  0.00  0.00    +0.000 N 
ATOM      7  C   UNL     1       0.370  11.025  19.533  0.00  0.00    +0.000 A 
ATOM      8  C   UNL     1      -0.316  11.742  18.402  0.00  0.00    +0.000 A 
ATOM      9  C   UNL     1      -0.614  13.041  18.522  0.00  0.00    +0.000 A 
ATOM     10  C   UNL     1      -0.265  13.701  19.709  0.00  0.00    +0.000 A 
ATOM     11  N   UNL     1      -0.401  14.947  20.114  0.00  0.00    +0.000 NA
ATOM     12  N   UNL     1       0.142  15.034  21.378  0.00  0.00    +0.000 NA
ATOM     13  C   UNL     1       0.586  13.839  21.703  0.00  0.00    +0.000 A 
ATOM     14  N   UNL     1       0.345  12.953  20.692  0.00  0.00    +0.000 N 
ATOM     15  N   UNL     1       0.668  11.625  20.660  0.00  0.00    +0.000 NA
ATOM     16  C   UNL     1       0.658   8.735  20.512  0.00  0.00    +0.000 C 
ATOM     17  C   UNL     1       1.975   7.944  20.612  0.00  0.00    +0.000 C 
ENDROOT
BRANCH   2  18
ATOM     18  C   UNL     1       2.828   5.388  17.836  0.00  0.00    +0.000 C 
BRANCH  18  19
ATOM     19  C   UNL     1       4.305   5.157  17.606  0.00  0.00    +0.000 A 
ATOM     20  C   UNL     1       4.740   4.519  16.434  0.00  0.00    +0.000 A 
ATOM     21  C   UNL     1       6.098   4.260  16.222  0.00  0.00    +0.000 A 
ATOM     22  C   UNL     1       7.036   4.638  17.180  0.00  0.00    +0.000 A 
ATOM     23  C   UNL     1       6.614   5.277  18.342  0.00  0.00    +0.000 A 
ATOM     24 CL   UNL     1       7.772   5.747  19.526  0.00  0.00    +0.000 Cl
ATOM     25  C   UNL     1       5.258   5.537  18.561  0.00  0.00    +0.000 A 
ENDBRANCH  18  19
ENDBRANCH   2  18
TORSDOF 2
ENDMDL
