MODEL 1
REMARK VINA RESULT:      -8.3      0.000      0.000
REMARK  Name = 
REMARK  6 active torsions:
REMARK  status: ('A' for Active; 'I' for Inactive)
REMARK    1  A    between atoms: C_1  and  C_2
REMARK    2  A    between atoms: C_5  and  C_6
REMARK    3  A    between atoms: C_6  and  N_7
REMARK    4  A    between atoms: N_16  and  C_17
REMARK    5  A    between atoms: C_21  and  O_22
REMARK    6  A    between atoms: O_22  and  C_23
REMARK                            x       y       z     vdW  Elec       q    Type
REMARK                         _______ _______ _______ _____ _____    ______ ____
ROOT
ATOM      1  N   UNL     1      -1.173  10.635  22.536  0.00  0.00    +0.000 NA
ATOM      2  C   UNL     1      -0.078   9.990  23.279  0.00  0.00    +0.000 C 
ATOM      3  C   UNL     1       0.322   8.649  22.664  0.00  0.00    +0.000 C 
ATOM      4  C   UNL     1       0.630   8.791  21.204  0.00  0.00    +0.000 A 
ATOM      5  N   UNL     1       1.476   7.878  20.678  0.00  0.00    +0.000 NA
ATOM      6  C   UNL     1       1.795   7.972  19.385  0.00  0.00    +0.000 A 
ATOM      7  N   UNL     1       2.652   7.034  18.820  0.00  0.00    +0.000 N 
ATOM      8  C   UNL     1       3.517   7.553  17.752  0.00  0.00    +0.000 C 
ATOM      9  C   UNL     1       4.227   6.383  17.032  0.00  0.00    +0.000 C 
ATOM     10  N   UNL     1       4.968   5.495  17.959  0.00  0.00    +0.000 NA
ATOM     11  C   UNL     1       5.540   4.365  17.229  0.00  0.00    +0.000 C 
ATOM     12  C   UNL     1       4.044   5.011  19.011  0.00  0.00    +0.000 C 
ATOM     13  C   UNL     1       3.349   6.163  19.772  0.00  0.00    +0.000 C 
ATOM     14  N   UNL     1       1.302   8.933  18.603  0.00  0.00    +0.000 NA
ATOM     15  C   UNL     1       0.487   9.852  19.153  0.00  0.00    +0.000 A 
ATOM     16  C   UNL     1       0.068   9.813  20.471  0.00  0.00    +0.000 A 
ATOM     17  C   UNL     1      -0.845  10.824  21.092  0.00  0.00    +0.000 C 
ENDROOT
BRANCH   1  18
ATOM     18  C   UNL     1      -1.493  11.962  23.112  0.00  0.00    +0.000 C 
BRANCH  18  23
ATOM     19  C   UNL     1      -7.190  13.228  22.844  0.00  0.00    +0.000 C 
ATOM     20  C   UNL     1      -5.710  12.975  22.922  0.00  0.00    +0.000 A 
ATOM     21  C   UNL     1      -4.924  12.976  21.769  0.00  0.00    +0.000 A 
ATOM     22  C   UNL     1      -3.557  12.692  21.846  0.00  0.00    +0.000 A 
ATOM     23  C   UNL     1      -2.946  12.399  23.077  0.00  0.00    +0.000 A 
ATOM     24  C   UNL     1      -3.734  12.421  24.233  0.00  0.00    +0.000 A 
ATOM     25  C   UNL     1      -5.104  12.706  24.156  0.00  0.00    +0.000 A 
ENDBRANCH  18  23
ENDBRANCH   1  18
BRANCH  15  26
ATOM     26  O   UNL     1       0.070  10.916  18.347  0.00  0.00    +0.000 OA
BRANCH  26  27
ATOM     27  C   UNL     1      -1.251  10.902  17.928  0.00  0.00    +0.000 A 
ATOM     28  C   UNL     1      -2.091  11.932  18.365  0.00  0.00    +0.000 A 
ATOM     29  C   UNL     1      -3.443  11.935  17.999  0.00  0.00    +0.000 A 
ATOM     30  C   UNL     1      -3.941  10.915  17.197  0.00  0.00    +0.000 A 
ATOM     31  F   UNL     1      -5.243  10.896  16.881  0.00  0.00    +0.000 F 
ATOM     32  C   UNL     1      -3.109   9.910  16.720  0.00  0.00    +0.000 A 
ATOM     33  C   UNL     1      -1.756   9.922  17.064  0.00  0.00    +0.000 A 
ENDBRANCH  26  27
ENDBRANCH  15  26
TORSDOF 4
ENDMDL
MODEL 2
REMARK VINA RESULT:      -8.1      2.547      3.137
REMARK  Name = 
REMARK  6 active torsions:
REMARK  status: ('A' for Active; 'I' for Inactive)
REMARK    1  A    between atoms: C_1  and  C_2
REMARK    2  A    between atoms: C_5  and  C_6
REMARK    3  A    between atoms: C_6  and  N_7
REMARK    4  A    between atoms: N_16  and  C_17
REMARK    5  A    between atoms: C_21  and  O_22
REMARK    6  A    between atoms: O_22  and  C_23
REMARK                            x       y       z     vdW  Elec       q    Type
REMARK                         _______ _______ _______ _____ _____    ______ ____
ROOT
ATOM      1  N   UNL     1      -1.513  10.972  22.353  0.00  0.00    +0.000 NA
ATOM      2  C   UNL     1      -0.535  10.211  23.147  0.00  0.00    +0.000 C 
ATOM      3  C   UNL     1      -0.149   8.894  22.475  0.00  0.00    +0.000 C 
ATOM      4  C   UNL     1       0.312   9.117  21.067  0.00  0.00    +0.000 A 
ATOM      5  N   UNL     1       1.156   8.193  20.557  0.00  0.00    +0.000 NA
ATOM      6  C   UNL     1       1.607   8.356  19.311  0.00  0.00    +0.000 A 
ATOM      7  N   UNL     1       2.465   7.409  18.762  0.00  0.00    +0.000 N 
ATOM      8  C   UNL     1       3.459   7.946  17.825  0.00  0.00    +0.000 C 
ATOM      9  C   UNL     1       4.173   6.788  17.091  0.00  0.00    +0.000 C 
ATOM     10  N   UNL     1       4.768   5.793  18.016  0.00  0.00    +0.000 NA
ATOM     11  C   UNL     1       5.349   4.684  17.262  0.00  0.00    +0.000 C 
ATOM     12  C   UNL     1       3.718   5.296  18.935  0.00  0.00    +0.000 C 
ATOM     13  C   UNL     1       3.014   6.433  19.710  0.00  0.00    +0.000 C 
ATOM     14  N   UNL     1       1.248   9.397  18.559  0.00  0.00    +0.000 NA
ATOM     15  C   UNL     1       0.433  10.324  19.096  0.00  0.00    +0.000 A 
ATOM     16  C   UNL     1      -0.118  10.220  20.361  0.00  0.00    +0.000 A 
ATOM     17  C   UNL     1      -1.032  11.240  20.966  0.00  0.00    +0.000 C 
ENDROOT
BRANCH   1  18
ATOM     18  C   UNL     1      -1.817  12.274  22.993  0.00  0.00    +0.000 C 
BRANCH  18  23
ATOM     19  C   UNL     1      -7.539  13.085  23.846  0.00  0.00    +0.000 C 
ATOM     20  C   UNL     1      -6.055  12.948  23.645  0.00  0.00    +0.000 A 
ATOM     21  C   UNL     1      -5.479  13.186  22.397  0.00  0.00    +0.000 A 
ATOM     22  C   UNL     1      -4.106  13.009  22.207  0.00  0.00    +0.000 A 
ATOM     23  C   UNL     1      -3.277  12.588  23.262  0.00  0.00    +0.000 A 
ATOM     24  C   UNL     1      -3.856  12.372  24.517  0.00  0.00    +0.000 A 
ATOM     25  C   UNL     1      -5.233  12.550  24.707  0.00  0.00    +0.000 A 
ENDBRANCH  18  23
ENDBRANCH   1  18
BRANCH  15  26
ATOM     26  O   UNL     1       0.157  11.465  18.335  0.00  0.00    +0.000 OA
BRANCH  26  27
ATOM     27  C   UNL     1       0.970  12.568  18.546  0.00  0.00    +0.000 A 
ATOM     28  C   UNL     1       2.322  12.464  18.199  0.00  0.00    +0.000 A 
ATOM     29  C   UNL     1       3.188  13.539  18.432  0.00  0.00    +0.000 A 
ATOM     30  C   UNL     1       2.697  14.708  19.002  0.00  0.00    +0.000 A 
ATOM     31  F   UNL     1       3.534  15.721  19.263  0.00  0.00    +0.000 F 
ATOM     32  C   UNL     1       1.349  14.841  19.312  0.00  0.00    +0.000 A 
ATOM     33  C   UNL     1       0.482  13.778  19.055  0.00  0.00    +0.000 A 
ENDBRANCH  26  27
ENDBRANCH  15  26
TORSDOF 4
ENDMDL
MODEL 3
REMARK VINA RESULT:      -8.0      3.387     10.363
REMARK  Name = 
REMARK  6 active torsions:
REMARK  status: ('A' for Active; 'I' for Inactive)
REMARK    1  A    between atoms: C_1  and  C_2
REMARK    2  A    between atoms: C_5  and  C_6
REMARK    3  A    between atoms: C_6  and  N_7
REMARK    4  A    between atoms: N_16  and  C_17
REMARK    5  A    between atoms: C_21  and  O_22
REMARK    6  A    between atoms: O_22  and  C_23
REMARK                            x       y       z     vdW  Elec       q    Type
REMARK                         _______ _______ _______ _____ _____    ______ ____
ROOT
ATOM      1  N   UNL     1       3.974   6.298  17.421  0.00  0.00    +0.000 NA
ATOM      2  C   UNL     1       4.132   7.753  17.258  0.00  0.00    +0.000 C 
ATOM      3  C   UNL     1       2.820   8.503  17.492  0.00  0.00    +0.000 C 
ATOM      4  C   UNL     1       2.215   8.140  18.814  0.00  0.00    +0.000 A 
ATOM      5  N   UNL     1       1.405   9.065  19.377  0.00  0.00    +0.000 NA
ATOM      6  C   UNL     1       0.855   8.794  20.564  0.00  0.00    +0.000 A 
ATOM      7  N   UNL     1       0.007   9.725  21.154  0.00  0.00    +0.000 N 
ATOM      8  C   UNL     1       0.054   9.760  22.622  0.00  0.00    +0.000 C 
ATOM      9  C   UNL     1      -1.100  10.631  23.166  0.00  0.00    +0.000 C 
ATOM     10  N   UNL     1      -1.125  11.994  22.584  0.00  0.00    +0.000 NA
ATOM     11  C   UNL     1      -2.286  12.734  23.073  0.00  0.00    +0.000 C 
ATOM     12  C   UNL     1      -1.167  11.890  21.106  0.00  0.00    +0.000 C 
ATOM     13  C   UNL     1      -0.001  11.054  20.532  0.00  0.00    +0.000 C 
ATOM     14  N   UNL     1       1.077   7.645  21.202  0.00  0.00    +0.000 NA
ATOM     15  C   UNL     1       1.912   6.751  20.640  0.00  0.00    +0.000 A 
ATOM     16  C   UNL     1       2.496   6.924  19.398  0.00  0.00    +0.000 A 
ATOM     17  C   UNL     1       3.419   5.934  18.758  0.00  0.00    +0.000 C 
ENDROOT
BRANCH   1  18
ATOM     18  C   UNL     1       5.272   5.604  17.257  0.00  0.00    +0.000 C 
BRANCH  18  23
ATOM     19  C   UNL     1       6.928   3.543  12.048  0.00  0.00    +0.000 C 
ATOM     20  C   UNL     1       6.477   4.135  13.354  0.00  0.00    +0.000 A 
ATOM     21  C   UNL     1       7.348   4.907  14.125  0.00  0.00    +0.000 A 
ATOM     22  C   UNL     1       6.936   5.413  15.361  0.00  0.00    +0.000 A 
ATOM     23  C   UNL     1       5.645   5.158  15.855  0.00  0.00    +0.000 A 
ATOM     24  C   UNL     1       4.769   4.402  15.068  0.00  0.00    +0.000 A 
ATOM     25  C   UNL     1       5.182   3.895  13.828  0.00  0.00    +0.000 A 
ENDBRANCH  18  23
ENDBRANCH   1  18
BRANCH  15  26
ATOM     26  O   UNL     1       2.223   5.602  21.374  0.00  0.00    +0.000 OA
BRANCH  26  27
ATOM     27  C   UNL     1       2.023   4.385  20.743  0.00  0.00    +0.000 A 
ATOM     28  C   UNL     1       3.098   3.493  20.675  0.00  0.00    +0.000 A 
ATOM     29  C   UNL     1       2.952   2.269  20.011  0.00  0.00    +0.000 A 
ATOM     30  C   UNL     1       1.732   1.944  19.427  0.00  0.00    +0.000 A 
ATOM     31  F   UNL     1       1.605   0.791  18.757  0.00  0.00    +0.000 F 
ATOM     32  C   UNL     1       0.643   2.800  19.524  0.00  0.00    +0.000 A 
ATOM     33  C   UNL     1       0.783   4.009  20.209  0.00  0.00    +0.000 A 
ENDBRANCH  26  27
ENDBRANCH  15  26
TORSDOF 4
ENDMDL
MODEL 4
REMARK VINA RESULT:      -7.9      2.596      3.176
REMARK  Name = 
REMARK  6 active torsions:
REMARK  status: ('A' for Active; 'I' for Inactive)
REMARK    1  A    between atoms: C_1  and  C_2
REMARK    2  A    between atoms: C_5  and  C_6
REMARK    3  A    between atoms: C_6  and  N_7
REMARK    4  A    between atoms: N_16  and  C_17
REMARK    5  A    between atoms: C_21  and  O_22
REMARK    6  A    between atoms: O_22  and  C_23
REMARK                            x       y       z     vdW  Elec       q    Type
REMARK                         _______ _______ _______ _____ _____    ______ ____
ROOT
ATOM      1  N   UNL     1      -1.574  11.180  22.357  0.00  0.00    +0.000 NA
ATOM      2  C   UNL     1      -0.602  10.420  23.160  0.00  0.00    +0.000 C 
ATOM      3  C   UNL     1      -0.233   9.088  22.507  0.00  0.00    +0.000 C 
ATOM      4  C   UNL     1       0.226   9.284  21.095  0.00  0.00    +0.000 A 
ATOM      5  N   UNL     1       1.058   8.342  20.598  0.00  0.00    +0.000 NA
ATOM      6  C   UNL     1       1.507   8.481  19.348  0.00  0.00    +0.000 A 
ATOM      7  N   UNL     1       2.353   7.516  18.811  0.00  0.00    +0.000 N 
ATOM      8  C   UNL     1       3.350   8.027  17.862  0.00  0.00    +0.000 C 
ATOM      9  C   UNL     1       4.049   6.849  17.145  0.00  0.00    +0.000 C 
ATOM     10  N   UNL     1       4.635   5.863  18.083  0.00  0.00    +0.000 NA
ATOM     11  C   UNL     1       5.202   4.736  17.345  0.00  0.00    +0.000 C 
ATOM     12  C   UNL     1       3.583   5.392  19.014  0.00  0.00    +0.000 C 
ATOM     13  C   UNL     1       2.894   6.549  19.772  0.00  0.00    +0.000 C 
ATOM     14  N   UNL     1       1.158   9.514  18.581  0.00  0.00    +0.000 NA
ATOM     15  C   UNL     1       0.355  10.459  19.105  0.00  0.00    +0.000 A 
ATOM     16  C   UNL     1      -0.193  10.381  20.373  0.00  0.00    +0.000 A 
ATOM     17  C   UNL     1      -1.095  11.420  20.964  0.00  0.00    +0.000 C 
ENDROOT
BRANCH   1  18
ATOM     18  C   UNL     1      -1.861  12.494  22.978  0.00  0.00    +0.000 C 
BRANCH  18  23
ATOM     19  C   UNL     1      -7.346  14.209  24.029  0.00  0.00    +0.000 C 
ATOM     20  C   UNL     1      -5.962  13.712  23.716  0.00  0.00    +0.000 A 
ATOM     21  C   UNL     1      -5.335  12.779  24.544  0.00  0.00    +0.000 A 
ATOM     22  C   UNL     1      -4.029  12.359  24.273  0.00  0.00    +0.000 A 
ATOM     23  C   UNL     1      -3.320  12.864  23.169  0.00  0.00    +0.000 A 
ATOM     24  C   UNL     1      -3.962  13.782  22.330  0.00  0.00    +0.000 A 
ATOM     25  C   UNL     1      -5.271  14.202  22.602  0.00  0.00    +0.000 A 
ENDBRANCH  18  23
ENDBRANCH   1  18
BRANCH  15  26
ATOM     26  O   UNL     1       0.089  11.591  18.327  0.00  0.00    +0.000 OA
BRANCH  26  27
ATOM     27  C   UNL     1       0.951  12.666  18.475  0.00  0.00    +0.000 A 
ATOM     28  C   UNL     1       0.409  13.896  18.863  0.00  0.00    +0.000 A 
ATOM     29  C   UNL     1       1.237  15.019  18.985  0.00  0.00    +0.000 A 
ATOM     30  C   UNL     1       2.598  14.901  18.727  0.00  0.00    +0.000 A 
ATOM     31  F   UNL     1       3.382  15.984  18.804  0.00  0.00    +0.000 F 
ATOM     32  C   UNL     1       3.157  13.677  18.383  0.00  0.00    +0.000 A 
ATOM     33  C   UNL     1       2.335  12.553  18.287  0.00  0.00    +0.000 A 
ENDBRANCH  26  27
ENDBRANCH  15  26
TORSDOF 4
ENDMDL
MODEL 5
REMARK VINA RESULT:      -7.8      0.850      1.556
REMARK  Name = 
REMARK  6 active torsions:
REMARK  status: ('A' for Active; 'I' for Inactive)
REMARK    1  A    between atoms: C_1  and  C_2
REMARK    2  A    between atoms: C_5  and  C_6
REMARK    3  A    between atoms: C_6  and  N_7
REMARK    4  A    between atoms: N_16  and  C_17
REMARK    5  A    between atoms: C_21  and  O_22
REMARK    6  A    between atoms: O_22  and  C_23
REMARK                            x       y       z     vdW  Elec       q    Type
REMARK                         _______ _______ _______ _____ _____    ______ ____
ROOT
ATOM      1  N   UNL     1      -1.062  10.562  22.522  0.00  0.00    +0.000 NA
ATOM      2  C   UNL     1       0.038   9.911  23.252  0.00  0.00    +0.000 C 
ATOM      3  C   UNL     1       0.432   8.574  22.624  0.00  0.00    +0.000 C 
ATOM      4  C   UNL     1       0.730   8.726  21.164  0.00  0.00    +0.000 A 
ATOM      5  N   UNL     1       1.571   7.817  20.625  0.00  0.00    +0.000 NA
ATOM      6  C   UNL     1       1.880   7.920  19.329  0.00  0.00    +0.000 A 
ATOM      7  N   UNL     1       2.732   6.986  18.751  0.00  0.00    +0.000 N 
ATOM      8  C   UNL     1       3.589   7.512  17.680  0.00  0.00    +0.000 C 
ATOM      9  C   UNL     1       4.292   6.347  16.947  0.00  0.00    +0.000 C 
ATOM     10  N   UNL     1       5.040   5.451  17.861  0.00  0.00    +0.000 NA
ATOM     11  C   UNL     1       5.606   4.327  17.119  0.00  0.00    +0.000 C 
ATOM     12  C   UNL     1       4.124   4.961  18.917  0.00  0.00    +0.000 C 
ATOM     13  C   UNL     1       3.436   6.107  19.691  0.00  0.00    +0.000 C 
ATOM     14  N   UNL     1       1.382   8.887  18.558  0.00  0.00    +0.000 NA
ATOM     15  C   UNL     1       0.571   9.802  19.121  0.00  0.00    +0.000 A 
ATOM     16  C   UNL     1       0.162   9.754  20.442  0.00  0.00    +0.000 A 
ATOM     17  C   UNL     1      -0.745  10.761  21.078  0.00  0.00    +0.000 C 
ENDROOT
BRANCH   1  18
ATOM     18  C   UNL     1      -1.377  11.885  23.111  0.00  0.00    +0.000 C 
BRANCH  18  23
ATOM     19  C   UNL     1      -5.127  15.519  20.493  0.00  0.00    +0.000 C 
ATOM     20  C   UNL     1      -4.154  14.548  21.101  0.00  0.00    +0.000 A 
ATOM     21  C   UNL     1      -4.600  13.362  21.684  0.00  0.00    +0.000 A 
ATOM     22  C   UNL     1      -3.692  12.488  22.290  0.00  0.00    +0.000 A 
ATOM     23  C   UNL     1      -2.318  12.783  22.329  0.00  0.00    +0.000 A 
ATOM     24  C   UNL     1      -1.874  13.963  21.723  0.00  0.00    +0.000 A 
ATOM     25  C   UNL     1      -2.784  14.838  21.115  0.00  0.00    +0.000 A 
ENDBRANCH  18  23
ENDBRANCH   1  18
BRANCH  15  26
ATOM     26  O   UNL     1       0.148  10.872  18.326  0.00  0.00    +0.000 OA
BRANCH  26  27
ATOM     27  C   UNL     1      -1.196  10.908  17.990  0.00  0.00    +0.000 A 
ATOM     28  C   UNL     1      -1.694   9.897  17.162  0.00  0.00    +0.000 A 
ATOM     29  C   UNL     1      -3.037   9.916  16.765  0.00  0.00    +0.000 A 
ATOM     30  C   UNL     1      -3.870  10.940  17.204  0.00  0.00    +0.000 A 
ATOM     31  F   UNL     1      -5.144  10.980  16.790  0.00  0.00    +0.000 F 
ATOM     32  C   UNL     1      -3.400  11.926  18.061  0.00  0.00    +0.000 A 
ATOM     33  C   UNL     1      -2.068  11.891  18.477  0.00  0.00    +0.000 A 
ENDBRANCH  26  27
ENDBRANCH  15  26
TORSDOF 4
ENDMDL
MODEL 6
REMARK VINA RESULT:      -7.6      1.993      8.414
REMARK  Name = 
REMARK  6 active torsions:
REMARK  status: ('A' for Active; 'I' for Inactive)
REMARK    1  A    between atoms: C_1  and  C_2
REMARK    2  A    between atoms: C_5  and  C_6
REMARK    3  A    between atoms: C_6  and  N_7
REMARK    4  A    between atoms: N_16  and  C_17
REMARK    5  A    between atoms: C_21  and  O_22
REMARK    6  A    between atoms: O_22  and  C_23
REMARK                            x       y       z     vdW  Elec       q    Type
REMARK                         _______ _______ _______ _____ _____    ______ ____
ROOT
ATOM      1  N   UNL     1       0.988   8.492  21.448  0.00  0.00    +0.000 NA
ATOM      2  C   UNL     1       0.052   8.331  22.573  0.00  0.00    +0.000 C 
ATOM      3  C   UNL     1      -0.106   9.622  23.376  0.00  0.00    +0.000 C 
ATOM      4  C   UNL     1      -0.475  10.772  22.490  0.00  0.00    +0.000 A 
ATOM      5  N   UNL     1      -1.150  11.788  23.073  0.00  0.00    +0.000 NA
ATOM      6  C   UNL     1      -1.514  12.829  22.320  0.00  0.00    +0.000 A 
ATOM      7  N   UNL     1      -2.196  13.891  22.904  0.00  0.00    +0.000 N 
ATOM      8  C   UNL     1      -3.171  14.554  22.027  0.00  0.00    +0.000 C 
ATOM      9  C   UNL     1      -3.669  15.861  22.686  0.00  0.00    +0.000 C 
ATOM     10  N   UNL     1      -4.206  15.656  24.052  0.00  0.00    +0.000 NA
ATOM     11  C   UNL     1      -4.578  16.937  24.649  0.00  0.00    +0.000 C 
ATOM     12  C   UNL     1      -3.181  14.980  24.881  0.00  0.00    +0.000 C 
ATOM     13  C   UNL     1      -2.693  13.651  24.263  0.00  0.00    +0.000 C 
ATOM     14  N   UNL     1      -1.230  12.896  21.019  0.00  0.00    +0.000 NA
ATOM     15  C   UNL     1      -0.586  11.859  20.450  0.00  0.00    +0.000 A 
ATOM     16  C   UNL     1      -0.132  10.759  21.155  0.00  0.00    +0.000 A 
ATOM     17  C   UNL     1       0.592   9.605  20.535  0.00  0.00    +0.000 C 
ENDROOT
BRANCH   1  18
ATOM     18  C   UNL     1       1.070   7.248  20.647  0.00  0.00    +0.000 C 
BRANCH  18  23
ATOM     19  C   UNL     1       5.062   6.630  16.427  0.00  0.00    +0.000 C 
ATOM     20  C   UNL     1       4.084   6.830  17.551  0.00  0.00    +0.000 A 
ATOM     21  C   UNL     1       4.018   5.922  18.609  0.00  0.00    +0.000 A 
ATOM     22  C   UNL     1       3.073   6.089  19.625  0.00  0.00    +0.000 A 
ATOM     23  C   UNL     1       2.171   7.168  19.606  0.00  0.00    +0.000 A 
ATOM     24  C   UNL     1       2.257   8.087  18.555  0.00  0.00    +0.000 A 
ATOM     25  C   UNL     1       3.204   7.919  17.536  0.00  0.00    +0.000 A 
ENDBRANCH  18  23
ENDBRANCH   1  18
BRANCH  15  26
ATOM     26  O   UNL     1      -0.396  11.895  19.065  0.00  0.00    +0.000 OA
BRANCH  26  27
ATOM     27  C   UNL     1      -1.439  11.427  18.280  0.00  0.00    +0.000 A 
ATOM     28  C   UNL     1      -1.203  10.312  17.469  0.00  0.00    +0.000 A 
ATOM     29  C   UNL     1      -2.215   9.831  16.629  0.00  0.00    +0.000 A 
ATOM     30  C   UNL     1      -3.454  10.463  16.613  0.00  0.00    +0.000 A 
ATOM     31  F   UNL     1      -4.408  10.027  15.780  0.00  0.00    +0.000 F 
ATOM     32  C   UNL     1      -3.716  11.544  17.445  0.00  0.00    +0.000 A 
ATOM     33  C   UNL     1      -2.714  12.006  18.300  0.00  0.00    +0.000 A 
ENDBRANCH  26  27
ENDBRANCH  15  26
TORSDOF 4
ENDMDL
MODEL 7
REMARK VINA RESULT:      -7.5      1.461      2.146
REMARK  Name = 
REMARK  6 active torsions:
REMARK  status: ('A' for Active; 'I' for Inactive)
REMARK    1  A    between atoms: C_1  and  C_2
REMARK    2  A    between atoms: C_5  and  C_6
REMARK    3  A    between atoms: C_6  and  N_7
REMARK    4  A    between atoms: N_16  and  C_17
REMARK    5  A    between atoms: C_21  and  O_22
REMARK    6  A    between atoms: O_22  and  C_23
REMARK                            x       y       z     vdW  Elec       q    Type
REMARK                         _______ _______ _______ _____ _____    ______ ____
ROOT
ATOM      1  N   UNL     1      -0.886  10.283  22.436  0.00  0.00    +0.000 NA
ATOM      2  C   UNL     1       0.228   9.625  23.137  0.00  0.00    +0.000 C 
ATOM      3  C   UNL     1       0.646   8.322  22.456  0.00  0.00    +0.000 C 
ATOM      4  C   UNL     1       0.936   8.537  21.002  0.00  0.00    +0.000 A 
ATOM      5  N   UNL     1       1.794   7.665  20.426  0.00  0.00    +0.000 NA
ATOM      6  C   UNL     1       2.097   7.825  19.135  0.00  0.00    +0.000 A 
ATOM      7  N   UNL     1       2.965   6.931  18.518  0.00  0.00    +0.000 N 
ATOM      8  C   UNL     1       3.809   7.515  17.468  0.00  0.00    +0.000 C 
ATOM      9  C   UNL     1       4.532   6.393  16.688  0.00  0.00    +0.000 C 
ATOM     10  N   UNL     1       5.299   5.477  17.564  0.00  0.00    +0.000 NA
ATOM     11  C   UNL     1       5.885   4.394  16.777  0.00  0.00    +0.000 C 
ATOM     12  C   UNL     1       4.395   4.928  18.602  0.00  0.00    +0.000 C 
ATOM     13  C   UNL     1       3.688   6.030  19.422  0.00  0.00    +0.000 C 
ATOM     14  N   UNL     1       1.578   8.812  18.403  0.00  0.00    +0.000 NA
ATOM     15  C   UNL     1       0.752   9.689  19.004  0.00  0.00    +0.000 A 
ATOM     16  C   UNL     1       0.347   9.581  20.322  0.00  0.00    +0.000 A 
ATOM     17  C   UNL     1      -0.577  10.545  20.999  0.00  0.00    +0.000 C 
ENDROOT
BRANCH   1  18
ATOM     18  C   UNL     1      -1.224  11.576  23.076  0.00  0.00    +0.000 C 
BRANCH  18  23
ATOM     19  C   UNL     1      -1.592  16.513  19.975  0.00  0.00    +0.000 C 
ATOM     20  C   UNL     1      -1.487  15.204  20.709  0.00  0.00    +0.000 A 
ATOM     21  C   UNL     1      -2.626  14.442  20.973  0.00  0.00    +0.000 A 
ATOM     22  C   UNL     1      -2.525  13.251  21.698  0.00  0.00    +0.000 A 
ATOM     23  C   UNL     1      -1.284  12.797  22.178  0.00  0.00    +0.000 A 
ATOM     24  C   UNL     1      -0.143  13.555  21.891  0.00  0.00    +0.000 A 
ATOM     25  C   UNL     1      -0.244  14.748  21.164  0.00  0.00    +0.000 A 
ENDBRANCH  18  23
ENDBRANCH   1  18
BRANCH  15  26
ATOM     26  O   UNL     1       0.307  10.782  18.252  0.00  0.00    +0.000 OA
BRANCH  26  27
ATOM     27  C   UNL     1      -1.036  10.799  17.910  0.00  0.00    +0.000 A 
ATOM     28  C   UNL     1      -1.806  11.891  18.323  0.00  0.00    +0.000 A 
ATOM     29  C   UNL     1      -3.176  11.930  18.035  0.00  0.00    +0.000 A 
ATOM     30  C   UNL     1      -3.762  10.883  17.332  0.00  0.00    +0.000 A 
ATOM     31  F   UNL     1      -5.080  10.902  17.092  0.00  0.00    +0.000 F 
ATOM     32  C   UNL     1      -3.001   9.813  16.878  0.00  0.00    +0.000 A 
ATOM     33  C   UNL     1      -1.631   9.788  17.144  0.00  0.00    +0.000 A 
ENDBRANCH  26  27
ENDBRANCH  15  26
TORSDOF 4
ENDMDL
MODEL 8
REMARK VINA RESULT:      -7.5      2.062      8.485
REMARK  Name = 
REMARK  6 active torsions:
REMARK  status: ('A' for Active; 'I' for Inactive)
REMARK    1  A    between atoms: C_1  and  C_2
REMARK    2  A    between atoms: C_5  and  C_6
REMARK    3  A    between atoms: C_6  and  N_7
REMARK    4  A    between atoms: N_16  and  C_17
REMARK    5  A    between atoms: C_21  and  O_22
REMARK    6  A    between atoms: O_22  and  C_23
REMARK                            x       y       z     vdW  Elec       q    Type
REMARK                         _______ _______ _______ _____ _____    ______ ____
ROOT
ATOM      1  N   UNL     1       1.852   8.121  19.966  0.00  0.00    +0.000 NA
ATOM      2  C   UNL     1       1.453   8.085  21.383  0.00  0.00    +0.000 C 
ATOM      3  C   UNL     1       1.469   9.475  22.020  0.00  0.00    +0.000 C 
ATOM      4  C   UNL     1       0.653  10.447  21.224  0.00  0.00    +0.000 A 
ATOM      5  N   UNL     1       0.145  11.500  21.901  0.00  0.00    +0.000 NA
ATOM      6  C   UNL     1      -0.603  12.386  21.238  0.00  0.00    +0.000 A 
ATOM      7  N   UNL     1      -1.124  13.485  21.913  0.00  0.00    +0.000 N 
ATOM      8  C   UNL     1      -2.433  13.943  21.428  0.00  0.00    +0.000 C 
ATOM      9  C   UNL     1      -2.785  15.306  22.068  0.00  0.00    +0.000 C 
ATOM     10  N   UNL     1      -2.721  15.287  23.549  0.00  0.00    +0.000 NA
ATOM     11  C   UNL     1      -2.978  16.622  24.084  0.00  0.00    +0.000 C 
ATOM     12  C   UNL     1      -1.383  14.812  23.971  0.00  0.00    +0.000 C 
ATOM     13  C   UNL     1      -1.022  13.433  23.376  0.00  0.00    +0.000 C 
ATOM     14  N   UNL     1      -0.857  12.264  19.935  0.00  0.00    +0.000 NA
ATOM     15  C   UNL     1      -0.368  11.191  19.285  0.00  0.00    +0.000 A 
ATOM     16  C   UNL     1       0.449  10.244  19.876  0.00  0.00    +0.000 A 
ATOM     17  C   UNL     1       1.006   9.051  19.162  0.00  0.00    +0.000 C 
ENDROOT
BRANCH   1  18
ATOM     18  C   UNL     1       1.761   6.774  19.357  0.00  0.00    +0.000 C 
BRANCH  18  23
ATOM     19  C   UNL     1       5.806   5.098  15.489  0.00  0.00    +0.000 C 
ATOM     20  C   UNL     1       4.817   5.526  16.538  0.00  0.00    +0.000 A 
ATOM     21  C   UNL     1       4.052   4.582  17.224  0.00  0.00    +0.000 A 
ATOM     22  C   UNL     1       3.101   4.991  18.163  0.00  0.00    +0.000 A 
ATOM     23  C   UNL     1       2.892   6.354  18.436  0.00  0.00    +0.000 A 
ATOM     24  C   UNL     1       3.677   7.295  17.761  0.00  0.00    +0.000 A 
ATOM     25  C   UNL     1       4.631   6.885  16.820  0.00  0.00    +0.000 A 
ENDBRANCH  18  23
ENDBRANCH   1  18
BRANCH  15  26
ATOM     26  O   UNL     1      -0.737  11.018  17.947  0.00  0.00    +0.000 OA
BRANCH  26  27
ATOM     27  C   UNL     1      -2.082  11.164  17.646  0.00  0.00    +0.000 A 
ATOM     28  C   UNL     1      -2.488  10.948  16.325  0.00  0.00    +0.000 A 
ATOM     29  C   UNL     1      -3.831  11.124  15.969  0.00  0.00    +0.000 A 
ATOM     30  C   UNL     1      -4.755  11.506  16.935  0.00  0.00    +0.000 A 
ATOM     31  F   UNL     1      -6.032  11.714  16.584  0.00  0.00    +0.000 F 
ATOM     32  C   UNL     1      -4.374  11.681  18.259  0.00  0.00    +0.000 A 
ATOM     33  C   UNL     1      -3.040  11.481  18.618  0.00  0.00    +0.000 A 
ENDBRANCH  26  27
ENDBRANCH  15  26
TORSDOF 4
ENDMDL
MODEL 9
REMARK VINA RESULT:      -7.4      4.306      9.484
REMARK  Name = 
REMARK  6 active torsions:
REMARK  status: ('A' for Active; 'I' for Inactive)
REMARK    1  A    between atoms: C_1  and  C_2
REMARK    2  A    between atoms: C_5  and  C_6
REMARK    3  A    between atoms: C_6  and  N_7
REMARK    4  A    between atoms: N_16  and  C_17
REMARK    5  A    between atoms: C_21  and  O_22
REMARK    6  A    between atoms: O_22  and  C_23
REMARK                            x       y       z     vdW  Elec       q    Type
REMARK                         _______ _______ _______ _____ _____    ______ ____
ROOT
ATOM      1  N   UNL     1       1.502   9.529  19.363  0.00  0.00    +0.000 NA
ATOM      2  C   UNL     1       0.410   9.203  20.296  0.00  0.00    +0.000 C 
ATOM      3  C   UNL     1       0.424  10.102  21.532  0.00  0.00    +0.000 C 
ATOM      4  C   UNL     1       0.434  11.551  21.151  0.00  0.00    +0.000 A 
ATOM      5  N   UNL     1      -0.080  12.414  22.055  0.00  0.00    +0.000 NA
ATOM      6  C   UNL     1      -0.108  13.715  21.754  0.00  0.00    +0.000 A 
ATOM      7  N   UNL     1      -0.620  14.621  22.677  0.00  0.00    +0.000 N 
ATOM      8  C   UNL     1      -1.302  15.781  22.089  0.00  0.00    +0.000 C 
ATOM      9  C   UNL     1      -1.593  16.833  23.184  0.00  0.00    +0.000 C 
ATOM     10  N   UNL     1      -2.342  16.279  24.338  0.00  0.00    +0.000 NA
ATOM     11  C   UNL     1      -2.507  17.299  25.371  0.00  0.00    +0.000 C 
ATOM     12  C   UNL     1      -1.606  15.113  24.879  0.00  0.00    +0.000 C 
ATOM     13  C   UNL     1      -1.335  14.028  23.812  0.00  0.00    +0.000 C 
ATOM     14  N   UNL     1       0.357  14.183  20.596  0.00  0.00    +0.000 NA
ATOM     15  C   UNL     1       0.835  13.305  19.695  0.00  0.00    +0.000 A 
ATOM     16  C   UNL     1       0.943  11.946  19.932  0.00  0.00    +0.000 A 
ATOM     17  C   UNL     1       1.481  10.960  18.942  0.00  0.00    +0.000 C 
ENDROOT
BRANCH   1  18
ATOM     18  C   UNL     1       1.424   8.690  18.144  0.00  0.00    +0.000 C 
BRANCH  18  23
ATOM     19  C   UNL     1       5.115   4.249  17.258  0.00  0.00    +0.000 C 
ATOM     20  C   UNL     1       4.199   5.405  17.552  0.00  0.00    +0.000 A 
ATOM     21  C   UNL     1       2.988   5.204  18.216  0.00  0.00    +0.000 A 
ATOM     22  C   UNL     1       2.120   6.277  18.442  0.00  0.00    +0.000 A 
ATOM     23  C   UNL     1       2.442   7.574  18.007  0.00  0.00    +0.000 A 
ATOM     24  C   UNL     1       3.668   7.773  17.361  0.00  0.00    +0.000 A 
ATOM     25  C   UNL     1       4.537   6.698  17.135  0.00  0.00    +0.000 A 
ENDBRANCH  18  23
ENDBRANCH   1  18
BRANCH  15  26
ATOM     26  O   UNL     1       1.214  13.800  18.443  0.00  0.00    +0.000 OA
BRANCH  26  27
ATOM     27  C   UNL     1       2.294  14.668  18.415  0.00  0.00    +0.000 A 
ATOM     28  C   UNL     1       3.575  14.119  18.299  0.00  0.00    +0.000 A 
ATOM     29  C   UNL     1       4.698  14.956  18.308  0.00  0.00    +0.000 A 
ATOM     30  C   UNL     1       4.530  16.332  18.425  0.00  0.00    +0.000 A 
ATOM     31  F   UNL     1       5.606  17.128  18.475  0.00  0.00    +0.000 F 
ATOM     32  C   UNL     1       3.262  16.893  18.498  0.00  0.00    +0.000 A 
ATOM     33  C   UNL     1       2.143  16.059  18.463  0.00  0.00    +0.000 A 
ENDBRANCH  26  27
ENDBRANCH  15  26
TORSDOF 4
ENDMDL
