MODEL 1
REMARK VINA RESULT:      -8.5      0.000      0.000
REMARK  Name = 
REMARK  7 active torsions:
REMARK  status: ('A' for Active; 'I' for Inactive)
REMARK    1  A    between atoms: C_1  and  C_2
REMARK    2  A    between atoms: C_5  and  C_6
REMARK    3  A    between atoms: C_6  and  N_7
REMARK    4  A    between atoms: N_13  and  C_14
REMARK    5  A    between atoms: C_14  and  C_15
REMARK    6  A    between atoms: N_17  and  C_18
REMARK    7  A    between atoms: C_18  and  C_19
REMARK                            x       y       z     vdW  Elec       q    Type
REMARK                         _______ _______ _______ _____ _____    ______ ____
ROOT
ATOM      1  N   UNL     1       0.660   9.262  19.371  0.00  0.00    +0.000 NA
ATOM      2  C   UNL     1       0.887   8.822  20.749  0.00  0.00    +0.000 C 
ATOM      3  C   UNL     1       1.330   7.355  20.854  0.00  0.00    +0.000 C 
ATOM      4  C   UNL     1       2.368   6.963  19.833  0.00  0.00    +0.000 A 
ATOM      5  N   UNL     1       3.189   5.914  20.174  0.00  0.00    +0.000 NA
ATOM      6  C   UNL     1       4.185   5.667  19.390  0.00  0.00    +0.000 A 
ATOM      7  N   UNL     1       4.424   6.308  18.202  0.00  0.00    +0.000 N 
ATOM      8  C   UNL     1       3.523   7.249  17.729  0.00  0.00    +0.000 A 
ATOM      9  O   UNL     1       3.634   7.816  16.644  0.00  0.00    +0.000 OA
ATOM     10  C   UNL     1       2.502   7.690  18.715  0.00  0.00    +0.000 A 
ATOM     11  C   UNL     1       1.797   8.997  18.474  0.00  0.00    +0.000 C 
ENDROOT
BRANCH   1  12
ATOM     12  C   UNL     1       0.153  10.645  19.273  0.00  0.00    +0.000 C 
BRANCH  12  17
ATOM     13  C   UNL     1      -5.328  11.427  17.357  0.00  0.00    +0.000 C 
ATOM     14  C   UNL     1      -3.922  11.217  17.840  0.00  0.00    +0.000 A 
ATOM     15  C   UNL     1      -3.102  10.235  17.273  0.00  0.00    +0.000 A 
ATOM     16  C   UNL     1      -1.791  10.054  17.729  0.00  0.00    +0.000 A 
ATOM     17  C   UNL     1      -1.270  10.846  18.753  0.00  0.00    +0.000 A 
ATOM     18  C   UNL     1      -2.102  11.820  19.331  0.00  0.00    +0.000 A 
ATOM     19  C   UNL     1      -3.411  12.008  18.874  0.00  0.00    +0.000 A 
ENDBRANCH  12  17
ENDBRANCH   1  12
BRANCH   7  20
ATOM     20  C   UNL     1       5.660   6.045  17.469  0.00  0.00    +0.000 C 
BRANCH  20  21
ATOM     21  C   UNL     1       6.278   4.620  17.506  0.00  0.00    +0.000 C 
ATOM     22  O   UNL     1       7.275   4.415  18.209  0.00  0.00    +0.000 OA
ATOM     23  N   UNL     1       5.732   3.536  16.877  0.00  0.00    +0.000 N 
ATOM     24  H   UNL     1       6.188   2.663  17.117  0.00  0.00    +0.000 HD
BRANCH  23  25
ATOM     25  C   UNL     1       4.414   3.450  16.324  0.00  0.00    +0.000 C 
BRANCH  25  26
ATOM     26  C   UNL     1       3.317   3.054  17.255  0.00  0.00    +0.000 A 
ATOM     27  C   UNL     1       3.526   2.074  18.225  0.00  0.00    +0.000 A 
ATOM     28  C   UNL     1       2.571   1.875  19.217  0.00  0.00    +0.000 A 
ATOM     29  C   UNL     1       1.411   2.652  19.248  0.00  0.00    +0.000 A 
ATOM     30  C   UNL     1       1.194   3.628  18.279  0.00  0.00    +0.000 A 
ATOM     31  C   UNL     1       2.139   3.822  17.279  0.00  0.00    +0.000 A 
ENDBRANCH  25  26
ENDBRANCH  23  25
ENDBRANCH  20  21
ENDBRANCH   7  20
TORSDOF 6
ENDMDL
MODEL 2
REMARK VINA RESULT:      -8.3      0.325      1.287
REMARK  Name = 
REMARK  7 active torsions:
REMARK  status: ('A' for Active; 'I' for Inactive)
REMARK    1  A    between atoms: C_1  and  C_2
REMARK    2  A    between atoms: C_5  and  C_6
REMARK    3  A    between atoms: C_6  and  N_7
REMARK    4  A    between atoms: N_13  and  C_14
REMARK    5  A    between atoms: C_14  and  C_15
REMARK    6  A    between atoms: N_17  and  C_18
REMARK    7  A    between atoms: C_18  and  C_19
REMARK                            x       y       z     vdW  Elec       q    Type
REMARK                         _______ _______ _______ _____ _____    ______ ____
ROOT
ATOM      1  N   UNL     1       0.833   9.283  18.902  0.00  0.00    +0.000 NA
ATOM      2  C   UNL     1       1.019   8.940  20.314  0.00  0.00    +0.000 C 
ATOM      3  C   UNL     1       1.486   7.492  20.531  0.00  0.00    +0.000 C 
ATOM      4  C   UNL     1       2.567   7.056  19.575  0.00  0.00    +0.000 A 
ATOM      5  N   UNL     1       3.395   6.050  20.014  0.00  0.00    +0.000 NA
ATOM      6  C   UNL     1       4.423   5.773  19.283  0.00  0.00    +0.000 A 
ATOM      7  N   UNL     1       4.692   6.339  18.063  0.00  0.00    +0.000 N 
ATOM      8  C   UNL     1       3.790   7.227  17.497  0.00  0.00    +0.000 A 
ATOM      9  O   UNL     1       3.930   7.724  16.382  0.00  0.00    +0.000 OA
ATOM     10  C   UNL     1       2.728   7.711  18.416  0.00  0.00    +0.000 A 
ATOM     11  C   UNL     1       2.006   8.984  18.065  0.00  0.00    +0.000 C 
ENDROOT
BRANCH   1  12
ATOM     12  C   UNL     1       0.304  10.645  18.695  0.00  0.00    +0.000 C 
BRANCH  12  17
ATOM     13  C   UNL     1      -5.427  11.211  17.619  0.00  0.00    +0.000 C 
ATOM     14  C   UNL     1      -3.959  11.075  17.903  0.00  0.00    +0.000 A 
ATOM     15  C   UNL     1      -3.328  11.888  18.851  0.00  0.00    +0.000 A 
ATOM     16  C   UNL     1      -1.960  11.746  19.110  0.00  0.00    +0.000 A 
ATOM     17  C   UNL     1      -1.194  10.795  18.435  0.00  0.00    +0.000 A 
ATOM     18  C   UNL     1      -1.828   9.993  17.471  0.00  0.00    +0.000 A 
ATOM     19  C   UNL     1      -3.197  10.128  17.214  0.00  0.00    +0.000 A 
ENDBRANCH  12  17
ENDBRANCH   1  12
BRANCH   7  20
ATOM     20  C   UNL     1       5.958   6.055  17.392  0.00  0.00    +0.000 C 
BRANCH  20  21
ATOM     21  C   UNL     1       6.498   4.598  17.372  0.00  0.00    +0.000 C 
ATOM     22  O   UNL     1       7.531   4.331  17.998  0.00  0.00    +0.000 OA
ATOM     23  N   UNL     1       5.850   3.553  16.777  0.00  0.00    +0.000 N 
ATOM     24  H   UNL     1       6.273   2.654  16.976  0.00  0.00    +0.000 HD
BRANCH  23  25
ATOM     25  C   UNL     1       4.492   3.544  16.322  0.00  0.00    +0.000 C 
BRANCH  25  26
ATOM     26  C   UNL     1       3.442   3.242  17.338  0.00  0.00    +0.000 A 
ATOM     27  C   UNL     1       2.227   3.926  17.332  0.00  0.00    +0.000 A 
ATOM     28  C   UNL     1       1.185   3.485  18.141  0.00  0.00    +0.000 A 
ATOM     29  C   UNL     1       1.348   2.360  18.953  0.00  0.00    +0.000 A 
ATOM     30  C   UNL     1       2.561   1.675  18.967  0.00  0.00    +0.000 A 
ATOM     31  C   UNL     1       3.608   2.120  18.171  0.00  0.00    +0.000 A 
ENDBRANCH  25  26
ENDBRANCH  23  25
ENDBRANCH  20  21
ENDBRANCH   7  20
TORSDOF 6
ENDMDL
MODEL 3
REMARK VINA RESULT:      -8.2      2.903      4.902
REMARK  Name = 
REMARK  7 active torsions:
REMARK  status: ('A' for Active; 'I' for Inactive)
REMARK    1  A    between atoms: C_1  and  C_2
REMARK    2  A    between atoms: C_5  and  C_6
REMARK    3  A    between atoms: C_6  and  N_7
REMARK    4  A    between atoms: N_13  and  C_14
REMARK    5  A    between atoms: C_14  and  C_15
REMARK    6  A    between atoms: N_17  and  C_18
REMARK    7  A    between atoms: C_18  and  C_19
REMARK                            x       y       z     vdW  Elec       q    Type
REMARK                         _______ _______ _______ _____ _____    ______ ____
ROOT
ATOM      1  N   UNL     1       1.162   8.952  18.839  0.00  0.00    +0.000 NA
ATOM      2  C   UNL     1       1.239   8.536  20.241  0.00  0.00    +0.000 C 
ATOM      3  C   UNL     1       1.627   7.059  20.415  0.00  0.00    +0.000 C 
ATOM      4  C   UNL     1       2.748   6.618  19.509  0.00  0.00    +0.000 A 
ATOM      5  N   UNL     1       3.501   5.555  19.949  0.00  0.00    +0.000 NA
ATOM      6  C   UNL     1       4.561   5.264  19.271  0.00  0.00    +0.000 A 
ATOM      7  N   UNL     1       4.934   5.874  18.101  0.00  0.00    +0.000 N 
ATOM      8  C   UNL     1       4.112   6.828  17.524  0.00  0.00    +0.000 A 
ATOM      9  O   UNL     1       4.345   7.370  16.446  0.00  0.00    +0.000 OA
ATOM     10  C   UNL     1       3.013   7.318  18.396  0.00  0.00    +0.000 A 
ATOM     11  C   UNL     1       2.372   8.638  18.064  0.00  0.00    +0.000 C 
ENDROOT
BRANCH   1  12
ATOM     12  C   UNL     1       0.707  10.346  18.666  0.00  0.00    +0.000 C 
BRANCH  12  17
ATOM     13  C   UNL     1      -4.991  11.257  17.650  0.00  0.00    +0.000 C 
ATOM     14  C   UNL     1      -3.531  11.015  17.902  0.00  0.00    +0.000 A 
ATOM     15  C   UNL     1      -2.833  10.021  17.207  0.00  0.00    +0.000 A 
ATOM     16  C   UNL     1      -1.470   9.809  17.448  0.00  0.00    +0.000 A 
ATOM     17  C   UNL     1      -0.776  10.581  18.380  0.00  0.00    +0.000 A 
ATOM     18  C   UNL     1      -1.484  11.566  19.088  0.00  0.00    +0.000 A 
ATOM     19  C   UNL     1      -2.845  11.785  18.846  0.00  0.00    +0.000 A 
ENDBRANCH  12  17
ENDBRANCH   1  12
BRANCH   7  20
ATOM     20  C   UNL     1       6.228   5.562  17.498  0.00  0.00    +0.000 C 
BRANCH  20  21
ATOM     21  C   UNL     1       7.528   5.821  18.310  0.00  0.00    +0.000 C 
ATOM     22  O   UNL     1       8.141   4.859  18.788  0.00  0.00    +0.000 OA
ATOM     23  N   UNL     1       8.101   7.053  18.456  0.00  0.00    +0.000 N 
ATOM     24  H   UNL     1       9.013   7.020  18.898  0.00  0.00    +0.000 HD
BRANCH  23  25
ATOM     25  C   UNL     1       7.788   8.231  17.704  0.00  0.00    +0.000 C 
BRANCH  25  26
ATOM     26  C   UNL     1       8.324   9.524  18.222  0.00  0.00    +0.000 A 
ATOM     27  C   UNL     1       9.193   9.548  19.313  0.00  0.00    +0.000 A 
ATOM     28  C   UNL     1       9.850  10.730  19.642  0.00  0.00    +0.000 A 
ATOM     29  C   UNL     1       9.648  11.886  18.885  0.00  0.00    +0.000 A 
ATOM     30  C   UNL     1       8.778  11.869  17.797  0.00  0.00    +0.000 A 
ATOM     31  C   UNL     1       8.110  10.695  17.473  0.00  0.00    +0.000 A 
ENDBRANCH  25  26
ENDBRANCH  23  25
ENDBRANCH  20  21
ENDBRANCH   7  20
TORSDOF 6
ENDMDL
MODEL 4
REMARK VINA RESULT:      -7.8      2.139      2.801
REMARK  Name = 
REMARK  7 active torsions:
REMARK  status: ('A' for Active; 'I' for Inactive)
REMARK    1  A    between atoms: C_1  and  C_2
REMARK    2  A    between atoms: C_5  and  C_6
REMARK    3  A    between atoms: C_6  and  N_7
REMARK    4  A    between atoms: N_13  and  C_14
REMARK    5  A    between atoms: C_14  and  C_15
REMARK    6  A    between atoms: N_17  and  C_18
REMARK    7  A    between atoms: C_18  and  C_19
REMARK                            x       y       z     vdW  Elec       q    Type
REMARK                         _______ _______ _______ _____ _____    ______ ____
ROOT
ATOM      1  N   UNL     1       0.343  10.526  20.330  0.00  0.00    +0.000 NA
ATOM      2  C   UNL     1       0.645   9.954  21.644  0.00  0.00    +0.000 C 
ATOM      3  C   UNL     1       0.718   8.419  21.635  0.00  0.00    +0.000 C 
ATOM      4  C   UNL     1       1.472   7.857  20.457  0.00  0.00    +0.000 A 
ATOM      5  N   UNL     1       2.045   6.621  20.637  0.00  0.00    +0.000 NA
ATOM      6  C   UNL     1       2.828   6.193  19.704  0.00  0.00    +0.000 A 
ATOM      7  N   UNL     1       3.050   6.835  18.512  0.00  0.00    +0.000 N 
ATOM      8  C   UNL     1       2.354   7.996  18.211  0.00  0.00    +0.000 A 
ATOM      9  O   UNL     1       2.450   8.590  17.140  0.00  0.00    +0.000 OA
ATOM     10  C   UNL     1       1.625   8.603  19.354  0.00  0.00    +0.000 A 
ATOM     11  C   UNL     1       1.240  10.056  19.263  0.00  0.00    +0.000 C 
ENDROOT
BRANCH   1  12
ATOM     12  C   UNL     1       0.187  11.994  20.353  0.00  0.00    +0.000 C 
BRANCH  12  17
ATOM     13  C   UNL     1      -4.004  14.206  23.797  0.00  0.00    +0.000 C 
ATOM     14  C   UNL     1      -2.938  13.637  22.906  0.00  0.00    +0.000 A 
ATOM     15  C   UNL     1      -3.254  13.103  21.652  0.00  0.00    +0.000 A 
ATOM     16  C   UNL     1      -2.250  12.580  20.829  0.00  0.00    +0.000 A 
ATOM     17  C   UNL     1      -0.915  12.580  21.234  0.00  0.00    +0.000 A 
ATOM     18  C   UNL     1      -0.604  13.101  22.501  0.00  0.00    +0.000 A 
ATOM     19  C   UNL     1      -1.604  13.630  23.325  0.00  0.00    +0.000 A 
ENDBRANCH  12  17
ENDBRANCH   1  12
BRANCH   7  20
ATOM     20  C   UNL     1       4.066   6.331  17.592  0.00  0.00    +0.000 C 
BRANCH  20  21
ATOM     21  C   UNL     1       5.179   5.390  18.129  0.00  0.00    +0.000 C 
ATOM     22  O   UNL     1       6.139   5.879  18.737  0.00  0.00    +0.000 OA
ATOM     23  N   UNL     1       5.125   4.026  18.056  0.00  0.00    +0.000 N 
ATOM     24  H   UNL     1       5.866   3.568  18.574  0.00  0.00    +0.000 HD
BRANCH  23  25
ATOM     25  C   UNL     1       3.972   3.238  17.739  0.00  0.00    +0.000 C 
BRANCH  25  26
ATOM     26  C   UNL     1       3.032   2.937  18.857  0.00  0.00    +0.000 A 
ATOM     27  C   UNL     1       3.509   2.740  20.154  0.00  0.00    +0.000 A 
ATOM     28  C   UNL     1       2.610   2.679  21.215  0.00  0.00    +0.000 A 
ATOM     29  C   UNL     1       1.239   2.818  20.988  0.00  0.00    +0.000 A 
ATOM     30  C   UNL     1       0.757   3.010  19.696  0.00  0.00    +0.000 A 
ATOM     31  C   UNL     1       1.649   3.059  18.632  0.00  0.00    +0.000 A 
ENDBRANCH  25  26
ENDBRANCH  23  25
ENDBRANCH  20  21
ENDBRANCH   7  20
TORSDOF 6
ENDMDL
MODEL 5
REMARK VINA RESULT:      -7.8      1.328      1.817
REMARK  Name = 
REMARK  7 active torsions:
REMARK  status: ('A' for Active; 'I' for Inactive)
REMARK    1  A    between atoms: C_1  and  C_2
REMARK    2  A    between atoms: C_5  and  C_6
REMARK    3  A    between atoms: C_6  and  N_7
REMARK    4  A    between atoms: N_13  and  C_14
REMARK    5  A    between atoms: C_14  and  C_15
REMARK    6  A    between atoms: N_17  and  C_18
REMARK    7  A    between atoms: C_18  and  C_19
REMARK                            x       y       z     vdW  Elec       q    Type
REMARK                         _______ _______ _______ _____ _____    ______ ____
ROOT
ATOM      1  N   UNL     1       0.064  10.123  19.950  0.00  0.00    +0.000 NA
ATOM      2  C   UNL     1       0.385   9.711  21.319  0.00  0.00    +0.000 C 
ATOM      3  C   UNL     1       0.667   8.206  21.449  0.00  0.00    +0.000 C 
ATOM      4  C   UNL     1       1.538   7.657  20.348  0.00  0.00    +0.000 A 
ATOM      5  N   UNL     1       2.265   6.531  20.654  0.00  0.00    +0.000 NA
ATOM      6  C   UNL     1       3.137   6.139  19.786  0.00  0.00    +0.000 A 
ATOM      7  N   UNL     1       3.319   6.703  18.549  0.00  0.00    +0.000 N 
ATOM      8  C   UNL     1       2.485   7.726  18.125  0.00  0.00    +0.000 A 
ATOM      9  O   UNL     1       2.544   8.236  17.009  0.00  0.00    +0.000 OA
ATOM     10  C   UNL     1       1.634   8.321  19.187  0.00  0.00    +0.000 A 
ATOM     11  C   UNL     1       1.060   9.693  18.957  0.00  0.00    +0.000 C 
ENDROOT
BRANCH   1  12
ATOM     12  C   UNL     1      -0.290  11.552  19.837  0.00  0.00    +0.000 C 
BRANCH  12  17
ATOM     13  C   UNL     1      -5.964  12.951  19.421  0.00  0.00    +0.000 C 
ATOM     14  C   UNL     1      -4.509  12.599  19.538  0.00  0.00    +0.000 A 
ATOM     15  C   UNL     1      -3.732  13.082  20.596  0.00  0.00    +0.000 A 
ATOM     16  C   UNL     1      -2.378  12.742  20.696  0.00  0.00    +0.000 A 
ATOM     17  C   UNL     1      -1.772  11.914  19.750  0.00  0.00    +0.000 A 
ATOM     18  C   UNL     1      -2.552  11.446  18.679  0.00  0.00    +0.000 A 
ATOM     19  C   UNL     1      -3.907  11.779  18.579  0.00  0.00    +0.000 A 
ENDBRANCH  12  17
ENDBRANCH   1  12
BRANCH   7  20
ATOM     20  C   UNL     1       4.431   6.269  17.708  0.00  0.00    +0.000 C 
BRANCH  20  21
ATOM     21  C   UNL     1       5.444   5.230  18.262  0.00  0.00    +0.000 C 
ATOM     22  O   UNL     1       6.424   5.628  18.904  0.00  0.00    +0.000 OA
ATOM     23  N   UNL     1       5.276   3.877  18.168  0.00  0.00    +0.000 N 
ATOM     24  H   UNL     1       5.960   3.350  18.700  0.00  0.00    +0.000 HD
BRANCH  23  25
ATOM     25  C   UNL     1       4.070   3.193  17.807  0.00  0.00    +0.000 C 
BRANCH  25  26
ATOM     26  C   UNL     1       3.100   2.913  18.905  0.00  0.00    +0.000 A 
ATOM     27  C   UNL     1       3.545   2.685  20.207  0.00  0.00    +0.000 A 
ATOM     28  C   UNL     1       2.625   2.643  21.251  0.00  0.00    +0.000 A 
ATOM     29  C   UNL     1       1.264   2.832  21.001  0.00  0.00    +0.000 A 
ATOM     30  C   UNL     1       0.813   3.055  19.702  0.00  0.00    +0.000 A 
ATOM     31  C   UNL     1       1.726   3.085  18.656  0.00  0.00    +0.000 A 
ENDBRANCH  25  26
ENDBRANCH  23  25
ENDBRANCH  20  21
ENDBRANCH   7  20
TORSDOF 6
ENDMDL
MODEL 6
REMARK VINA RESULT:      -7.8      1.906      2.536
REMARK  Name = 
REMARK  7 active torsions:
REMARK  status: ('A' for Active; 'I' for Inactive)
REMARK    1  A    between atoms: C_1  and  C_2
REMARK    2  A    between atoms: C_5  and  C_6
REMARK    3  A    between atoms: C_6  and  N_7
REMARK    4  A    between atoms: N_13  and  C_14
REMARK    5  A    between atoms: C_14  and  C_15
REMARK    6  A    between atoms: N_17  and  C_18
REMARK    7  A    between atoms: C_18  and  C_19
REMARK                            x       y       z     vdW  Elec       q    Type
REMARK                         _______ _______ _______ _____ _____    ______ ____
ROOT
ATOM      1  N   UNL     1       0.011  10.440  20.627  0.00  0.00    +0.000 NA
ATOM      2  C   UNL     1       0.466   9.812  21.869  0.00  0.00    +0.000 C 
ATOM      3  C   UNL     1       0.718   8.303  21.729  0.00  0.00    +0.000 C 
ATOM      4  C   UNL     1       1.450   7.927  20.466  0.00  0.00    +0.000 A 
ATOM      5  N   UNL     1       2.174   6.759  20.510  0.00  0.00    +0.000 NA
ATOM      6  C   UNL     1       2.935   6.501  19.499  0.00  0.00    +0.000 A 
ATOM      7  N   UNL     1       2.999   7.253  18.354  0.00  0.00    +0.000 N 
ATOM      8  C   UNL     1       2.154   8.339  18.191  0.00  0.00    +0.000 A 
ATOM      9  O   UNL     1       2.106   9.020  17.169  0.00  0.00    +0.000 OA
ATOM     10  C   UNL     1       1.438   8.766  19.421  0.00  0.00    +0.000 A 
ATOM     11  C   UNL     1       0.882  10.164  19.474  0.00  0.00    +0.000 C 
ENDROOT
BRANCH   1  12
ATOM     12  C   UNL     1      -0.313  11.873  20.779  0.00  0.00    +0.000 C 
BRANCH  12  17
ATOM     13  C   UNL     1      -5.738  13.338  22.436  0.00  0.00    +0.000 C 
ATOM     14  C   UNL     1      -4.345  12.962  22.023  0.00  0.00    +0.000 A 
ATOM     15  C   UNL     1      -3.368  12.650  22.975  0.00  0.00    +0.000 A 
ATOM     16  C   UNL     1      -2.074  12.295  22.576  0.00  0.00    +0.000 A 
ATOM     17  C   UNL     1      -1.728  12.240  21.226  0.00  0.00    +0.000 A 
ATOM     18  C   UNL     1      -2.706  12.570  20.274  0.00  0.00    +0.000 A 
ATOM     19  C   UNL     1      -4.002  12.920  20.668  0.00  0.00    +0.000 A 
ENDBRANCH  12  17
ENDBRANCH   1  12
BRANCH   7  20
ATOM     20  C   UNL     1       4.001   6.947  17.337  0.00  0.00    +0.000 C 
BRANCH  20  21
ATOM     21  C   UNL     1       5.074   5.860  17.628  0.00  0.00    +0.000 C 
ATOM     22  O   UNL     1       6.136   6.193  18.168  0.00  0.00    +0.000 OA
ATOM     23  N   UNL     1       4.884   4.525  17.409  0.00  0.00    +0.000 N 
ATOM     24  H   UNL     1       5.631   3.948  17.780  0.00  0.00    +0.000 HD
BRANCH  23  25
ATOM     25  C   UNL     1       3.635   3.876  17.145  0.00  0.00    +0.000 C 
BRANCH  25  26
ATOM     26  C   UNL     1       2.900   3.324  18.320  0.00  0.00    +0.000 A 
ATOM     27  C   UNL     1       3.576   3.010  19.499  0.00  0.00    +0.000 A 
ATOM     28  C   UNL     1       2.851   2.706  20.647  0.00  0.00    +0.000 A 
ATOM     29  C   UNL     1       1.454   2.720  20.626  0.00  0.00    +0.000 A 
ATOM     30  C   UNL     1       0.773   3.029  19.450  0.00  0.00    +0.000 A 
ATOM     31  C   UNL     1       1.493   3.320  18.299  0.00  0.00    +0.000 A 
ENDBRANCH  25  26
ENDBRANCH  23  25
ENDBRANCH  20  21
ENDBRANCH   7  20
TORSDOF 6
ENDMDL
MODEL 7
REMARK VINA RESULT:      -7.5      0.877      1.250
REMARK  Name = 
REMARK  7 active torsions:
REMARK  status: ('A' for Active; 'I' for Inactive)
REMARK    1  A    between atoms: C_1  and  C_2
REMARK    2  A    between atoms: C_5  and  C_6
REMARK    3  A    between atoms: C_6  and  N_7
REMARK    4  A    between atoms: N_13  and  C_14
REMARK    5  A    between atoms: C_14  and  C_15
REMARK    6  A    between atoms: N_17  and  C_18
REMARK    7  A    between atoms: C_18  and  C_19
REMARK                            x       y       z     vdW  Elec       q    Type
REMARK                         _______ _______ _______ _____ _____    ______ ____
ROOT
ATOM      1  N   UNL     1       0.567   9.309  19.589  0.00  0.00    +0.000 NA
ATOM      2  C   UNL     1       0.873   8.872  20.953  0.00  0.00    +0.000 C 
ATOM      3  C   UNL     1       1.328   7.406  21.033  0.00  0.00    +0.000 C 
ATOM      4  C   UNL     1       2.309   7.019  19.956  0.00  0.00    +0.000 A 
ATOM      5  N   UNL     1       3.152   5.974  20.251  0.00  0.00    +0.000 NA
ATOM      6  C   UNL     1       4.104   5.731  19.413  0.00  0.00    +0.000 A 
ATOM      7  N   UNL     1       4.274   6.372  18.213  0.00  0.00    +0.000 N 
ATOM      8  C   UNL     1       3.343   7.309  17.791  0.00  0.00    +0.000 A 
ATOM      9  O   UNL     1       3.391   7.876  16.701  0.00  0.00    +0.000 OA
ATOM     10  C   UNL     1       2.377   7.746  18.831  0.00  0.00    +0.000 A 
ATOM     11  C   UNL     1       1.653   9.049  18.630  0.00  0.00    +0.000 C 
ENDROOT
BRANCH   1  12
ATOM     12  C   UNL     1       0.049  10.690  19.519  0.00  0.00    +0.000 C 
BRANCH  12  17
ATOM     13  C   UNL     1      -5.280  11.507  17.225  0.00  0.00    +0.000 C 
ATOM     14  C   UNL     1      -3.913  11.289  17.804  0.00  0.00    +0.000 A 
ATOM     15  C   UNL     1      -3.046  10.329  17.270  0.00  0.00    +0.000 A 
ATOM     16  C   UNL     1      -1.771  10.140  17.817  0.00  0.00    +0.000 A 
ATOM     17  C   UNL     1      -1.333  10.901  18.901  0.00  0.00    +0.000 A 
ATOM     18  C   UNL     1      -2.213  11.852  19.445  0.00  0.00    +0.000 A 
ATOM     19  C   UNL     1      -3.485  12.048  18.898  0.00  0.00    +0.000 A 
ENDBRANCH  12  17
ENDBRANCH   1  12
BRANCH   7  20
ATOM     20  C   UNL     1       5.468   6.115  17.412  0.00  0.00    +0.000 C 
BRANCH  20  21
ATOM     21  C   UNL     1       5.316   5.479  16.003  0.00  0.00    +0.000 C 
ATOM     22  O   UNL     1       5.661   6.129  15.008  0.00  0.00    +0.000 OA
ATOM     23  N   UNL     1       4.908   4.192  15.788  0.00  0.00    +0.000 N 
ATOM     24  H   UNL     1       4.996   3.901  14.821  0.00  0.00    +0.000 HD
BRANCH  23  25
ATOM     25  C   UNL     1       4.812   3.155  16.771  0.00  0.00    +0.000 C 
BRANCH  25  26
ATOM     26  C   UNL     1       3.553   3.099  17.570  0.00  0.00    +0.000 A 
ATOM     27  C   UNL     1       2.429   3.826  17.179  0.00  0.00    +0.000 A 
ATOM     28  C   UNL     1       1.208   3.594  17.806  0.00  0.00    +0.000 A 
ATOM     29  C   UNL     1       1.103   2.635  18.816  0.00  0.00    +0.000 A 
ATOM     30  C   UNL     1       2.223   1.909  19.213  0.00  0.00    +0.000 A 
ATOM     31  C   UNL     1       3.446   2.147  18.600  0.00  0.00    +0.000 A 
ENDBRANCH  25  26
ENDBRANCH  23  25
ENDBRANCH  20  21
ENDBRANCH   7  20
TORSDOF 6
ENDMDL
MODEL 8
REMARK VINA RESULT:      -7.5      1.812      2.464
REMARK  Name = 
REMARK  7 active torsions:
REMARK  status: ('A' for Active; 'I' for Inactive)
REMARK    1  A    between atoms: C_1  and  C_2
REMARK    2  A    between atoms: C_5  and  C_6
REMARK    3  A    between atoms: C_6  and  N_7
REMARK    4  A    between atoms: N_13  and  C_14
REMARK    5  A    between atoms: C_14  and  C_15
REMARK    6  A    between atoms: N_17  and  C_18
REMARK    7  A    between atoms: C_18  and  C_19
REMARK                            x       y       z     vdW  Elec       q    Type
REMARK                         _______ _______ _______ _____ _____    ______ ____
ROOT
ATOM      1  N   UNL     1       0.166  10.439  20.652  0.00  0.00    +0.000 NA
ATOM      2  C   UNL     1       0.657   9.765  21.857  0.00  0.00    +0.000 C 
ATOM      3  C   UNL     1       0.905   8.263  21.654  0.00  0.00    +0.000 C 
ATOM      4  C   UNL     1       1.602   7.935  20.358  0.00  0.00    +0.000 A 
ATOM      5  N   UNL     1       2.328   6.768  20.338  0.00  0.00    +0.000 NA
ATOM      6  C   UNL     1       3.061   6.549  19.298  0.00  0.00    +0.000 A 
ATOM      7  N   UNL     1       3.092   7.343  18.181  0.00  0.00    +0.000 N 
ATOM      8  C   UNL     1       2.242   8.433  18.082  0.00  0.00    +0.000 A 
ATOM      9  O   UNL     1       2.165   9.151  17.087  0.00  0.00    +0.000 OA
ATOM     10  C   UNL     1       1.561   8.813  19.346  0.00  0.00    +0.000 A 
ATOM     11  C   UNL     1       1.005  10.206  19.466  0.00  0.00    +0.000 C 
ENDROOT
BRANCH   1  12
ATOM     12  C   UNL     1      -0.154  11.864  20.867  0.00  0.00    +0.000 C 
BRANCH  12  17
ATOM     13  C   UNL     1      -5.708  13.195  22.174  0.00  0.00    +0.000 C 
ATOM     14  C   UNL     1      -4.287  12.856  21.827  0.00  0.00    +0.000 A 
ATOM     15  C   UNL     1      -3.843  12.874  20.501  0.00  0.00    +0.000 A 
ATOM     16  C   UNL     1      -2.514  12.561  20.192  0.00  0.00    +0.000 A 
ATOM     17  C   UNL     1      -1.602  12.227  21.194  0.00  0.00    +0.000 A 
ATOM     18  C   UNL     1      -2.057  12.193  22.523  0.00  0.00    +0.000 A 
ATOM     19  C   UNL     1      -3.383  12.511  22.836  0.00  0.00    +0.000 A 
ENDBRANCH  12  17
ENDBRANCH   1  12
BRANCH   7  20
ATOM     20  C   UNL     1       4.066   7.076  17.125  0.00  0.00    +0.000 C 
BRANCH  20  21
ATOM     21  C   UNL     1       5.253   6.114  17.410  0.00  0.00    +0.000 C 
ATOM     22  O   UNL     1       6.246   6.544  18.009  0.00  0.00    +0.000 OA
ATOM     23  N   UNL     1       5.236   4.778  17.122  0.00  0.00    +0.000 N 
ATOM     24  H   UNL     1       6.034   4.278  17.497  0.00  0.00    +0.000 HD
BRANCH  23  25
ATOM     25  C   UNL     1       4.086   3.998  16.776  0.00  0.00    +0.000 C 
BRANCH  25  26
ATOM     26  C   UNL     1       3.200   3.569  17.897  0.00  0.00    +0.000 A 
ATOM     27  C   UNL     1       1.816   3.519  17.731  0.00  0.00    +0.000 A 
ATOM     28  C   UNL     1       1.028   2.914  18.706  0.00  0.00    +0.000 A 
ATOM     29  C   UNL     1       1.615   2.355  19.843  0.00  0.00    +0.000 A 
ATOM     30  C   UNL     1       2.996   2.407  20.017  0.00  0.00    +0.000 A 
ATOM     31  C   UNL     1       3.785   3.021  19.053  0.00  0.00    +0.000 A 
ENDBRANCH  25  26
ENDBRANCH  23  25
ENDBRANCH  20  21
ENDBRANCH   7  20
TORSDOF 6
ENDMDL
MODEL 9
REMARK VINA RESULT:      -7.5      2.312      3.919
REMARK  Name = 
REMARK  7 active torsions:
REMARK  status: ('A' for Active; 'I' for Inactive)
REMARK    1  A    between atoms: C_1  and  C_2
REMARK    2  A    between atoms: C_5  and  C_6
REMARK    3  A    between atoms: C_6  and  N_7
REMARK    4  A    between atoms: N_13  and  C_14
REMARK    5  A    between atoms: C_14  and  C_15
REMARK    6  A    between atoms: N_17  and  C_18
REMARK    7  A    between atoms: C_18  and  C_19
REMARK                            x       y       z     vdW  Elec       q    Type
REMARK                         _______ _______ _______ _____ _____    ______ ____
ROOT
ATOM      1  N   UNL     1       1.393   8.916  18.933  0.00  0.00    +0.000 NA
ATOM      2  C   UNL     1       1.319   8.806  20.392  0.00  0.00    +0.000 C 
ATOM      3  C   UNL     1       1.133   7.362  20.883  0.00  0.00    +0.000 C 
ATOM      4  C   UNL     1       2.005   6.363  20.167  0.00  0.00    +0.000 A 
ATOM      5  N   UNL     1       2.312   5.217  20.863  0.00  0.00    +0.000 NA
ATOM      6  C   UNL     1       3.185   4.425  20.335  0.00  0.00    +0.000 A 
ATOM      7  N   UNL     1       3.751   4.595  19.098  0.00  0.00    +0.000 N 
ATOM      8  C   UNL     1       3.337   5.639  18.285  0.00  0.00    +0.000 A 
ATOM      9  O   UNL     1       3.748   5.817  17.140  0.00  0.00    +0.000 OA
ATOM     10  C   UNL     1       2.504   6.667  18.960  0.00  0.00    +0.000 A 
ATOM     11  C   UNL     1       2.396   8.027  18.326  0.00  0.00    +0.000 C 
ENDROOT
BRANCH   1  12
ATOM     12  C   UNL     1       1.486  10.310  18.455  0.00  0.00    +0.000 C 
BRANCH  12  17
ATOM     13  C   UNL     1      -2.295  14.228  20.616  0.00  0.00    +0.000 C 
ATOM     14  C   UNL     1      -1.317  13.230  20.068  0.00  0.00    +0.000 A 
ATOM     15  C   UNL     1       0.032  13.262  20.437  0.00  0.00    +0.000 A 
ATOM     16  C   UNL     1       0.932  12.321  19.924  0.00  0.00    +0.000 A 
ATOM     17  C   UNL     1       0.509  11.330  19.038  0.00  0.00    +0.000 A 
ATOM     18  C   UNL     1      -0.843  11.311  18.656  0.00  0.00    +0.000 A 
ATOM     19  C   UNL     1      -1.747  12.246  19.172  0.00  0.00    +0.000 A 
ENDBRANCH  12  17
ENDBRANCH   1  12
BRANCH   7  20
ATOM     20  C   UNL     1       4.833   3.715  18.665  0.00  0.00    +0.000 C 
BRANCH  20  21
ATOM     21  C   UNL     1       6.159   4.338  18.146  0.00  0.00    +0.000 C 
ATOM     22  O   UNL     1       7.013   4.702  18.964  0.00  0.00    +0.000 OA
ATOM     23  N   UNL     1       6.493   4.427  16.824  0.00  0.00    +0.000 N 
ATOM     24  H   UNL     1       7.447   4.733  16.671  0.00  0.00    +0.000 HD
BRANCH  23  25
ATOM     25  C   UNL     1       5.847   3.753  15.737  0.00  0.00    +0.000 C 
BRANCH  25  26
ATOM     26  C   UNL     1       6.282   4.125  14.359  0.00  0.00    +0.000 A 
ATOM     27  C   UNL     1       7.320   5.036  14.162  0.00  0.00    +0.000 A 
ATOM     28  C   UNL     1       7.854   5.205  12.889  0.00  0.00    +0.000 A 
ATOM     29  C   UNL     1       7.361   4.464  11.812  0.00  0.00    +0.000 A 
ATOM     30  C   UNL     1       6.322   3.556  12.001  0.00  0.00    +0.000 A 
ATOM     31  C   UNL     1       5.777   3.395  13.268  0.00  0.00    +0.000 A 
ENDBRANCH  25  26
ENDBRANCH  23  25
ENDBRANCH  20  21
ENDBRANCH   7  20
TORSDOF 6
ENDMDL
