MODEL 1
REMARK VINA RESULT:      -7.4      0.000      0.000
REMARK  Name = 
REMARK  7 active torsions:
REMARK  status: ('A' for Active; 'I' for Inactive)
REMARK    1  A    between atoms: C_1  and  C_2
REMARK    2  A    between atoms: C_2  and  C_3
REMARK    3  A    between atoms: C_2  and  C_4
REMARK    4  A    between atoms: C_2  and  C_5
REMARK    5  A    between atoms: C_8  and  C_9
REMARK    6  A    between atoms: C_9  and  S_10
REMARK    7  A    between atoms: S_10  and  C_11
REMARK                            x       y       z     vdW  Elec       q    Type
REMARK                         _______ _______ _______ _____ _____    ______ ____
ROOT
ATOM      1  C   UNL     1       1.896   4.386  19.087  0.00  0.00    +0.000 A 
ATOM      2  C   UNL     1       1.626   4.626  20.413  0.00  0.00    +0.000 A 
ATOM      3  N   UNL     1       1.655   5.951  20.792  0.00  0.00    +0.000 NA
ATOM      4  C   UNL     1       1.906   6.723  19.761  0.00  0.00    +0.000 A 
ATOM      5  N   UNL     1       1.926   8.080  19.763  0.00  0.00    +0.000 N 
ATOM      6  C   UNL     1       1.231   8.895  20.657  0.00  0.00    +0.000 A 
ATOM      7  C   UNL     1       0.901   8.513  21.958  0.00  0.00    +0.000 A 
ATOM      8  C   UNL     1       0.111   9.342  22.746  0.00  0.00    +0.000 A 
ATOM      9  C   UNL     1      -0.308  10.558  22.236  0.00  0.00    +0.000 A 
ATOM     10  C   UNL     1       0.104  10.898  20.960  0.00  0.00    +0.000 A 
ATOM     11  N   UNL     1       0.860  10.101  20.169  0.00  0.00    +0.000 NA
ATOM     12  S   UNL     1       2.196   5.867  18.288  0.00  0.00    +0.000 S 
ATOM     13  H   UNL     1       1.999   8.560  18.876  0.00  0.00    +0.000 HD
ENDROOT
BRANCH   1  14
ATOM     14  S   UNL     1       1.906   2.821  18.305  0.00  0.00    +0.000 S 
BRANCH  14  15
ATOM     15  C   UNL     1       3.586   2.244  18.695  0.00  0.00    +0.000 C 
BRANCH  15  19
ATOM     16  C   UNL     1       5.802   4.864  17.714  0.00  0.00    +0.000 A 
ATOM     17  C   UNL     1       6.024   4.838  19.075  0.00  0.00    +0.000 A 
ATOM     18  N   UNL     1       5.259   3.872  19.667  0.00  0.00    +0.000 NA
ATOM     19  C   UNL     1       4.589   3.340  18.662  0.00  0.00    +0.000 A 
ATOM     20  O   UNL     1       4.884   3.884  17.437  0.00  0.00    +0.000 OA
BRANCH  16  22
ATOM     21  C   UNL     1       7.336   6.734  17.085  0.00  0.00    +0.000 C 
ATOM     22  C   UNL     1       6.330   5.687  16.571  0.00  0.00    +0.000 C 
ATOM     23  C   UNL     1       5.175   6.423  15.869  0.00  0.00    +0.000 C 
ATOM     24  C   UNL     1       7.045   4.781  15.553  0.00  0.00    +0.000 C 
ENDBRANCH  16  22
ENDBRANCH  15  19
ENDBRANCH  14  15
ENDBRANCH   1  14
TORSDOF 4
ENDMDL
MODEL 2
REMARK VINA RESULT:      -7.3      0.580      1.177
REMARK  Name = 
REMARK  7 active torsions:
REMARK  status: ('A' for Active; 'I' for Inactive)
REMARK    1  A    between atoms: C_1  and  C_2
REMARK    2  A    between atoms: C_2  and  C_3
REMARK    3  A    between atoms: C_2  and  C_4
REMARK    4  A    between atoms: C_2  and  C_5
REMARK    5  A    between atoms: C_8  and  C_9
REMARK    6  A    between atoms: C_9  and  S_10
REMARK    7  A    between atoms: S_10  and  C_11
REMARK                            x       y       z     vdW  Elec       q    Type
REMARK                         _______ _______ _______ _____ _____    ______ ____
ROOT
ATOM      1  C   UNL     1       1.778   4.306  19.235  0.00  0.00    +0.000 A 
ATOM      2  C   UNL     1       1.553   4.626  20.551  0.00  0.00    +0.000 A 
ATOM      3  N   UNL     1       1.621   5.969  20.853  0.00  0.00    +0.000 NA
ATOM      4  C   UNL     1       1.858   6.677  19.773  0.00  0.00    +0.000 A 
ATOM      5  N   UNL     1       1.908   8.031  19.697  0.00  0.00    +0.000 N 
ATOM      6  C   UNL     1       1.257   8.911  20.562  0.00  0.00    +0.000 A 
ATOM      7  C   UNL     1       0.957   8.610  21.892  0.00  0.00    +0.000 A 
ATOM      8  C   UNL     1       0.208   9.501  22.653  0.00  0.00    +0.000 A 
ATOM      9  C   UNL     1      -0.199  10.695  22.087  0.00  0.00    +0.000 A 
ATOM     10  C   UNL     1       0.182  10.953  20.782  0.00  0.00    +0.000 A 
ATOM     11  N   UNL     1       0.897  10.095  20.017  0.00  0.00    +0.000 NA
ATOM     12  S   UNL     1       2.086   5.733  18.343  0.00  0.00    +0.000 S 
ATOM     13  H   UNL     1       1.964   8.458  18.782  0.00  0.00    +0.000 HD
ENDROOT
BRANCH   1  14
ATOM     14  S   UNL     1       1.732   2.700  18.543  0.00  0.00    +0.000 S 
BRANCH  14  15
ATOM     15  C   UNL     1       3.424   2.124  18.876  0.00  0.00    +0.000 C 
BRANCH  15  19
ATOM     16  C   UNL     1       5.533   4.443  17.168  0.00  0.00    +0.000 A 
ATOM     17  C   UNL     1       6.009   4.567  18.457  0.00  0.00    +0.000 A 
ATOM     18  N   UNL     1       5.326   3.735  19.302  0.00  0.00    +0.000 NA
ATOM     19  C   UNL     1       4.453   3.135  18.516  0.00  0.00    +0.000 A 
ATOM     20  O   UNL     1       4.534   3.504  17.196  0.00  0.00    +0.000 OA
BRANCH  16  22
ATOM     21  C   UNL     1       5.336   4.224  14.686  0.00  0.00    +0.000 C 
ATOM     22  C   UNL     1       5.870   5.082  15.849  0.00  0.00    +0.000 C 
ATOM     23  C   UNL     1       7.396   5.214  15.698  0.00  0.00    +0.000 C 
ATOM     24  C   UNL     1       5.231   6.478  15.759  0.00  0.00    +0.000 C 
ENDBRANCH  16  22
ENDBRANCH  15  19
ENDBRANCH  14  15
ENDBRANCH   1  14
TORSDOF 4
ENDMDL
MODEL 3
REMARK VINA RESULT:      -6.9      4.282      7.175
REMARK  Name = 
REMARK  7 active torsions:
REMARK  status: ('A' for Active; 'I' for Inactive)
REMARK    1  A    between atoms: C_1  and  C_2
REMARK    2  A    between atoms: C_2  and  C_3
REMARK    3  A    between atoms: C_2  and  C_4
REMARK    4  A    between atoms: C_2  and  C_5
REMARK    5  A    between atoms: C_8  and  C_9
REMARK    6  A    between atoms: C_9  and  S_10
REMARK    7  A    between atoms: S_10  and  C_11
REMARK                            x       y       z     vdW  Elec       q    Type
REMARK                         _______ _______ _______ _____ _____    ______ ____
ROOT
ATOM      1  C   UNL     1       7.374   6.284  17.485  0.00  0.00    +0.000 A 
ATOM      2  C   UNL     1       7.123   7.466  16.832  0.00  0.00    +0.000 A 
ATOM      3  N   UNL     1       7.595   8.600  17.457  0.00  0.00    +0.000 NA
ATOM      4  C   UNL     1       8.235   8.289  18.561  0.00  0.00    +0.000 A 
ATOM      5  N   UNL     1       8.892   9.152  19.376  0.00  0.00    +0.000 N 
ATOM      6  C   UNL     1       9.433  10.377  18.984  0.00  0.00    +0.000 A 
ATOM      7  C   UNL     1       8.930  11.146  17.933  0.00  0.00    +0.000 A 
ATOM      8  C   UNL     1       9.596  12.300  17.537  0.00  0.00    +0.000 A 
ATOM      9  C   UNL     1      10.735  12.690  18.219  0.00  0.00    +0.000 A 
ATOM     10  C   UNL     1      11.145  11.911  19.286  0.00  0.00    +0.000 A 
ATOM     11  N   UNL     1      10.522  10.776  19.680  0.00  0.00    +0.000 NA
ATOM     12  S   UNL     1       8.228   6.601  18.933  0.00  0.00    +0.000 S 
ATOM     13  H   UNL     1       9.458   8.771  20.121  0.00  0.00    +0.000 HD
ENDROOT
BRANCH   1  14
ATOM     14  S   UNL     1       6.928   4.686  16.932  0.00  0.00    +0.000 S 
BRANCH  14  15
ATOM     15  C   UNL     1       5.311   5.016  16.168  0.00  0.00    +0.000 C 
BRANCH  15  19
ATOM     16  C   UNL     1       2.774   4.561  18.638  0.00  0.00    +0.000 A 
ATOM     17  C   UNL     1       2.767   5.935  18.515  0.00  0.00    +0.000 A 
ATOM     18  N   UNL     1       3.687   6.338  17.587  0.00  0.00    +0.000 NA
ATOM     19  C   UNL     1       4.233   5.210  17.174  0.00  0.00    +0.000 A 
ATOM     20  O   UNL     1       3.712   4.083  17.759  0.00  0.00    +0.000 OA
BRANCH  16  22
ATOM     21  C   UNL     1       1.071   2.732  18.591  0.00  0.00    +0.000 C 
ATOM     22  C   UNL     1       2.016   3.569  19.476  0.00  0.00    +0.000 C 
ATOM     23  C   UNL     1       1.171   4.303  20.533  0.00  0.00    +0.000 C 
ATOM     24  C   UNL     1       2.994   2.616  20.183  0.00  0.00    +0.000 C 
ENDBRANCH  16  22
ENDBRANCH  15  19
ENDBRANCH  14  15
ENDBRANCH   1  14
TORSDOF 4
ENDMDL
MODEL 4
REMARK VINA RESULT:      -6.9      5.286      8.082
REMARK  Name = 
REMARK  7 active torsions:
REMARK  status: ('A' for Active; 'I' for Inactive)
REMARK    1  A    between atoms: C_1  and  C_2
REMARK    2  A    between atoms: C_2  and  C_3
REMARK    3  A    between atoms: C_2  and  C_4
REMARK    4  A    between atoms: C_2  and  C_5
REMARK    5  A    between atoms: C_8  and  C_9
REMARK    6  A    between atoms: C_9  and  S_10
REMARK    7  A    between atoms: S_10  and  C_11
REMARK                            x       y       z     vdW  Elec       q    Type
REMARK                         _______ _______ _______ _____ _____    ______ ____
ROOT
ATOM      1  C   UNL     1       7.271   7.517  17.657  0.00  0.00    +0.000 A 
ATOM      2  C   UNL     1       6.182   7.131  16.915  0.00  0.00    +0.000 A 
ATOM      3  N   UNL     1       5.696   5.871  17.189  0.00  0.00    +0.000 NA
ATOM      4  C   UNL     1       6.380   5.310  18.159  0.00  0.00    +0.000 A 
ATOM      5  N   UNL     1       6.120   4.108  18.732  0.00  0.00    +0.000 N 
ATOM      6  C   UNL     1       4.869   3.490  18.776  0.00  0.00    +0.000 A 
ATOM      7  C   UNL     1       3.876   3.682  17.814  0.00  0.00    +0.000 A 
ATOM      8  C   UNL     1       2.619   3.115  17.992  0.00  0.00    +0.000 A 
ATOM      9  C   UNL     1       2.383   2.334  19.109  0.00  0.00    +0.000 A 
ATOM     10  C   UNL     1       3.430   2.139  19.992  0.00  0.00    +0.000 A 
ATOM     11  N   UNL     1       4.657   2.693  19.848  0.00  0.00    +0.000 NA
ATOM     12  S   UNL     1       7.702   6.262  18.735  0.00  0.00    +0.000 S 
ATOM     13  H   UNL     1       6.639   3.849  19.560  0.00  0.00    +0.000 HD
ENDROOT
BRANCH   1  14
ATOM     14  S   UNL     1       8.090   9.060  17.558  0.00  0.00    +0.000 S 
BRANCH  14  15
ATOM     15  C   UNL     1       8.985   9.085  19.142  0.00  0.00    +0.000 C 
BRANCH  15  19
ATOM     16  C   UNL     1      10.200  12.440  19.186  0.00  0.00    +0.000 A 
ATOM     17  C   UNL     1       9.876  12.269  20.516  0.00  0.00    +0.000 A 
ATOM     18  N   UNL     1       9.383  11.011  20.730  0.00  0.00    +0.000 NA
ATOM     19  C   UNL     1       9.412  10.453  19.535  0.00  0.00    +0.000 A 
ATOM     20  O   UNL     1       9.917  11.261  18.547  0.00  0.00    +0.000 OA
BRANCH  16  22
ATOM     21  C   UNL     1      11.303  13.049  17.027  0.00  0.00    +0.000 C 
ATOM     22  C   UNL     1      10.759  13.574  18.370  0.00  0.00    +0.000 C 
ATOM     23  C   UNL     1      11.911  14.257  19.129  0.00  0.00    +0.000 C 
ATOM     24  C   UNL     1       9.659  14.609  18.080  0.00  0.00    +0.000 C 
ENDBRANCH  16  22
ENDBRANCH  15  19
ENDBRANCH  14  15
ENDBRANCH   1  14
TORSDOF 4
ENDMDL
MODEL 5
REMARK VINA RESULT:      -6.9      4.295      7.233
REMARK  Name = 
REMARK  7 active torsions:
REMARK  status: ('A' for Active; 'I' for Inactive)
REMARK    1  A    between atoms: C_1  and  C_2
REMARK    2  A    between atoms: C_2  and  C_3
REMARK    3  A    between atoms: C_2  and  C_4
REMARK    4  A    between atoms: C_2  and  C_5
REMARK    5  A    between atoms: C_8  and  C_9
REMARK    6  A    between atoms: C_9  and  S_10
REMARK    7  A    between atoms: S_10  and  C_11
REMARK                            x       y       z     vdW  Elec       q    Type
REMARK                         _______ _______ _______ _____ _____    ______ ____
ROOT
ATOM      1  C   UNL     1       7.351   6.323  17.543  0.00  0.00    +0.000 A 
ATOM      2  C   UNL     1       7.078   7.503  16.895  0.00  0.00    +0.000 A 
ATOM      3  N   UNL     1       7.569   8.639  17.502  0.00  0.00    +0.000 NA
ATOM      4  C   UNL     1       8.246   8.332  18.584  0.00  0.00    +0.000 A 
ATOM      5  N   UNL     1       8.929   9.197  19.375  0.00  0.00    +0.000 N 
ATOM      6  C   UNL     1       9.456  10.422  18.962  0.00  0.00    +0.000 A 
ATOM      7  C   UNL     1       8.918  11.187  17.927  0.00  0.00    +0.000 A 
ATOM      8  C   UNL     1       9.570  12.341  17.505  0.00  0.00    +0.000 A 
ATOM      9  C   UNL     1      10.730  12.733  18.148  0.00  0.00    +0.000 A 
ATOM     10  C   UNL     1      11.176  11.957  19.203  0.00  0.00    +0.000 A 
ATOM     11  N   UNL     1      10.567  10.823  19.621  0.00  0.00    +0.000 NA
ATOM     12  S   UNL     1       8.253   6.645  18.960  0.00  0.00    +0.000 S 
ATOM     13  H   UNL     1       9.521   8.818  20.102  0.00  0.00    +0.000 HD
ENDROOT
BRANCH   1  14
ATOM     14  S   UNL     1       6.888   4.723  17.009  0.00  0.00    +0.000 S 
BRANCH  14  15
ATOM     15  C   UNL     1       5.101   4.942  16.750  0.00  0.00    +0.000 C 
BRANCH  15  19
ATOM     16  C   UNL     1       2.938   3.397  19.132  0.00  0.00    +0.000 A 
ATOM     17  C   UNL     1       3.281   2.310  18.355  0.00  0.00    +0.000 A 
ATOM     18  N   UNL     1       4.136   2.685  17.356  0.00  0.00    +0.000 NA
ATOM     19  C   UNL     1       4.288   3.982  17.541  0.00  0.00    +0.000 A 
ATOM     20  O   UNL     1       3.600   4.482  18.619  0.00  0.00    +0.000 OA
BRANCH  16  22
ATOM     21  C   UNL     1       2.059   5.088  20.748  0.00  0.00    +0.000 C 
ATOM     22  C   UNL     1       2.056   3.604  20.332  0.00  0.00    +0.000 C 
ATOM     23  C   UNL     1       2.563   2.763  21.516  0.00  0.00    +0.000 C 
ATOM     24  C   UNL     1       0.610   3.194  20.002  0.00  0.00    +0.000 C 
ENDBRANCH  16  22
ENDBRANCH  15  19
ENDBRANCH  14  15
ENDBRANCH   1  14
TORSDOF 4
ENDMDL
MODEL 6
REMARK VINA RESULT:      -6.8      4.680      7.198
REMARK  Name = 
REMARK  7 active torsions:
REMARK  status: ('A' for Active; 'I' for Inactive)
REMARK    1  A    between atoms: C_1  and  C_2
REMARK    2  A    between atoms: C_2  and  C_3
REMARK    3  A    between atoms: C_2  and  C_4
REMARK    4  A    between atoms: C_2  and  C_5
REMARK    5  A    between atoms: C_8  and  C_9
REMARK    6  A    between atoms: C_9  and  S_10
REMARK    7  A    between atoms: S_10  and  C_11
REMARK                            x       y       z     vdW  Elec       q    Type
REMARK                         _______ _______ _______ _____ _____    ______ ____
ROOT
ATOM      1  C   UNL     1       6.547   6.306  17.539  0.00  0.00    +0.000 A 
ATOM      2  C   UNL     1       5.330   5.985  16.988  0.00  0.00    +0.000 A 
ATOM      3  N   UNL     1       4.638   4.979  17.628  0.00  0.00    +0.000 NA
ATOM      4  C   UNL     1       5.298   4.558  18.682  0.00  0.00    +0.000 A 
ATOM      5  N   UNL     1       4.870   3.636  19.580  0.00  0.00    +0.000 N 
ATOM      6  C   UNL     1       3.534   3.340  19.856  0.00  0.00    +0.000 A 
ATOM      7  C   UNL     1       2.501   3.484  18.929  0.00  0.00    +0.000 A 
ATOM      8  C   UNL     1       1.184   3.272  19.320  0.00  0.00    +0.000 A 
ATOM      9  C   UNL     1       0.920   2.884  20.621  0.00  0.00    +0.000 A 
ATOM     10  C   UNL     1       1.997   2.705  21.470  0.00  0.00    +0.000 A 
ATOM     11  N   UNL     1       3.286   2.920  21.117  0.00  0.00    +0.000 NA
ATOM     12  S   UNL     1       6.836   5.316  18.903  0.00  0.00    +0.000 S 
ATOM     13  H   UNL     1       5.414   3.498  20.421  0.00  0.00    +0.000 HD
ENDROOT
BRANCH   1  14
ATOM     14  S   UNL     1       7.638   7.551  16.972  0.00  0.00    +0.000 S 
BRANCH  14  15
ATOM     15  C   UNL     1       8.282   8.196  18.546  0.00  0.00    +0.000 C 
BRANCH  15  19
ATOM     16  C   UNL     1       9.634  11.451  19.108  0.00  0.00    +0.000 A 
ATOM     17  C   UNL     1       8.871  11.683  17.982  0.00  0.00    +0.000 A 
ATOM     18  N   UNL     1       8.239  10.536  17.588  0.00  0.00    +0.000 NA
ATOM     19  C   UNL     1       8.635   9.638  18.470  0.00  0.00    +0.000 A 
ATOM     20  O   UNL     1       9.473  10.130  19.439  0.00  0.00    +0.000 OA
BRANCH  16  22
ATOM     21  C   UNL     1      11.980  11.775  19.906  0.00  0.00    +0.000 C 
ATOM     22  C   UNL     1      10.531  12.296  19.971  0.00  0.00    +0.000 C 
ATOM     23  C   UNL     1      10.059  12.247  21.435  0.00  0.00    +0.000 C 
ATOM     24  C   UNL     1      10.515  13.754  19.482  0.00  0.00    +0.000 C 
ENDBRANCH  16  22
ENDBRANCH  15  19
ENDBRANCH  14  15
ENDBRANCH   1  14
TORSDOF 4
ENDMDL
MODEL 7
REMARK VINA RESULT:      -6.7      4.725      9.403
REMARK  Name = 
REMARK  7 active torsions:
REMARK  status: ('A' for Active; 'I' for Inactive)
REMARK    1  A    between atoms: C_1  and  C_2
REMARK    2  A    between atoms: C_2  and  C_3
REMARK    3  A    between atoms: C_2  and  C_4
REMARK    4  A    between atoms: C_2  and  C_5
REMARK    5  A    between atoms: C_8  and  C_9
REMARK    6  A    between atoms: C_9  and  S_10
REMARK    7  A    between atoms: S_10  and  C_11
REMARK                            x       y       z     vdW  Elec       q    Type
REMARK                         _______ _______ _______ _____ _____    ______ ____
ROOT
ATOM      1  C   UNL     1       0.262  10.190  20.585  0.00  0.00    +0.000 A 
ATOM      2  C   UNL     1       0.884   9.856  19.407  0.00  0.00    +0.000 A 
ATOM      3  N   UNL     1       1.583   8.668  19.423  0.00  0.00    +0.000 NA
ATOM      4  C   UNL     1       1.468   8.077  20.589  0.00  0.00    +0.000 A 
ATOM      5  N   UNL     1       1.961   6.858  20.922  0.00  0.00    +0.000 N 
ATOM      6  C   UNL     1       2.224   5.823  20.024  0.00  0.00    +0.000 A 
ATOM      7  C   UNL     1       2.567   6.026  18.686  0.00  0.00    +0.000 A 
ATOM      8  C   UNL     1       2.704   4.938  17.832  0.00  0.00    +0.000 A 
ATOM      9  C   UNL     1       2.533   3.660  18.334  0.00  0.00    +0.000 A 
ATOM     10  C   UNL     1       2.250   3.530  19.681  0.00  0.00    +0.000 A 
ATOM     11  N   UNL     1       2.096   4.575  20.529  0.00  0.00    +0.000 NA
ATOM     12  S   UNL     1       0.563   8.978  21.754  0.00  0.00    +0.000 S 
ATOM     13  H   UNL     1       1.690   6.456  21.809  0.00  0.00    +0.000 HD
ENDROOT
BRANCH   1  14
ATOM     14  S   UNL     1      -0.716  11.613  20.866  0.00  0.00    +0.000 S 
BRANCH  14  15
ATOM     15  C   UNL     1      -1.042  12.159  19.162  0.00  0.00    +0.000 C 
BRANCH  15  19
ATOM     16  C   UNL     1      -4.433  11.428  18.323  0.00  0.00    +0.000 A 
ATOM     17  C   UNL     1      -3.774  10.466  17.585  0.00  0.00    +0.000 A 
ATOM     18  N   UNL     1      -2.423  10.562  17.770  0.00  0.00    +0.000 NA
ATOM     19  C   UNL     1      -2.290  11.576  18.604  0.00  0.00    +0.000 A 
ATOM     20  O   UNL     1      -3.477  12.142  18.998  0.00  0.00    +0.000 OA
BRANCH  16  22
ATOM     21  C   UNL     1      -6.743  10.553  18.701  0.00  0.00    +0.000 C 
ATOM     22  C   UNL     1      -5.874  11.812  18.515  0.00  0.00    +0.000 C 
ATOM     23  C   UNL     1      -6.388  12.582  17.285  0.00  0.00    +0.000 C 
ATOM     24  C   UNL     1      -6.024  12.697  19.764  0.00  0.00    +0.000 C 
ENDBRANCH  16  22
ENDBRANCH  15  19
ENDBRANCH  14  15
ENDBRANCH   1  14
TORSDOF 4
ENDMDL
MODEL 8
REMARK VINA RESULT:      -6.7      4.461      9.153
REMARK  Name = 
REMARK  7 active torsions:
REMARK  status: ('A' for Active; 'I' for Inactive)
REMARK    1  A    between atoms: C_1  and  C_2
REMARK    2  A    between atoms: C_2  and  C_3
REMARK    3  A    between atoms: C_2  and  C_4
REMARK    4  A    between atoms: C_2  and  C_5
REMARK    5  A    between atoms: C_8  and  C_9
REMARK    6  A    between atoms: C_9  and  S_10
REMARK    7  A    between atoms: S_10  and  C_11
REMARK                            x       y       z     vdW  Elec       q    Type
REMARK                         _______ _______ _______ _____ _____    ______ ____
ROOT
ATOM      1  C   UNL     1       1.314   9.967  18.931  0.00  0.00    +0.000 A 
ATOM      2  C   UNL     1       1.833   9.138  17.967  0.00  0.00    +0.000 A 
ATOM      3  N   UNL     1       2.162   7.869  18.392  0.00  0.00    +0.000 NA
ATOM      4  C   UNL     1       1.864   7.712  19.661  0.00  0.00    +0.000 A 
ATOM      5  N   UNL     1       1.982   6.565  20.376  0.00  0.00    +0.000 N 
ATOM      6  C   UNL     1       1.952   5.276  19.843  0.00  0.00    +0.000 A 
ATOM      7  C   UNL     1       2.361   4.965  18.545  0.00  0.00    +0.000 A 
ATOM      8  C   UNL     1       2.195   3.675  18.055  0.00  0.00    +0.000 A 
ATOM      9  C   UNL     1       1.656   2.704  18.881  0.00  0.00    +0.000 A 
ATOM     10  C   UNL     1       1.326   3.069  20.174  0.00  0.00    +0.000 A 
ATOM     11  N   UNL     1       1.464   4.322  20.668  0.00  0.00    +0.000 NA
ATOM     12  S   UNL     1       1.236   9.132  20.422  0.00  0.00    +0.000 S 
ATOM     13  H   UNL     1       1.592   6.540  21.309  0.00  0.00    +0.000 HD
ENDROOT
BRANCH   1  14
ATOM     14  S   UNL     1       0.779  11.615  18.693  0.00  0.00    +0.000 S 
BRANCH  14  15
ATOM     15  C   UNL     1      -0.727  11.647  19.712  0.00  0.00    +0.000 C 
BRANCH  15  19
ATOM     16  C   UNL     1      -4.023  11.329  18.381  0.00  0.00    +0.000 A 
ATOM     17  C   UNL     1      -3.368  10.338  17.679  0.00  0.00    +0.000 A 
ATOM     18  N   UNL     1      -2.053  10.279  18.050  0.00  0.00    +0.000 NA
ATOM     19  C   UNL     1      -1.937  11.230  18.956  0.00  0.00    +0.000 A 
ATOM     20  O   UNL     1      -3.104  11.901  19.222  0.00  0.00    +0.000 OA
BRANCH  16  22
ATOM     21  C   UNL     1      -6.427  10.712  18.673  0.00  0.00    +0.000 C 
ATOM     22  C   UNL     1      -5.432  11.856  18.402  0.00  0.00    +0.000 C 
ATOM     23  C   UNL     1      -5.780  12.495  17.046  0.00  0.00    +0.000 C 
ATOM     24  C   UNL     1      -5.585  12.910  19.512  0.00  0.00    +0.000 C 
ENDBRANCH  16  22
ENDBRANCH  15  19
ENDBRANCH  14  15
ENDBRANCH   1  14
TORSDOF 4
ENDMDL
MODEL 9
REMARK VINA RESULT:      -6.6      3.485      9.167
REMARK  Name = 
REMARK  7 active torsions:
REMARK  status: ('A' for Active; 'I' for Inactive)
REMARK    1  A    between atoms: C_1  and  C_2
REMARK    2  A    between atoms: C_2  and  C_3
REMARK    3  A    between atoms: C_2  and  C_4
REMARK    4  A    between atoms: C_2  and  C_5
REMARK    5  A    between atoms: C_8  and  C_9
REMARK    6  A    between atoms: C_9  and  S_10
REMARK    7  A    between atoms: S_10  and  C_11
REMARK                            x       y       z     vdW  Elec       q    Type
REMARK                         _______ _______ _______ _____ _____    ______ ____
ROOT
ATOM      1  C   UNL     1       1.353   9.167  18.908  0.00  0.00    +0.000 A 
ATOM      2  C   UNL     1       1.994   8.605  17.831  0.00  0.00    +0.000 A 
ATOM      3  N   UNL     1       2.671   7.434  18.091  0.00  0.00    +0.000 NA
ATOM      4  C   UNL     1       2.521   7.079  19.346  0.00  0.00    +0.000 A 
ATOM      5  N   UNL     1       2.986   5.939  19.917  0.00  0.00    +0.000 N 
ATOM      6  C   UNL     1       3.250   4.748  19.240  0.00  0.00    +0.000 A 
ATOM      7  C   UNL     1       3.626   4.687  17.897  0.00  0.00    +0.000 A 
ATOM      8  C   UNL     1       3.763   3.454  17.270  0.00  0.00    +0.000 A 
ATOM      9  C   UNL     1       3.558   2.298  18.003  0.00  0.00    +0.000 A 
ATOM     10  C   UNL     1       3.244   2.432  19.343  0.00  0.00    +0.000 A 
ATOM     11  N   UNL     1       3.090   3.621  19.971  0.00  0.00    +0.000 NA
ATOM     12  S   UNL     1       1.607   8.198  20.294  0.00  0.00    +0.000 S 
ATOM     13  H   UNL     1       2.688   5.719  20.858  0.00  0.00    +0.000 HD
ENDROOT
BRANCH   1  14
ATOM     14  S   UNL     1       0.393  10.630  18.888  0.00  0.00    +0.000 S 
BRANCH  14  15
ATOM     15  C   UNL     1       1.026  11.486  20.362  0.00  0.00    +0.000 C 
BRANCH  15  19
ATOM     16  C   UNL     1      -1.548  12.232  22.720  0.00  0.00    +0.000 A 
ATOM     17  C   UNL     1      -1.112  11.011  23.194  0.00  0.00    +0.000 A 
ATOM     18  N   UNL     1      -0.092  10.532  22.420  0.00  0.00    +0.000 NA
ATOM     19  C   UNL     1       0.064  11.461  21.496  0.00  0.00    +0.000 A 
ATOM     20  O   UNL     1      -0.778  12.536  21.627  0.00  0.00    +0.000 OA
BRANCH  16  22
ATOM     21  C   UNL     1      -3.246  13.869  21.896  0.00  0.00    +0.000 C 
ATOM     22  C   UNL     1      -2.611  13.211  23.136  0.00  0.00    +0.000 C 
ATOM     23  C   UNL     1      -2.001  14.315  24.017  0.00  0.00    +0.000 C 
ATOM     24  C   UNL     1      -3.716  12.488  23.925  0.00  0.00    +0.000 C 
ENDBRANCH  16  22
ENDBRANCH  15  19
ENDBRANCH  14  15
ENDBRANCH   1  14
TORSDOF 4
ENDMDL
