MODEL 1
REMARK VINA RESULT:      -8.6      0.000      0.000
REMARK  Name = 
REMARK  5 active torsions:
REMARK  status: ('A' for Active; 'I' for Inactive)
REMARK    1  A    between atoms: C_1  and  N_2
REMARK    2  A    between atoms: N_2  and  C_3
REMARK    3  A    between atoms: N_2  and  C_4
REMARK    4  A    between atoms: C_8  and  C_9
REMARK    5  A    between atoms: C_12  and  C_13
REMARK                            x       y       z     vdW  Elec       q    Type
REMARK                         _______ _______ _______ _____ _____    ______ ____
ROOT
ATOM      1  C   UNL     1       2.261   7.710  18.734  0.00  0.00    +0.000 A 
ATOM      2  C   UNL     1       1.766   7.910  20.028  0.00  0.00    +0.000 A 
ATOM      3  C   UNL     1       0.894   8.964  20.312  0.00  0.00    +0.000 A 
ATOM      4  C   UNL     1       0.493   9.863  19.317  0.00  0.00    +0.000 A 
ATOM      5  C   UNL     1       0.974   9.668  18.019  0.00  0.00    +0.000 A 
ATOM      6  C   UNL     1       1.844   8.613  17.739  0.00  0.00    +0.000 A 
ENDROOT
BRANCH   4   7
ATOM      7  C   UNL     1      -0.460  11.018  19.597  0.00  0.00    +0.000 C 
ATOM      8  C   UNL     1      -0.309  12.194  18.606  0.00  0.00    +0.000 C 
ATOM      9  C   UNL     1       0.744  13.200  18.972  0.00  0.00    +0.000 C 
ATOM     10  C   UNL     1       0.540  14.522  19.055  0.00  0.00    +0.000 C 
ATOM     11  C   UNL     1       1.569  15.452  19.635  0.00  0.00    +0.000 C 
ATOM     12  C   UNL     1       0.956  16.384  20.673  0.00  0.00    +0.000 C 
ATOM     13  C   UNL     1       0.756  15.694  21.999  0.00  0.00    +0.000 C 
ATOM     14  O   UNL     1       1.499  15.851  22.959  0.00  0.00    +0.000 OA
ATOM     15  O   UNL     1      -0.358  14.906  21.988  0.00  0.00    +0.000 OA
ATOM     16  C   UNL     1      -0.585  14.213  23.222  0.00  0.00    +0.000 C 
ATOM     17  C   UNL     1      -1.901  13.435  23.149  0.00  0.00    +0.000 C 
ATOM     18  C   UNL     1      -1.706  11.931  22.965  0.00  0.00    +0.000 C 
ATOM     19  O   UNL     1      -1.642  11.598  21.571  0.00  0.00    +0.000 OA
ATOM     20  C   UNL     1      -0.388  11.465  21.054  0.00  0.00    +0.000 C 
ATOM     21  O   UNL     1       0.641  11.668  21.686  0.00  0.00    +0.000 OA
ENDBRANCH   4   7
BRANCH   1  26
ATOM     22  C   UNL     1       3.904   4.246  18.703  0.00  0.00    +0.000 A 
ATOM     23  C   UNL     1       5.058   4.564  17.970  0.00  0.00    +0.000 A 
ATOM     24  C   UNL     1       5.265   5.833  17.428  0.00  0.00    +0.000 A 
ATOM     25  C   UNL     1       4.330   6.841  17.638  0.00  0.00    +0.000 A 
ATOM     26  C   UNL     1       3.191   6.605  18.418  0.00  0.00    +0.000 A 
ATOM     27  C   UNL     1       2.996   5.303  18.919  0.00  0.00    +0.000 A 
BRANCH  22  29
ATOM     28  C   UNL     1       3.497   1.838  18.339  0.00  0.00    +0.000 C 
ATOM     29  N   UNL     1       3.686   2.972  19.236  0.00  0.00    +0.000 N 
ATOM     30  C   UNL     1       3.085   2.866  20.564  0.00  0.00    +0.000 C 
ENDBRANCH  22  29
ENDBRANCH   1  26
TORSDOF 3
ENDMDL
MODEL 2
REMARK VINA RESULT:      -8.6      1.073      1.982
REMARK  Name = 
REMARK  5 active torsions:
REMARK  status: ('A' for Active; 'I' for Inactive)
REMARK    1  A    between atoms: C_1  and  N_2
REMARK    2  A    between atoms: N_2  and  C_3
REMARK    3  A    between atoms: N_2  and  C_4
REMARK    4  A    between atoms: C_8  and  C_9
REMARK    5  A    between atoms: C_12  and  C_13
REMARK                            x       y       z     vdW  Elec       q    Type
REMARK                         _______ _______ _______ _____ _____    ______ ____
ROOT
ATOM      1  C   UNL     1       2.296   7.607  18.818  0.00  0.00    +0.000 A 
ATOM      2  C   UNL     1       1.782   7.837  20.100  0.00  0.00    +0.000 A 
ATOM      3  C   UNL     1       0.921   8.909  20.350  0.00  0.00    +0.000 A 
ATOM      4  C   UNL     1       0.551   9.796  19.332  0.00  0.00    +0.000 A 
ATOM      5  C   UNL     1       1.052   9.571  18.047  0.00  0.00    +0.000 A 
ATOM      6  C   UNL     1       1.911   8.498  17.800  0.00  0.00    +0.000 A 
ENDROOT
BRANCH   4   7
ATOM      7  C   UNL     1      -0.388  10.970  19.575  0.00  0.00    +0.000 C 
ATOM      8  C   UNL     1      -0.189  12.134  18.577  0.00  0.00    +0.000 C 
ATOM      9  C   UNL     1       0.872  13.125  18.963  0.00  0.00    +0.000 C 
ATOM     10  C   UNL     1       0.689  14.451  19.029  0.00  0.00    +0.000 C 
ATOM     11  C   UNL     1       1.717  15.368  19.629  0.00  0.00    +0.000 C 
ATOM     12  C   UNL     1       1.092  16.321  20.640  0.00  0.00    +0.000 C 
ATOM     13  C   UNL     1       0.843  15.648  21.967  0.00  0.00    +0.000 C 
ATOM     14  O   UNL     1       1.562  15.801  22.946  0.00  0.00    +0.000 OA
ATOM     15  O   UNL     1      -0.284  14.880  21.932  0.00  0.00    +0.000 OA
ATOM     16  C   UNL     1      -0.557  14.202  23.166  0.00  0.00    +0.000 C 
ATOM     17  C   UNL     1      -1.884  13.446  23.062  0.00  0.00    +0.000 C 
ATOM     18  C   UNL     1      -1.711  11.938  22.898  0.00  0.00    +0.000 C 
ATOM     19  O   UNL     1      -1.614  11.590  21.509  0.00  0.00    +0.000 OA
ATOM     20  C   UNL     1      -0.349  11.431  21.029  0.00  0.00    +0.000 C 
ATOM     21  O   UNL     1       0.666  11.622  21.687  0.00  0.00    +0.000 OA
ENDBRANCH   4   7
BRANCH   1  26
ATOM     22  C   UNL     1       5.275   5.602  17.475  0.00  0.00    +0.000 A 
ATOM     23  C   UNL     1       4.855   4.317  17.854  0.00  0.00    +0.000 A 
ATOM     24  C   UNL     1       3.691   4.106  18.593  0.00  0.00    +0.000 A 
ATOM     25  C   UNL     1       2.886   5.184  18.946  0.00  0.00    +0.000 A 
ATOM     26  C   UNL     1       3.214   6.483  18.539  0.00  0.00    +0.000 A 
ATOM     27  C   UNL     1       4.416   6.664  17.826  0.00  0.00    +0.000 A 
BRANCH  22  29
ATOM     28  C   UNL     1       6.999   4.745  15.928  0.00  0.00    +0.000 C 
ATOM     29  N   UNL     1       6.448   5.819  16.747  0.00  0.00    +0.000 N 
ATOM     30  C   UNL     1       7.391   6.826  17.228  0.00  0.00    +0.000 C 
ENDBRANCH  22  29
ENDBRANCH   1  26
TORSDOF 3
ENDMDL
MODEL 3
REMARK VINA RESULT:      -8.6      1.101      2.107
REMARK  Name = 
REMARK  5 active torsions:
REMARK  status: ('A' for Active; 'I' for Inactive)
REMARK    1  A    between atoms: C_1  and  N_2
REMARK    2  A    between atoms: N_2  and  C_3
REMARK    3  A    between atoms: N_2  and  C_4
REMARK    4  A    between atoms: C_8  and  C_9
REMARK    5  A    between atoms: C_12  and  C_13
REMARK                            x       y       z     vdW  Elec       q    Type
REMARK                         _______ _______ _______ _____ _____    ______ ____
ROOT
ATOM      1  C   UNL     1       2.293   7.574  19.092  0.00  0.00    +0.000 A 
ATOM      2  C   UNL     1       1.968   8.438  18.039  0.00  0.00    +0.000 A 
ATOM      3  C   UNL     1       1.082   9.501  18.226  0.00  0.00    +0.000 A 
ATOM      4  C   UNL     1       0.478   9.734  19.468  0.00  0.00    +0.000 A 
ATOM      5  C   UNL     1       0.802   8.883  20.528  0.00  0.00    +0.000 A 
ATOM      6  C   UNL     1       1.690   7.822  20.338  0.00  0.00    +0.000 A 
ENDROOT
BRANCH   4   7
ATOM      7  C   UNL     1      -0.488  10.888  19.701  0.00  0.00    +0.000 C 
ATOM      8  C   UNL     1      -0.509  11.916  18.548  0.00  0.00    +0.000 C 
ATOM      9  C   UNL     1       0.531  12.996  18.643  0.00  0.00    +0.000 C 
ATOM     10  C   UNL     1       0.277  14.309  18.570  0.00  0.00    +0.000 C 
ATOM     11  C   UNL     1       1.321  15.342  18.889  0.00  0.00    +0.000 C 
ATOM     12  C   UNL     1       0.789  16.392  19.856  0.00  0.00    +0.000 C 
ATOM     13  C   UNL     1       0.777  15.890  21.279  0.00  0.00    +0.000 C 
ATOM     14  O   UNL     1       1.619  16.203  22.111  0.00  0.00    +0.000 OA
ATOM     15  O   UNL     1      -0.292  15.075  21.510  0.00  0.00    +0.000 OA
ATOM     16  C   UNL     1      -0.342  14.556  22.846  0.00  0.00    +0.000 C 
ATOM     17  C   UNL     1      -1.619  13.736  23.039  0.00  0.00    +0.000 C 
ATOM     18  C   UNL     1      -1.377  12.228  23.039  0.00  0.00    +0.000 C 
ATOM     19  O   UNL     1      -1.459  11.704  21.706  0.00  0.00    +0.000 OA
ATOM     20  C   UNL     1      -0.269  11.538  21.064  0.00  0.00    +0.000 C 
ATOM     21  O   UNL     1       0.816  11.859  21.532  0.00  0.00    +0.000 OA
ENDBRANCH   4   7
BRANCH   1  26
ATOM     22  C   UNL     1       5.037   5.330  17.630  0.00  0.00    +0.000 A 
ATOM     23  C   UNL     1       4.854   4.207  18.451  0.00  0.00    +0.000 A 
ATOM     24  C   UNL     1       3.933   4.198  19.500  0.00  0.00    +0.000 A 
ATOM     25  C   UNL     1       3.136   5.313  19.735  0.00  0.00    +0.000 A 
ATOM     26  C   UNL     1       3.223   6.440  18.908  0.00  0.00    +0.000 A 
ATOM     27  C   UNL     1       4.188   6.428  17.882  0.00  0.00    +0.000 A 
BRANCH  22  29
ATOM     28  C   UNL     1       5.514   5.572  15.218  0.00  0.00    +0.000 C 
ATOM     29  N   UNL     1       5.968   5.348  16.587  0.00  0.00    +0.000 N 
ATOM     30  C   UNL     1       7.213   4.603  16.751  0.00  0.00    +0.000 C 
ENDBRANCH  22  29
ENDBRANCH   1  26
TORSDOF 3
ENDMDL
MODEL 4
REMARK VINA RESULT:      -8.5      0.710      1.252
REMARK  Name = 
REMARK  5 active torsions:
REMARK  status: ('A' for Active; 'I' for Inactive)
REMARK    1  A    between atoms: C_1  and  N_2
REMARK    2  A    between atoms: N_2  and  C_3
REMARK    3  A    between atoms: N_2  and  C_4
REMARK    4  A    between atoms: C_8  and  C_9
REMARK    5  A    between atoms: C_12  and  C_13
REMARK                            x       y       z     vdW  Elec       q    Type
REMARK                         _______ _______ _______ _____ _____    ______ ____
ROOT
ATOM      1  C   UNL     1       2.047   7.820  18.984  0.00  0.00    +0.000 A 
ATOM      2  C   UNL     1       1.703   8.690  17.943  0.00  0.00    +0.000 A 
ATOM      3  C   UNL     1       0.863   9.784  18.167  0.00  0.00    +0.000 A 
ATOM      4  C   UNL     1       0.327  10.042  19.434  0.00  0.00    +0.000 A 
ATOM      5  C   UNL     1       0.671   9.184  20.482  0.00  0.00    +0.000 A 
ATOM      6  C   UNL     1       1.512   8.092  20.256  0.00  0.00    +0.000 A 
ENDROOT
BRANCH   4   7
ATOM      7  C   UNL     1      -0.587  11.229  19.707  0.00  0.00    +0.000 C 
ATOM      8  C   UNL     1      -0.608  12.266  18.562  0.00  0.00    +0.000 C 
ATOM      9  C   UNL     1       0.475  13.306  18.628  0.00  0.00    +0.000 C 
ATOM     10  C   UNL     1       0.267  14.628  18.572  0.00  0.00    +0.000 C 
ATOM     11  C   UNL     1       1.359  15.619  18.861  0.00  0.00    +0.000 C 
ATOM     12  C   UNL     1       0.900  16.681  19.852  0.00  0.00    +0.000 C 
ATOM     13  C   UNL     1       0.917  16.170  21.271  0.00  0.00    +0.000 C 
ATOM     14  O   UNL     1       1.798  16.444  22.076  0.00  0.00    +0.000 OA
ATOM     15  O   UNL     1      -0.174  15.393  21.534  0.00  0.00    +0.000 OA
ATOM     16  C   UNL     1      -0.198  14.867  22.867  0.00  0.00    +0.000 C 
ATOM     17  C   UNL     1      -1.498  14.093  23.099  0.00  0.00    +0.000 C 
ATOM     18  C   UNL     1      -1.313  12.577  23.082  0.00  0.00    +0.000 C 
ATOM     19  O   UNL     1      -1.459  12.067  21.749  0.00  0.00    +0.000 OA
ATOM     20  C   UNL     1      -0.298  11.861  21.066  0.00  0.00    +0.000 C 
ATOM     21  O   UNL     1       0.813  12.138  21.499  0.00  0.00    +0.000 OA
ENDBRANCH   4   7
BRANCH   1  26
ATOM     22  C   UNL     1       3.617   4.339  19.334  0.00  0.00    +0.000 A 
ATOM     23  C   UNL     1       4.712   4.512  18.473  0.00  0.00    +0.000 A 
ATOM     24  C   UNL     1       4.897   5.682  17.735  0.00  0.00    +0.000 A 
ATOM     25  C   UNL     1       4.001   6.737  17.868  0.00  0.00    +0.000 A 
ATOM     26  C   UNL     1       2.927   6.653  18.762  0.00  0.00    +0.000 A 
ATOM     27  C   UNL     1       2.750   5.443  19.463  0.00  0.00    +0.000 A 
BRANCH  22  29
ATOM     28  C   UNL     1       2.498   3.162  21.194  0.00  0.00    +0.000 C 
ATOM     29  N   UNL     1       3.420   3.164  20.064  0.00  0.00    +0.000 N 
ATOM     30  C   UNL     1       4.493   2.172  20.093  0.00  0.00    +0.000 C 
ENDBRANCH  22  29
ENDBRANCH   1  26
TORSDOF 3
ENDMDL
MODEL 5
REMARK VINA RESULT:      -8.3      2.155      3.516
REMARK  Name = 
REMARK  5 active torsions:
REMARK  status: ('A' for Active; 'I' for Inactive)
REMARK    1  A    between atoms: C_1  and  N_2
REMARK    2  A    between atoms: N_2  and  C_3
REMARK    3  A    between atoms: N_2  and  C_4
REMARK    4  A    between atoms: C_8  and  C_9
REMARK    5  A    between atoms: C_12  and  C_13
REMARK                            x       y       z     vdW  Elec       q    Type
REMARK                         _______ _______ _______ _____ _____    ______ ____
ROOT
ATOM      1  C   UNL     1       2.482   7.274  19.076  0.00  0.00    +0.000 A 
ATOM      2  C   UNL     1       1.862   7.817  20.208  0.00  0.00    +0.000 A 
ATOM      3  C   UNL     1       1.157   9.021  20.136  0.00  0.00    +0.000 A 
ATOM      4  C   UNL     1       1.055   9.733  18.935  0.00  0.00    +0.000 A 
ATOM      5  C   UNL     1       1.663   9.195  17.796  0.00  0.00    +0.000 A 
ATOM      6  C   UNL     1       2.365   7.991  17.872  0.00  0.00    +0.000 A 
ENDROOT
BRANCH   4   7
ATOM      7  C   UNL     1       0.290  11.045  18.826  0.00  0.00    +0.000 C 
ATOM      8  C   UNL     1       0.810  12.141  19.785  0.00  0.00    +0.000 C 
ATOM      9  C   UNL     1       0.217  12.109  21.165  0.00  0.00    +0.000 C 
ATOM     10  C   UNL     1      -0.349  13.158  21.776  0.00  0.00    +0.000 C 
ATOM     11  C   UNL     1      -1.117  13.013  23.060  0.00  0.00    +0.000 C 
ATOM     12  C   UNL     1      -2.473  13.703  22.981  0.00  0.00    +0.000 C 
ATOM     13  C   UNL     1      -3.481  12.874  22.225  0.00  0.00    +0.000 C 
ATOM     14  O   UNL     1      -4.354  12.212  22.771  0.00  0.00    +0.000 OA
ATOM     15  O   UNL     1      -3.302  12.979  20.877  0.00  0.00    +0.000 OA
ATOM     16  C   UNL     1      -4.226  12.196  20.110  0.00  0.00    +0.000 C 
ATOM     17  C   UNL     1      -4.012  12.451  18.616  0.00  0.00    +0.000 C 
ATOM     18  C   UNL     1      -3.288  11.310  17.904  0.00  0.00    +0.000 C 
ATOM     19  O   UNL     1      -1.868  11.505  17.955  0.00  0.00    +0.000 OA
ATOM     20  C   UNL     1      -1.216  10.830  18.942  0.00  0.00    +0.000 C 
ATOM     21  O   UNL     1      -1.772  10.142  19.788  0.00  0.00    +0.000 OA
ENDBRANCH   4   7
BRANCH   1  26
ATOM     22  C   UNL     1       5.081   4.558  18.322  0.00  0.00    +0.000 A 
ATOM     23  C   UNL     1       4.556   3.532  19.122  0.00  0.00    +0.000 A 
ATOM     24  C   UNL     1       3.446   3.729  19.946  0.00  0.00    +0.000 A 
ATOM     25  C   UNL     1       2.804   4.962  19.964  0.00  0.00    +0.000 A 
ATOM     26  C   UNL     1       3.238   6.006  19.137  0.00  0.00    +0.000 A 
ATOM     27  C   UNL     1       4.383   5.783  18.347  0.00  0.00    +0.000 A 
BRANCH  22  29
ATOM     28  C   UNL     1       7.509   4.829  17.960  0.00  0.00    +0.000 C 
ATOM     29  N   UNL     1       6.201   4.370  17.506  0.00  0.00    +0.000 N 
ATOM     30  C   UNL     1       6.003   4.276  16.062  0.00  0.00    +0.000 C 
ENDBRANCH  22  29
ENDBRANCH   1  26
TORSDOF 3
ENDMDL
MODEL 6
REMARK VINA RESULT:      -8.2      1.224      1.975
REMARK  Name = 
REMARK  5 active torsions:
REMARK  status: ('A' for Active; 'I' for Inactive)
REMARK    1  A    between atoms: C_1  and  N_2
REMARK    2  A    between atoms: N_2  and  C_3
REMARK    3  A    between atoms: N_2  and  C_4
REMARK    4  A    between atoms: C_8  and  C_9
REMARK    5  A    between atoms: C_12  and  C_13
REMARK                            x       y       z     vdW  Elec       q    Type
REMARK                         _______ _______ _______ _____ _____    ______ ____
ROOT
ATOM      1  C   UNL     1       2.223   7.423  19.424  0.00  0.00    +0.000 A 
ATOM      2  C   UNL     1       1.519   7.902  20.535  0.00  0.00    +0.000 A 
ATOM      3  C   UNL     1       0.895   9.152  20.510  0.00  0.00    +0.000 A 
ATOM      4  C   UNL     1       0.961   9.974  19.379  0.00  0.00    +0.000 A 
ATOM      5  C   UNL     1       1.654   9.502  18.260  0.00  0.00    +0.000 A 
ATOM      6  C   UNL     1       2.275   8.252  18.288  0.00  0.00    +0.000 A 
ENDROOT
BRANCH   4   7
ATOM      7  C   UNL     1       0.287  11.338  19.321  0.00  0.00    +0.000 C 
ATOM      8  C   UNL     1       1.018  12.347  18.407  0.00  0.00    +0.000 C 
ATOM      9  C   UNL     1       2.128  13.114  19.068  0.00  0.00    +0.000 C 
ATOM     10  C   UNL     1       2.243  14.449  19.058  0.00  0.00    +0.000 C 
ATOM     11  C   UNL     1       3.246  15.168  19.916  0.00  0.00    +0.000 C 
ATOM     12  C   UNL     1       2.601  16.312  20.689  0.00  0.00    +0.000 C 
ATOM     13  C   UNL     1       1.845  15.817  21.897  0.00  0.00    +0.000 C 
ATOM     14  O   UNL     1       2.279  15.889  23.039  0.00  0.00    +0.000 OA
ATOM     15  O   UNL     1       0.628  15.310  21.548  0.00  0.00    +0.000 OA
ATOM     16  C   UNL     1      -0.127  14.809  22.661  0.00  0.00    +0.000 C 
ATOM     17  C   UNL     1      -1.509  14.352  22.189  0.00  0.00    +0.000 C 
ATOM     18  C   UNL     1      -1.649  12.833  22.104  0.00  0.00    +0.000 C 
ATOM     19  O   UNL     1      -1.252  12.362  20.809  0.00  0.00    +0.000 OA
ATOM     20  C   UNL     1       0.025  11.895  20.718  0.00  0.00    +0.000 C 
ATOM     21  O   UNL     1       0.832  11.915  21.638  0.00  0.00    +0.000 OA
ENDBRANCH   4   7
BRANCH   1  26
ATOM     22  C   UNL     1       4.580   4.542  18.505  0.00  0.00    +0.000 A 
ATOM     23  C   UNL     1       4.041   3.552  19.340  0.00  0.00    +0.000 A 
ATOM     24  C   UNL     1       3.005   3.820  20.235  0.00  0.00    +0.000 A 
ATOM     25  C   UNL     1       2.448   5.093  20.293  0.00  0.00    +0.000 A 
ATOM     26  C   UNL     1       2.896   6.107  19.437  0.00  0.00    +0.000 A 
ATOM     27  C   UNL     1       3.968   5.811  18.573  0.00  0.00    +0.000 A 
BRANCH  22  29
ATOM     28  C   UNL     1       6.964   4.788  17.909  0.00  0.00    +0.000 C 
ATOM     29  N   UNL     1       5.628   4.281  17.617  0.00  0.00    +0.000 N 
ATOM     30  C   UNL     1       5.308   4.047  16.211  0.00  0.00    +0.000 C 
ENDBRANCH  22  29
ENDBRANCH   1  26
TORSDOF 3
ENDMDL
MODEL 7
REMARK VINA RESULT:      -8.2      2.898      4.487
REMARK  Name = 
REMARK  5 active torsions:
REMARK  status: ('A' for Active; 'I' for Inactive)
REMARK    1  A    between atoms: C_1  and  N_2
REMARK    2  A    between atoms: N_2  and  C_3
REMARK    3  A    between atoms: N_2  and  C_4
REMARK    4  A    between atoms: C_8  and  C_9
REMARK    5  A    between atoms: C_12  and  C_13
REMARK                            x       y       z     vdW  Elec       q    Type
REMARK                         _______ _______ _______ _____ _____    ______ ____
ROOT
ATOM      1  C   UNL     1       2.011   7.799  19.033  0.00  0.00    +0.000 A 
ATOM      2  C   UNL     1       1.396   8.426  20.124  0.00  0.00    +0.000 A 
ATOM      3  C   UNL     1       0.558   9.529  19.943  0.00  0.00    +0.000 A 
ATOM      4  C   UNL     1       0.312  10.053  18.668  0.00  0.00    +0.000 A 
ATOM      5  C   UNL     1       0.914   9.430  17.571  0.00  0.00    +0.000 A 
ATOM      6  C   UNL     1       1.750   8.326  17.756  0.00  0.00    +0.000 A 
ENDROOT
BRANCH   4   7
ATOM      7  C   UNL     1      -0.600  11.251  18.441  0.00  0.00    +0.000 C 
ATOM      8  C   UNL     1      -0.570  12.276  19.597  0.00  0.00    +0.000 C 
ATOM      9  C   UNL     1      -1.518  11.986  20.726  0.00  0.00    +0.000 C 
ATOM     10  C   UNL     1      -2.405  12.860  21.220  0.00  0.00    +0.000 C 
ATOM     11  C   UNL     1      -3.472  12.448  22.196  0.00  0.00    +0.000 C 
ATOM     12  C   UNL     1      -4.845  12.950  21.766  0.00  0.00    +0.000 C 
ATOM     13  C   UNL     1      -5.439  12.095  20.675  0.00  0.00    +0.000 C 
ATOM     14  O   UNL     1      -6.307  11.255  20.875  0.00  0.00    +0.000 OA
ATOM     15  O   UNL     1      -4.902  12.396  19.458  0.00  0.00    +0.000 OA
ATOM     16  C   UNL     1      -5.422  11.597  18.386  0.00  0.00    +0.000 C 
ATOM     17  C   UNL     1      -4.835  12.069  17.053  0.00  0.00    +0.000 C 
ATOM     18  C   UNL     1      -3.756  11.140  16.502  0.00  0.00    +0.000 C 
ATOM     19  O   UNL     1      -2.464  11.519  16.997  0.00  0.00    +0.000 OA
ATOM     20  C   UNL     1      -2.018  10.818  18.077  0.00  0.00    +0.000 C 
ATOM     21  O   UNL     1      -2.668   9.958  18.656  0.00  0.00    +0.000 OA
ENDBRANCH   4   7
BRANCH   1  26
ATOM     22  C   UNL     1       4.975   5.405  18.608  0.00  0.00    +0.000 A 
ATOM     23  C   UNL     1       4.510   4.347  19.404  0.00  0.00    +0.000 A 
ATOM     24  C   UNL     1       3.318   4.430  20.125  0.00  0.00    +0.000 A 
ATOM     25  C   UNL     1       2.532   5.574  20.040  0.00  0.00    +0.000 A 
ATOM     26  C   UNL     1       2.907   6.637  19.209  0.00  0.00    +0.000 A 
ATOM     27  C   UNL     1       4.135   6.534  18.524  0.00  0.00    +0.000 A 
BRANCH  22  29
ATOM     28  C   UNL     1       7.442   5.534  18.592  0.00  0.00    +0.000 C 
ATOM     29  N   UNL     1       6.176   5.332  17.895  0.00  0.00    +0.000 N 
ATOM     30  C   UNL     1       6.158   5.634  16.466  0.00  0.00    +0.000 C 
ENDBRANCH  22  29
ENDBRANCH   1  26
TORSDOF 3
ENDMDL
MODEL 8
REMARK VINA RESULT:      -8.2      1.044      1.119
REMARK  Name = 
REMARK  5 active torsions:
REMARK  status: ('A' for Active; 'I' for Inactive)
REMARK    1  A    between atoms: C_1  and  N_2
REMARK    2  A    between atoms: N_2  and  C_3
REMARK    3  A    between atoms: N_2  and  C_4
REMARK    4  A    between atoms: C_8  and  C_9
REMARK    5  A    between atoms: C_12  and  C_13
REMARK                            x       y       z     vdW  Elec       q    Type
REMARK                         _______ _______ _______ _____ _____    ______ ____
ROOT
ATOM      1  C   UNL     1       2.321   7.664  18.925  0.00  0.00    +0.000 A 
ATOM      2  C   UNL     1       1.641   8.059  20.083  0.00  0.00    +0.000 A 
ATOM      3  C   UNL     1       0.996   9.296  20.154  0.00  0.00    +0.000 A 
ATOM      4  C   UNL     1       1.017  10.190  19.077  0.00  0.00    +0.000 A 
ATOM      5  C   UNL     1       1.687   9.802  17.912  0.00  0.00    +0.000 A 
ATOM      6  C   UNL     1       2.328   8.564  17.844  0.00  0.00    +0.000 A 
ENDROOT
BRANCH   4   7
ATOM      7  C   UNL     1       0.320  11.543  19.125  0.00  0.00    +0.000 C 
ATOM      8  C   UNL     1       1.018  12.625  18.270  0.00  0.00    +0.000 C 
ATOM      9  C   UNL     1       2.126  13.364  18.964  0.00  0.00    +0.000 C 
ATOM     10  C   UNL     1       2.220  14.698  19.044  0.00  0.00    +0.000 C 
ATOM     11  C   UNL     1       3.226  15.374  19.933  0.00  0.00    +0.000 C 
ATOM     12  C   UNL     1       2.576  16.451  20.793  0.00  0.00    +0.000 C 
ATOM     13  C   UNL     1       1.849  15.861  21.976  0.00  0.00    +0.000 C 
ATOM     14  O   UNL     1       2.302  15.862  23.114  0.00  0.00    +0.000 OA
ATOM     15  O   UNL     1       0.635  15.357  21.614  0.00  0.00    +0.000 OA
ATOM     16  C   UNL     1      -0.092  14.769  22.702  0.00  0.00    +0.000 C 
ATOM     17  C   UNL     1      -1.474  14.320  22.223  0.00  0.00    +0.000 C 
ATOM     18  C   UNL     1      -1.591  12.809  22.036  0.00  0.00    +0.000 C 
ATOM     19  O   UNL     1      -1.209  12.435  20.704  0.00  0.00    +0.000 OA
ATOM     20  C   UNL     1       0.073  11.998  20.560  0.00  0.00    +0.000 C 
ATOM     21  O   UNL     1       0.896  11.969  21.466  0.00  0.00    +0.000 OA
ENDBRANCH   4   7
BRANCH   1  26
ATOM     22  C   UNL     1       3.156   3.955  19.421  0.00  0.00    +0.000 A 
ATOM     23  C   UNL     1       4.426   3.941  18.825  0.00  0.00    +0.000 A 
ATOM     24  C   UNL     1       4.967   5.069  18.206  0.00  0.00    +0.000 A 
ATOM     25  C   UNL     1       4.258   6.265  18.199  0.00  0.00    +0.000 A 
ATOM     26  C   UNL     1       3.015   6.362  18.836  0.00  0.00    +0.000 A 
ATOM     27  C   UNL     1       2.483   5.195  19.419  0.00  0.00    +0.000 A 
BRANCH  22  29
ATOM     28  C   UNL     1       1.718   1.953  19.265  0.00  0.00    +0.000 C 
ATOM     29  N   UNL     1       2.604   2.824  20.030  0.00  0.00    +0.000 N 
ATOM     30  C   UNL     1       2.427   2.829  21.480  0.00  0.00    +0.000 C 
ENDBRANCH  22  29
ENDBRANCH   1  26
TORSDOF 3
ENDMDL
MODEL 9
REMARK VINA RESULT:      -8.1      1.442      2.213
REMARK  Name = 
REMARK  5 active torsions:
REMARK  status: ('A' for Active; 'I' for Inactive)
REMARK    1  A    between atoms: C_1  and  N_2
REMARK    2  A    between atoms: N_2  and  C_3
REMARK    3  A    between atoms: N_2  and  C_4
REMARK    4  A    between atoms: C_8  and  C_9
REMARK    5  A    between atoms: C_12  and  C_13
REMARK                            x       y       z     vdW  Elec       q    Type
REMARK                         _______ _______ _______ _____ _____    ______ ____
ROOT
ATOM      1  C   UNL     1       2.267   7.558  19.163  0.00  0.00    +0.000 A 
ATOM      2  C   UNL     1       1.588   8.118  20.252  0.00  0.00    +0.000 A 
ATOM      3  C   UNL     1       0.986   9.376  20.157  0.00  0.00    +0.000 A 
ATOM      4  C   UNL     1       1.050  10.125  18.976  0.00  0.00    +0.000 A 
ATOM      5  C   UNL     1       1.719   9.571  17.880  0.00  0.00    +0.000 A 
ATOM      6  C   UNL     1       2.317   8.313  17.978  0.00  0.00    +0.000 A 
ENDROOT
BRANCH   4   7
ATOM      7  C   UNL     1       0.401  11.496  18.843  0.00  0.00    +0.000 C 
ATOM      8  C   UNL     1       1.421  12.652  18.742  0.00  0.00    +0.000 C 
ATOM      9  C   UNL     1       1.896  13.196  20.060  0.00  0.00    +0.000 C 
ATOM     10  C   UNL     1       1.874  14.490  20.403  0.00  0.00    +0.000 C 
ATOM     11  C   UNL     1       2.155  14.947  21.807  0.00  0.00    +0.000 C 
ATOM     12  C   UNL     1       1.086  15.912  22.304  0.00  0.00    +0.000 C 
ATOM     13  C   UNL     1      -0.167  15.190  22.735  0.00  0.00    +0.000 C 
ATOM     14  O   UNL     1      -0.454  14.978  23.906  0.00  0.00    +0.000 OA
ATOM     15  O   UNL     1      -0.929  14.832  21.662  0.00  0.00    +0.000 OA
ATOM     16  C   UNL     1      -2.125  14.125  22.016  0.00  0.00    +0.000 C 
ATOM     17  C   UNL     1      -2.960  13.852  20.762  0.00  0.00    +0.000 C 
ATOM     18  C   UNL     1      -2.887  12.401  20.290  0.00  0.00    +0.000 C 
ATOM     19  O   UNL     1      -1.793  12.222  19.380  0.00  0.00    +0.000 OA
ATOM     20  C   UNL     1      -0.646  11.730  19.928  0.00  0.00    +0.000 C 
ATOM     21  O   UNL     1      -0.497  11.501  21.121  0.00  0.00    +0.000 OA
ENDBRANCH   4   7
BRANCH   1  26
ATOM     22  C   UNL     1       4.589   4.598  18.422  0.00  0.00    +0.000 A 
ATOM     23  C   UNL     1       4.017   3.657  19.292  0.00  0.00    +0.000 A 
ATOM     24  C   UNL     1       2.970   3.983  20.153  0.00  0.00    +0.000 A 
ATOM     25  C   UNL     1       2.435   5.267  20.143  0.00  0.00    +0.000 A 
ATOM     26  C   UNL     1       2.916   6.233  19.250  0.00  0.00    +0.000 A 
ATOM     27  C   UNL     1       3.998   5.879  18.420  0.00  0.00    +0.000 A 
BRANCH  22  29
ATOM     28  C   UNL     1       6.998   4.726  17.893  0.00  0.00    +0.000 C 
ATOM     29  N   UNL     1       5.648   4.279  17.567  0.00  0.00    +0.000 N 
ATOM     30  C   UNL     1       5.358   4.045  16.155  0.00  0.00    +0.000 C 
ENDBRANCH  22  29
ENDBRANCH   1  26
TORSDOF 3
ENDMDL
