MODEL 1
REMARK VINA RESULT:      -7.9      0.000      0.000
REMARK  Name = 
REMARK  8 active torsions:
REMARK  status: ('A' for Active; 'I' for Inactive)
REMARK    1  A    between atoms: C_1  and  C_2
REMARK    2  A    between atoms: C_2  and  C_3
REMARK    3  A    between atoms: C_3  and  S_4
REMARK    4  A    between atoms: S_4  and  C_5
REMARK    5  A    between atoms: C_11  and  C_12
REMARK    6  A    between atoms: C_12  and  O_14
REMARK    7  A    between atoms: C_19  and  C_20
REMARK    8  A    between atoms: N_22  and  C_23
REMARK                            x       y       z     vdW  Elec       q    Type
REMARK                         _______ _______ _______ _____ _____    ______ ____
ROOT
ATOM      1  C   UNL     1       2.232   7.005  19.720  0.00  0.00    +0.000 A 
ATOM      2  N   UNL     1       1.402   7.867  20.371  0.00  0.00    +0.000 NA
ATOM      3  C   UNL     1       0.945   8.971  19.754  0.00  0.00    +0.000 A 
ATOM      4  N   UNL     1       0.157   9.838  20.474  0.00  0.00    +0.000 N 
ATOM      5  C   UNL     1       0.012  11.247  20.130  0.00  0.00    +0.000 C 
ATOM      6  C   UNL     1       0.271  12.100  21.376  0.00  0.00    +0.000 C 
ATOM      7  C   UNL     1      -0.555  11.655  22.587  0.00  0.00    +0.000 C 
ATOM      8  C   UNL     1      -0.386  10.153  22.838  0.00  0.00    +0.000 C 
ATOM      9  C   UNL     1      -0.653   9.328  21.576  0.00  0.00    +0.000 C 
ATOM     10  C   UNL     1       1.289   9.195  18.424  0.00  0.00    +0.000 A 
ATOM     11  C   UNL     1       2.169   8.329  17.760  0.00  0.00    +0.000 A 
ATOM     12  C   UNL     1       2.703   7.227  18.429  0.00  0.00    +0.000 A 
ENDROOT
BRANCH  12  13
ATOM     13  C   UNL     1       3.666   6.345  17.700  0.00  0.00    +0.000 C 
ATOM     14  O   UNL     1       3.302   5.248  17.295  0.00  0.00    +0.000 OA
ATOM     15  N   UNL     1       4.936   6.854  17.500  0.00  0.00    +0.000 N 
ATOM     16  H   UNL     1       5.127   7.780  17.856  0.00  0.00    +0.000 HD
BRANCH  15  17
ATOM     17  C   UNL     1       6.085   6.064  17.041  0.00  0.00    +0.000 C 
ATOM     18  C   UNL     1       7.389   6.874  16.986  0.00  0.00    +0.000 C 
ATOM     19  C   UNL     1       8.004   7.191  18.352  0.00  0.00    +0.000 C 
ATOM     20  C   UNL     1       8.028   6.013  19.326  0.00  0.00    +0.000 C 
ATOM     21  C   UNL     1       6.724   5.227  19.351  0.00  0.00    +0.000 C 
ATOM     22  C   UNL     1       6.284   4.835  17.941  0.00  0.00    +0.000 C 
ENDBRANCH  15  17
ENDBRANCH  12  13
BRANCH   7  23
ATOM     23  C   UNL     1      -2.026  12.016  22.424  0.00  0.00    +0.000 C 
ATOM     24  O   UNL     1      -2.501  12.614  21.474  0.00  0.00    +0.000 OA
BRANCH  23  25
ATOM     25  O   UNL     1      -2.793  11.583  23.447  0.00  0.00    +0.000 OA
ATOM     26  H   UNL     1      -2.716  12.115  24.262  0.00  0.00    +0.000 HD
ENDBRANCH  23  25
ENDBRANCH   7  23
BRANCH   1  27
ATOM     27  S   UNL     1       2.541   5.518  20.660  0.00  0.00    +0.000 S 
BRANCH  27  28
ATOM     28  C   UNL     1       0.973   4.668  20.278  0.00  0.00    +0.000 C 
BRANCH  28  30
ATOM     29  C   UNL     1       1.536   2.628  21.627  0.00  0.00    +0.000 C 
ATOM     30  C   UNL     1       1.186   3.159  20.244  0.00  0.00    +0.000 C 
ENDBRANCH  28  30
ENDBRANCH  27  28
ENDBRANCH   1  27
TORSDOF 7
ENDMDL
MODEL 2
REMARK VINA RESULT:      -7.7      2.897      7.852
REMARK  Name = 
REMARK  8 active torsions:
REMARK  status: ('A' for Active; 'I' for Inactive)
REMARK    1  A    between atoms: C_1  and  C_2
REMARK    2  A    between atoms: C_2  and  C_3
REMARK    3  A    between atoms: C_3  and  S_4
REMARK    4  A    between atoms: S_4  and  C_5
REMARK    5  A    between atoms: C_11  and  C_12
REMARK    6  A    between atoms: C_12  and  O_14
REMARK    7  A    between atoms: C_19  and  C_20
REMARK    8  A    between atoms: N_22  and  C_23
REMARK                            x       y       z     vdW  Elec       q    Type
REMARK                         _______ _______ _______ _____ _____    ______ ____
ROOT
ATOM      1  C   UNL     1       1.460   8.732  20.373  0.00  0.00    +0.000 A 
ATOM      2  N   UNL     1       1.919   7.452  20.296  0.00  0.00    +0.000 NA
ATOM      3  C   UNL     1       2.235   6.911  19.105  0.00  0.00    +0.000 A 
ATOM      4  N   UNL     1       2.639   5.597  19.076  0.00  0.00    +0.000 N 
ATOM      5  C   UNL     1       2.532   4.763  17.885  0.00  0.00    +0.000 C 
ATOM      6  C   UNL     1       1.832   3.450  18.251  0.00  0.00    +0.000 C 
ATOM      7  C   UNL     1       2.464   2.752  19.459  0.00  0.00    +0.000 C 
ATOM      8  C   UNL     1       2.589   3.718  20.642  0.00  0.00    +0.000 C 
ATOM      9  C   UNL     1       3.293   5.019  20.246  0.00  0.00    +0.000 C 
ATOM     10  C   UNL     1       2.136   7.694  17.958  0.00  0.00    +0.000 A 
ATOM     11  C   UNL     1       1.633   9.000  18.028  0.00  0.00    +0.000 A 
ATOM     12  C   UNL     1       1.233   9.530  19.255  0.00  0.00    +0.000 A 
ENDROOT
BRANCH  12  13
ATOM     13  C   UNL     1       0.667  10.915  19.286  0.00  0.00    +0.000 C 
ATOM     14  O   UNL     1      -0.488  11.109  18.928  0.00  0.00    +0.000 OA
ATOM     15  N   UNL     1       1.500  11.910  19.761  0.00  0.00    +0.000 N 
ATOM     16  H   UNL     1       2.429  11.639  20.052  0.00  0.00    +0.000 HD
BRANCH  15  17
ATOM     17  C   UNL     1       1.233  13.348  19.637  0.00  0.00    +0.000 C 
ATOM     18  C   UNL     1       1.728  14.159  20.843  0.00  0.00    +0.000 C 
ATOM     19  C   UNL     1       3.248  14.330  20.920  0.00  0.00    +0.000 C 
ATOM     20  C   UNL     1       3.913  14.694  19.593  0.00  0.00    +0.000 C 
ATOM     21  C   UNL     1       3.395  13.878  18.416  0.00  0.00    +0.000 C 
ATOM     22  C   UNL     1       1.868  13.903  18.352  0.00  0.00    +0.000 C 
ENDBRANCH  15  17
ENDBRANCH  12  13
BRANCH   7  23
ATOM     23  C   UNL     1       3.817   2.144  19.109  0.00  0.00    +0.000 C 
ATOM     24  O   UNL     1       4.792   2.136  19.838  0.00  0.00    +0.000 OA
BRANCH  23  25
ATOM     25  O   UNL     1       3.839   1.574  17.885  0.00  0.00    +0.000 OA
ATOM     26  H   UNL     1       4.345   0.740  17.838  0.00  0.00    +0.000 HD
ENDBRANCH  23  25
ENDBRANCH   7  23
BRANCH   1  27
ATOM     27  S   UNL     1       1.303   9.297  22.060  0.00  0.00    +0.000 S 
BRANCH  27  28
ATOM     28  C   UNL     1      -0.509   9.138  22.194  0.00  0.00    +0.000 C 
BRANCH  28  30
ATOM     29  C   UNL     1      -0.767  11.603  22.589  0.00  0.00    +0.000 C 
ATOM     30  C   UNL     1      -1.065  10.210  23.124  0.00  0.00    +0.000 C 
ENDBRANCH  28  30
ENDBRANCH  27  28
ENDBRANCH   1  27
TORSDOF 7
ENDMDL
MODEL 3
REMARK VINA RESULT:      -7.5      1.730      2.497
REMARK  Name = 
REMARK  8 active torsions:
REMARK  status: ('A' for Active; 'I' for Inactive)
REMARK    1  A    between atoms: C_1  and  C_2
REMARK    2  A    between atoms: C_2  and  C_3
REMARK    3  A    between atoms: C_3  and  S_4
REMARK    4  A    between atoms: S_4  and  C_5
REMARK    5  A    between atoms: C_11  and  C_12
REMARK    6  A    between atoms: C_12  and  O_14
REMARK    7  A    between atoms: C_19  and  C_20
REMARK    8  A    between atoms: N_22  and  C_23
REMARK                            x       y       z     vdW  Elec       q    Type
REMARK                         _______ _______ _______ _____ _____    ______ ____
ROOT
ATOM      1  C   UNL     1       2.400   6.627  19.702  0.00  0.00    +0.000 A 
ATOM      2  N   UNL     1       1.618   7.736  19.829  0.00  0.00    +0.000 NA
ATOM      3  C   UNL     1       1.697   8.733  18.929  0.00  0.00    +0.000 A 
ATOM      4  N   UNL     1       0.930   9.855  19.135  0.00  0.00    +0.000 N 
ATOM      5  C   UNL     1       1.261  11.155  18.565  0.00  0.00    +0.000 C 
ATOM      6  C   UNL     1       1.239  12.212  19.674  0.00  0.00    +0.000 C 
ATOM      7  C   UNL     1      -0.056  12.191  20.493  0.00  0.00    +0.000 C 
ATOM      8  C   UNL     1      -0.353  10.776  21.003  0.00  0.00    +0.000 C 
ATOM      9  C   UNL     1      -0.325   9.744  19.873  0.00  0.00    +0.000 C 
ATOM     10  C   UNL     1       2.550   8.593  17.837  0.00  0.00    +0.000 A 
ATOM     11  C   UNL     1       3.379   7.470  17.719  0.00  0.00    +0.000 A 
ATOM     12  C   UNL     1       3.350   6.474  18.697  0.00  0.00    +0.000 A 
ENDROOT
BRANCH  12  13
ATOM     13  C   UNL     1       4.275   5.307  18.557  0.00  0.00    +0.000 C 
ATOM     14  O   UNL     1       4.738   4.772  19.557  0.00  0.00    +0.000 OA
ATOM     15  N   UNL     1       4.532   4.876  17.269  0.00  0.00    +0.000 N 
ATOM     16  H   UNL     1       4.082   5.374  16.513  0.00  0.00    +0.000 HD
BRANCH  15  17
ATOM     17  C   UNL     1       5.592   3.927  16.905  0.00  0.00    +0.000 C 
ATOM     18  C   UNL     1       5.432   3.361  15.486  0.00  0.00    +0.000 C 
ATOM     19  C   UNL     1       5.765   4.344  14.362  0.00  0.00    +0.000 C 
ATOM     20  C   UNL     1       7.045   5.150  14.583  0.00  0.00    +0.000 C 
ATOM     21  C   UNL     1       7.177   5.692  16.000  0.00  0.00    +0.000 C 
ATOM     22  C   UNL     1       6.972   4.589  17.038  0.00  0.00    +0.000 C 
ENDBRANCH  15  17
ENDBRANCH  12  13
BRANCH   7  23
ATOM     23  C   UNL     1      -1.232  12.740  19.697  0.00  0.00    +0.000 C 
ATOM     24  O   UNL     1      -2.380  12.339  19.773  0.00  0.00    +0.000 OA
BRANCH  23  25
ATOM     25  O   UNL     1      -0.888  13.762  18.883  0.00  0.00    +0.000 OA
ATOM     26  H   UNL     1      -0.129  14.290  19.198  0.00  0.00    +0.000 HD
ENDBRANCH  23  25
ENDBRANCH   7  23
BRANCH   1  27
ATOM     27  S   UNL     1       1.978   5.360  20.887  0.00  0.00    +0.000 S 
BRANCH  27  28
ATOM     28  C   UNL     1       1.133   4.229  19.732  0.00  0.00    +0.000 C 
BRANCH  28  30
ATOM     29  C   UNL     1       1.656   2.673  21.630  0.00  0.00    +0.000 C 
ATOM     30  C   UNL     1       1.377   2.780  20.138  0.00  0.00    +0.000 C 
ENDBRANCH  28  30
ENDBRANCH  27  28
ENDBRANCH   1  27
TORSDOF 7
ENDMDL
MODEL 4
REMARK VINA RESULT:      -7.2      3.027      7.969
REMARK  Name = 
REMARK  8 active torsions:
REMARK  status: ('A' for Active; 'I' for Inactive)
REMARK    1  A    between atoms: C_1  and  C_2
REMARK    2  A    between atoms: C_2  and  C_3
REMARK    3  A    between atoms: C_3  and  S_4
REMARK    4  A    between atoms: S_4  and  C_5
REMARK    5  A    between atoms: C_11  and  C_12
REMARK    6  A    between atoms: C_12  and  O_14
REMARK    7  A    between atoms: C_19  and  C_20
REMARK    8  A    between atoms: N_22  and  C_23
REMARK                            x       y       z     vdW  Elec       q    Type
REMARK                         _______ _______ _______ _____ _____    ______ ____
ROOT
ATOM      1  C   UNL     1       1.407   8.945  20.213  0.00  0.00    +0.000 A 
ATOM      2  N   UNL     1       1.762   7.629  20.194  0.00  0.00    +0.000 NA
ATOM      3  C   UNL     1       2.091   7.029  19.036  0.00  0.00    +0.000 A 
ATOM      4  N   UNL     1       2.385   5.686  19.063  0.00  0.00    +0.000 N 
ATOM      5  C   UNL     1       2.269   4.827  17.891  0.00  0.00    +0.000 C 
ATOM      6  C   UNL     1       1.445   3.587  18.254  0.00  0.00    +0.000 C 
ATOM      7  C   UNL     1       1.958   2.877  19.512  0.00  0.00    +0.000 C 
ATOM      8  C   UNL     1       2.103   3.866  20.673  0.00  0.00    +0.000 C 
ATOM      9  C   UNL     1       2.931   5.093  20.280  0.00  0.00    +0.000 C 
ATOM     10  C   UNL     1       2.113   7.781  17.865  0.00  0.00    +0.000 A 
ATOM     11  C   UNL     1       1.717   9.126  17.874  0.00  0.00    +0.000 A 
ATOM     12  C   UNL     1       1.302   9.724  19.064  0.00  0.00    +0.000 A 
ENDROOT
BRANCH  12  13
ATOM     13  C   UNL     1       0.852  11.150  19.029  0.00  0.00    +0.000 C 
ATOM     14  O   UNL     1      -0.296  11.419  18.697  0.00  0.00    +0.000 OA
ATOM     15  N   UNL     1       1.780  12.099  19.415  0.00  0.00    +0.000 N 
ATOM     16  H   UNL     1       2.694  11.768  19.693  0.00  0.00    +0.000 HD
BRANCH  15  17
ATOM     17  C   UNL     1       1.626  13.544  19.213  0.00  0.00    +0.000 C 
ATOM     18  C   UNL     1       0.609  14.182  20.172  0.00  0.00    +0.000 C 
ATOM     19  C   UNL     1       1.092  14.318  21.618  0.00  0.00    +0.000 C 
ATOM     20  C   UNL     1       2.519  14.844  21.764  0.00  0.00    +0.000 C 
ATOM     21  C   UNL     1       3.500  14.199  20.794  0.00  0.00    +0.000 C 
ATOM     22  C   UNL     1       2.981  14.254  19.359  0.00  0.00    +0.000 C 
ENDBRANCH  15  17
ENDBRANCH  12  13
BRANCH   7  23
ATOM     23  C   UNL     1       3.270   2.152  19.249  0.00  0.00    +0.000 C 
ATOM     24  O   UNL     1       4.261   2.213  19.955  0.00  0.00    +0.000 OA
BRANCH  23  25
ATOM     25  O   UNL     1       3.238   1.386  18.137  0.00  0.00    +0.000 OA
ATOM     26  H   UNL     1       2.502   1.591  17.527  0.00  0.00    +0.000 HD
ENDBRANCH  23  25
ENDBRANCH   7  23
BRANCH   1  27
ATOM     27  S   UNL     1       1.215   9.573  21.874  0.00  0.00    +0.000 S 
BRANCH  27  28
ATOM     28  C   UNL     1      -0.580   9.892  21.798  0.00  0.00    +0.000 C 
BRANCH  28  30
ATOM     29  C   UNL     1      -1.900  12.024  21.911  0.00  0.00    +0.000 C 
ATOM     30  C   UNL     1      -0.935  11.106  22.649  0.00  0.00    +0.000 C 
ENDBRANCH  28  30
ENDBRANCH  27  28
ENDBRANCH   1  27
TORSDOF 7
ENDMDL
MODEL 5
REMARK VINA RESULT:      -7.1      1.251      2.037
REMARK  Name = 
REMARK  8 active torsions:
REMARK  status: ('A' for Active; 'I' for Inactive)
REMARK    1  A    between atoms: C_1  and  C_2
REMARK    2  A    between atoms: C_2  and  C_3
REMARK    3  A    between atoms: C_3  and  S_4
REMARK    4  A    between atoms: S_4  and  C_5
REMARK    5  A    between atoms: C_11  and  C_12
REMARK    6  A    between atoms: C_12  and  O_14
REMARK    7  A    between atoms: C_19  and  C_20
REMARK    8  A    between atoms: N_22  and  C_23
REMARK                            x       y       z     vdW  Elec       q    Type
REMARK                         _______ _______ _______ _____ _____    ______ ____
ROOT
ATOM      1  C   UNL     1       2.228   6.769  19.655  0.00  0.00    +0.000 A 
ATOM      2  N   UNL     1       1.573   7.885  20.083  0.00  0.00    +0.000 NA
ATOM      3  C   UNL     1       1.338   8.904  19.238  0.00  0.00    +0.000 A 
ATOM      4  N   UNL     1       0.726  10.031  19.735  0.00  0.00    +0.000 N 
ATOM      5  C   UNL     1       0.854  11.341  19.110  0.00  0.00    +0.000 C 
ATOM      6  C   UNL     1       1.264  12.368  20.171  0.00  0.00    +0.000 C 
ATOM      7  C   UNL     1       0.361  12.341  21.408  0.00  0.00    +0.000 C 
ATOM      8  C   UNL     1       0.239  10.917  21.962  0.00  0.00    +0.000 C 
ATOM      9  C   UNL     1      -0.173   9.916  20.879  0.00  0.00    +0.000 C 
ATOM     10  C   UNL     1       1.727   8.784  17.907  0.00  0.00    +0.000 A 
ATOM     11  C   UNL     1       2.430   7.653  17.469  0.00  0.00    +0.000 A 
ATOM     12  C   UNL     1       2.740   6.631  18.368  0.00  0.00    +0.000 A 
ENDROOT
BRANCH  12  13
ATOM     13  C   UNL     1       3.522   5.456  17.873  0.00  0.00    +0.000 C 
ATOM     14  O   UNL     1       2.936   4.451  17.491  0.00  0.00    +0.000 OA
ATOM     15  N   UNL     1       4.897   5.597  17.852  0.00  0.00    +0.000 N 
ATOM     16  H   UNL     1       5.279   6.477  18.169  0.00  0.00    +0.000 HD
BRANCH  15  17
ATOM     17  C   UNL     1       5.843   4.493  17.647  0.00  0.00    +0.000 C 
ATOM     18  C   UNL     1       5.463   3.585  16.467  0.00  0.00    +0.000 C 
ATOM     19  C   UNL     1       5.700   4.199  15.085  0.00  0.00    +0.000 C 
ATOM     20  C   UNL     1       7.041   4.915  14.930  0.00  0.00    +0.000 C 
ATOM     21  C   UNL     1       7.392   5.800  16.118  0.00  0.00    +0.000 C 
ATOM     22  C   UNL     1       7.264   5.037  17.436  0.00  0.00    +0.000 C 
ENDBRANCH  15  17
ENDBRANCH  12  13
BRANCH   7  23
ATOM     23  C   UNL     1      -1.013  12.927  21.111  0.00  0.00    +0.000 C 
ATOM     24  O   UNL     1      -2.053  12.590  21.649  0.00  0.00    +0.000 OA
BRANCH  23  25
ATOM     25  O   UNL     1      -0.980  13.906  20.181  0.00  0.00    +0.000 OA
ATOM     26  H   UNL     1      -0.229  13.847  19.559  0.00  0.00    +0.000 HD
ENDBRANCH  23  25
ENDBRANCH   7  23
BRANCH   1  27
ATOM     27  S   UNL     1       2.242   5.475  20.885  0.00  0.00    +0.000 S 
BRANCH  27  28
ATOM     28  C   UNL     1       0.831   4.518  20.237  0.00  0.00    +0.000 C 
BRANCH  28  30
ATOM     29  C   UNL     1       1.567   2.580  21.652  0.00  0.00    +0.000 C 
ATOM     30  C   UNL     1       1.150   3.027  20.259  0.00  0.00    +0.000 C 
ENDBRANCH  28  30
ENDBRANCH  27  28
ENDBRANCH   1  27
TORSDOF 7
ENDMDL
MODEL 6
REMARK VINA RESULT:      -7.0      1.508      2.223
REMARK  Name = 
REMARK  8 active torsions:
REMARK  status: ('A' for Active; 'I' for Inactive)
REMARK    1  A    between atoms: C_1  and  C_2
REMARK    2  A    between atoms: C_2  and  C_3
REMARK    3  A    between atoms: C_3  and  S_4
REMARK    4  A    between atoms: S_4  and  C_5
REMARK    5  A    between atoms: C_11  and  C_12
REMARK    6  A    between atoms: C_12  and  O_14
REMARK    7  A    between atoms: C_19  and  C_20
REMARK    8  A    between atoms: N_22  and  C_23
REMARK                            x       y       z     vdW  Elec       q    Type
REMARK                         _______ _______ _______ _____ _____    ______ ____
ROOT
ATOM      1  C   UNL     1       2.207   7.317  19.761  0.00  0.00    +0.000 A 
ATOM      2  N   UNL     1       1.331   8.132  20.415  0.00  0.00    +0.000 NA
ATOM      3  C   UNL     1       0.870   9.250  19.826  0.00  0.00    +0.000 A 
ATOM      4  N   UNL     1       0.035  10.068  20.551  0.00  0.00    +0.000 N 
ATOM      5  C   UNL     1      -0.132  11.486  20.260  0.00  0.00    +0.000 C 
ATOM      6  C   UNL     1       0.060  12.292  21.549  0.00  0.00    +0.000 C 
ATOM      7  C   UNL     1      -0.800  11.777  22.708  0.00  0.00    +0.000 C 
ATOM      8  C   UNL     1      -0.603  10.270  22.904  0.00  0.00    +0.000 C 
ATOM      9  C   UNL     1      -0.802   9.493  21.599  0.00  0.00    +0.000 C 
ATOM     10  C   UNL     1       1.259   9.538  18.521  0.00  0.00    +0.000 A 
ATOM     11  C   UNL     1       2.184   8.721  17.856  0.00  0.00    +0.000 A 
ATOM     12  C   UNL     1       2.719   7.604  18.500  0.00  0.00    +0.000 A 
ENDROOT
BRANCH  12  13
ATOM     13  C   UNL     1       3.731   6.777  17.773  0.00  0.00    +0.000 C 
ATOM     14  O   UNL     1       4.171   7.159  16.695  0.00  0.00    +0.000 OA
ATOM     15  N   UNL     1       4.139   5.613  18.398  0.00  0.00    +0.000 N 
ATOM     16  H   UNL     1       3.730   5.401  19.297  0.00  0.00    +0.000 HD
BRANCH  15  17
ATOM     17  C   UNL     1       4.918   4.551  17.751  0.00  0.00    +0.000 C 
ATOM     18  C   UNL     1       5.418   3.485  18.737  0.00  0.00    +0.000 C 
ATOM     19  C   UNL     1       4.336   2.535  19.257  0.00  0.00    +0.000 C 
ATOM     20  C   UNL     1       3.383   2.010  18.183  0.00  0.00    +0.000 C 
ATOM     21  C   UNL     1       2.912   3.089  17.217  0.00  0.00    +0.000 C 
ATOM     22  C   UNL     1       4.090   3.877  16.646  0.00  0.00    +0.000 C 
ENDBRANCH  15  17
ENDBRANCH  12  13
BRANCH   7  23
ATOM     23  C   UNL     1      -2.272  12.111  22.503  0.00  0.00    +0.000 C 
ATOM     24  O   UNL     1      -2.736  12.670  21.526  0.00  0.00    +0.000 OA
BRANCH  23  25
ATOM     25  O   UNL     1      -3.054  11.700  23.525  0.00  0.00    +0.000 OA
ATOM     26  H   UNL     1      -3.194  10.734  23.562  0.00  0.00    +0.000 HD
ENDBRANCH  23  25
ENDBRANCH   7  23
BRANCH   1  27
ATOM     27  S   UNL     1       2.516   5.800  20.650  0.00  0.00    +0.000 S 
BRANCH  27  28
ATOM     28  C   UNL     1       0.861   5.064  20.443  0.00  0.00    +0.000 C 
BRANCH  28  30
ATOM     29  C   UNL     1       1.458   2.904  21.573  0.00  0.00    +0.000 C 
ATOM     30  C   UNL     1       0.972   3.551  20.285  0.00  0.00    +0.000 C 
ENDBRANCH  28  30
ENDBRANCH  27  28
ENDBRANCH   1  27
TORSDOF 7
ENDMDL
MODEL 7
REMARK VINA RESULT:      -6.9      3.020      8.413
REMARK  Name = 
REMARK  8 active torsions:
REMARK  status: ('A' for Active; 'I' for Inactive)
REMARK    1  A    between atoms: C_1  and  C_2
REMARK    2  A    between atoms: C_2  and  C_3
REMARK    3  A    between atoms: C_3  and  S_4
REMARK    4  A    between atoms: S_4  and  C_5
REMARK    5  A    between atoms: C_11  and  C_12
REMARK    6  A    between atoms: C_12  and  O_14
REMARK    7  A    between atoms: C_19  and  C_20
REMARK    8  A    between atoms: N_22  and  C_23
REMARK                            x       y       z     vdW  Elec       q    Type
REMARK                         _______ _______ _______ _____ _____    ______ ____
ROOT
ATOM      1  C   UNL     1       1.629   8.289  20.201  0.00  0.00    +0.000 A 
ATOM      2  N   UNL     1       2.075   7.002  20.206  0.00  0.00    +0.000 NA
ATOM      3  C   UNL     1       2.420   6.396  19.056  0.00  0.00    +0.000 A 
ATOM      4  N   UNL     1       2.808   5.077  19.108  0.00  0.00    +0.000 N 
ATOM      5  C   UNL     1       2.726   4.182  17.961  0.00  0.00    +0.000 C 
ATOM      6  C   UNL     1       2.000   2.898  18.374  0.00  0.00    +0.000 C 
ATOM      7  C   UNL     1       2.588   2.259  19.636  0.00  0.00    +0.000 C 
ATOM      8  C   UNL     1       2.689   3.285  20.769  0.00  0.00    +0.000 C 
ATOM      9  C   UNL     1       3.420   4.556  20.326  0.00  0.00    +0.000 C 
ATOM     10  C   UNL     1       2.363   7.117  17.866  0.00  0.00    +0.000 A 
ATOM     11  C   UNL     1       1.874   8.430  17.852  0.00  0.00    +0.000 A 
ATOM     12  C   UNL     1       1.445   9.029  19.037  0.00  0.00    +0.000 A 
ENDROOT
BRANCH  12  13
ATOM     13  C   UNL     1       0.895  10.419  18.978  0.00  0.00    +0.000 C 
ATOM     14  O   UNL     1       1.482  11.331  19.546  0.00  0.00    +0.000 OA
ATOM     15  N   UNL     1      -0.259  10.594  18.237  0.00  0.00    +0.000 N 
ATOM     16  H   UNL     1      -0.652   9.777  17.789  0.00  0.00    +0.000 HD
BRANCH  15  17
ATOM     17  C   UNL     1      -1.087  11.806  18.261  0.00  0.00    +0.000 C 
ATOM     18  C   UNL     1      -1.581  12.225  16.868  0.00  0.00    +0.000 C 
ATOM     19  C   UNL     1      -2.688  11.339  16.288  0.00  0.00    +0.000 C 
ATOM     20  C   UNL     1      -3.798  10.983  17.276  0.00  0.00    +0.000 C 
ATOM     21  C   UNL     1      -3.276  10.580  18.648  0.00  0.00    +0.000 C 
ATOM     22  C   UNL     1      -2.292  11.613  19.194  0.00  0.00    +0.000 C 
ENDBRANCH  15  17
ENDBRANCH  12  13
BRANCH   7  23
ATOM     23  C   UNL     1       3.943   1.619  19.360  0.00  0.00    +0.000 C 
ATOM     24  O   UNL     1       4.943   1.773  20.037  0.00  0.00    +0.000 OA
BRANCH  23  25
ATOM     25  O   UNL     1       3.937   0.819  18.272  0.00  0.00    +0.000 OA
ATOM     26  H   UNL     1       4.546   0.057  18.329  0.00  0.00    +0.000 HD
ENDBRANCH  23  25
ENDBRANCH   7  23
BRANCH   1  27
ATOM     27  S   UNL     1       1.429   8.945  21.850  0.00  0.00    +0.000 S 
BRANCH  27  28
ATOM     28  C   UNL     1      -0.384   9.138  21.809  0.00  0.00    +0.000 C 
BRANCH  28  30
ATOM     29  C   UNL     1      -1.159  11.344  22.722  0.00  0.00    +0.000 C 
ATOM     30  C   UNL     1      -0.863   9.887  23.048  0.00  0.00    +0.000 C 
ENDBRANCH  28  30
ENDBRANCH  27  28
ENDBRANCH   1  27
TORSDOF 7
ENDMDL
MODEL 8
REMARK VINA RESULT:      -6.9      2.177      3.670
REMARK  Name = 
REMARK  8 active torsions:
REMARK  status: ('A' for Active; 'I' for Inactive)
REMARK    1  A    between atoms: C_1  and  C_2
REMARK    2  A    between atoms: C_2  and  C_3
REMARK    3  A    between atoms: C_3  and  S_4
REMARK    4  A    between atoms: S_4  and  C_5
REMARK    5  A    between atoms: C_11  and  C_12
REMARK    6  A    between atoms: C_12  and  O_14
REMARK    7  A    between atoms: C_19  and  C_20
REMARK    8  A    between atoms: N_22  and  C_23
REMARK                            x       y       z     vdW  Elec       q    Type
REMARK                         _______ _______ _______ _____ _____    ______ ____
ROOT
ATOM      1  C   UNL     1       1.501   8.533  19.947  0.00  0.00    +0.000 A 
ATOM      2  N   UNL     1       1.068   9.825  19.977  0.00  0.00    +0.000 NA
ATOM      3  C   UNL     1       1.240  10.627  18.911  0.00  0.00    +0.000 A 
ATOM      4  N   UNL     1       0.838  11.939  19.014  0.00  0.00    +0.000 N 
ATOM      5  C   UNL     1       1.387  13.002  18.183  0.00  0.00    +0.000 C 
ATOM      6  C   UNL     1       1.834  14.162  19.078  0.00  0.00    +0.000 C 
ATOM      7  C   UNL     1       0.745  14.619  20.053  0.00  0.00    +0.000 C 
ATOM      8  C   UNL     1       0.188  13.429  20.842  0.00  0.00    +0.000 C 
ATOM      9  C   UNL     1      -0.252  12.287  19.921  0.00  0.00    +0.000 C 
ATOM     10  C   UNL     1       1.821  10.106  17.758  0.00  0.00    +0.000 A 
ATOM     11  C   UNL     1       2.298   8.789  17.733  0.00  0.00    +0.000 A 
ATOM     12  C   UNL     1       2.187   7.984  18.868  0.00  0.00    +0.000 A 
ENDROOT
BRANCH  12  13
ATOM     13  C   UNL     1       2.739   6.595  18.816  0.00  0.00    +0.000 C 
ATOM     14  O   UNL     1       2.091   5.663  19.277  0.00  0.00    +0.000 OA
ATOM     15  N   UNL     1       3.970   6.444  18.206  0.00  0.00    +0.000 N 
ATOM     16  H   UNL     1       4.412   7.276  17.839  0.00  0.00    +0.000 HD
BRANCH  15  17
ATOM     17  C   UNL     1       4.790   5.228  18.276  0.00  0.00    +0.000 C 
ATOM     18  C   UNL     1       4.680   4.355  17.017  0.00  0.00    +0.000 C 
ATOM     19  C   UNL     1       5.401   4.911  15.786  0.00  0.00    +0.000 C 
ATOM     20  C   UNL     1       6.803   5.452  16.064  0.00  0.00    +0.000 C 
ATOM     21  C   UNL     1       6.881   6.306  17.321  0.00  0.00    +0.000 C 
ATOM     22  C   UNL     1       6.263   5.588  18.520  0.00  0.00    +0.000 C 
ENDBRANCH  15  17
ENDBRANCH  12  13
BRANCH   7  23
ATOM     23  C   UNL     1      -0.372  15.365  19.335  0.00  0.00    +0.000 C 
ATOM     24  O   UNL     1      -0.228  16.059  18.345  0.00  0.00    +0.000 OA
BRANCH  23  25
ATOM     25  O   UNL     1      -1.585  15.169  19.896  0.00  0.00    +0.000 OA
ATOM     26  H   UNL     1      -1.769  15.738  20.668  0.00  0.00    +0.000 HD
ENDBRANCH  23  25
ENDBRANCH   7  23
BRANCH   1  27
ATOM     27  S   UNL     1       0.984   7.610  21.385  0.00  0.00    +0.000 S 
BRANCH  27  28
ATOM     28  C   UNL     1      -0.455   8.642  21.823  0.00  0.00    +0.000 C 
BRANCH  28  30
ATOM     29  C   UNL     1      -1.072  10.671  23.165  0.00  0.00    +0.000 C 
ATOM     30  C   UNL     1      -0.156   9.459  23.075  0.00  0.00    +0.000 C 
ENDBRANCH  28  30
ENDBRANCH  27  28
ENDBRANCH   1  27
TORSDOF 7
ENDMDL
MODEL 9
REMARK VINA RESULT:      -6.9      2.220      8.328
REMARK  Name = 
REMARK  8 active torsions:
REMARK  status: ('A' for Active; 'I' for Inactive)
REMARK    1  A    between atoms: C_1  and  C_2
REMARK    2  A    between atoms: C_2  and  C_3
REMARK    3  A    between atoms: C_3  and  S_4
REMARK    4  A    between atoms: S_4  and  C_5
REMARK    5  A    between atoms: C_11  and  C_12
REMARK    6  A    between atoms: C_12  and  O_14
REMARK    7  A    between atoms: C_19  and  C_20
REMARK    8  A    between atoms: N_22  and  C_23
REMARK                            x       y       z     vdW  Elec       q    Type
REMARK                         _______ _______ _______ _____ _____    ______ ____
ROOT
ATOM      1  C   UNL     1       1.989   7.417  19.626  0.00  0.00    +0.000 A 
ATOM      2  N   UNL     1       3.005   6.751  19.007  0.00  0.00    +0.000 NA
ATOM      3  C   UNL     1       3.622   7.288  17.940  0.00  0.00    +0.000 A 
ATOM      4  N   UNL     1       4.601   6.550  17.317  0.00  0.00    +0.000 N 
ATOM      5  C   UNL     1       4.986   6.759  15.927  0.00  0.00    +0.000 C 
ATOM      6  C   UNL     1       4.967   5.416  15.190  0.00  0.00    +0.000 C 
ATOM      7  C   UNL     1       5.769   4.328  15.913  0.00  0.00    +0.000 C 
ATOM      8  C   UNL     1       5.337   4.218  17.379  0.00  0.00    +0.000 C 
ATOM      9  C   UNL     1       5.366   5.575  18.087  0.00  0.00    +0.000 C 
ATOM     10  C   UNL     1       3.244   8.556  17.506  0.00  0.00    +0.000 A 
ATOM     11  C   UNL     1       2.179   9.230  18.117  0.00  0.00    +0.000 A 
ATOM     12  C   UNL     1       1.490   8.635  19.176  0.00  0.00    +0.000 A 
ENDROOT
BRANCH  12  13
ATOM     13  C   UNL     1       0.336   9.369  19.780  0.00  0.00    +0.000 C 
ATOM     14  O   UNL     1      -0.268   8.881  20.728  0.00  0.00    +0.000 OA
ATOM     15  N   UNL     1       0.034  10.602  19.233  0.00  0.00    +0.000 N 
ATOM     16  H   UNL     1       0.610  10.923  18.466  0.00  0.00    +0.000 HD
BRANCH  15  17
ATOM     17  C   UNL     1      -1.195  11.355  19.506  0.00  0.00    +0.000 C 
ATOM     18  C   UNL     1      -1.128  12.166  20.809  0.00  0.00    +0.000 C 
ATOM     19  C   UNL     1      -0.241  13.412  20.744  0.00  0.00    +0.000 C 
ATOM     20  C   UNL     1      -0.421  14.253  19.481  0.00  0.00    +0.000 C 
ATOM     21  C   UNL     1      -0.491  13.421  18.208  0.00  0.00    +0.000 C 
ATOM     22  C   UNL     1      -1.519  12.297  18.335  0.00  0.00    +0.000 C 
ENDBRANCH  15  17
ENDBRANCH  12  13
BRANCH   7  23
ATOM     23  C   UNL     1       7.268   4.573  15.805  0.00  0.00    +0.000 C 
ATOM     24  O   UNL     1       7.819   5.163  14.893  0.00  0.00    +0.000 OA
BRANCH  23  25
ATOM     25  O   UNL     1       7.961   4.082  16.855  0.00  0.00    +0.000 OA
ATOM     26  H   UNL     1       8.675   3.462  16.613  0.00  0.00    +0.000 HD
ENDBRANCH  23  25
ENDBRANCH   7  23
BRANCH   1  27
ATOM     27  S   UNL     1       1.466   6.611  21.131  0.00  0.00    +0.000 S 
BRANCH  27  28
ATOM     28  C   UNL     1       2.233   4.988  20.808  0.00  0.00    +0.000 C 
BRANCH  28  30
ATOM     29  C   UNL     1       1.372   2.732  21.493  0.00  0.00    +0.000 C 
ATOM     30  C   UNL     1       1.158   3.931  20.581  0.00  0.00    +0.000 C 
ENDBRANCH  28  30
ENDBRANCH  27  28
ENDBRANCH   1  27
TORSDOF 7
ENDMDL
