MODEL 1
REMARK VINA RESULT:      -8.5      0.000      0.000
REMARK  Name = 
REMARK  5 active torsions:
REMARK  status: ('A' for Active; 'I' for Inactive)
REMARK    1  A    between atoms: C_1  and  C_2
REMARK    2  A    between atoms: N_9  and  C_10
REMARK    3  A    between atoms: N_13  and  C_14
REMARK    4  A    between atoms: C_14  and  C_15
REMARK    5  A    between atoms: C_18  and  S_19
REMARK                            x       y       z     vdW  Elec       q    Type
REMARK                         _______ _______ _______ _____ _____    ______ ____
ROOT
ATOM      1  C   UNL     1       3.343   7.032  19.152  0.00  0.00    +0.000 C 
ATOM      2  C   UNL     1       2.897   7.487  17.761  0.00  0.00    +0.000 C 
ATOM      3  C   UNL     1       2.371   8.918  17.826  0.00  0.00    +0.000 C 
ATOM      4  N   UNL     1       1.252   9.055  18.772  0.00  0.00    +0.000 NA
ATOM      5  C   UNL     1       1.595   8.545  20.116  0.00  0.00    +0.000 C 
ATOM      6  C   UNL     1       2.141   7.112  20.097  0.00  0.00    +0.000 C 
ENDROOT
BRANCH   1  15
ATOM      7  C   UNL     1       0.334   2.502  18.949  0.00  0.00    +0.000 C 
ATOM      8  C   UNL     1       1.767   2.928  19.083  0.00  0.00    +0.000 A 
ATOM      9  N   UNL     1       2.665   1.932  19.280  0.00  0.00    +0.000 NA
ATOM     10  C   UNL     1       3.973   2.242  19.410  0.00  0.00    +0.000 A 
ATOM     11  N   UNL     1       4.872   1.215  19.663  0.00  0.00    +0.000 N 
ATOM     12  C   UNL     1       4.358   3.584  19.287  0.00  0.00    +0.000 A 
ATOM     13  N   UNL     1       5.592   4.200  19.323  0.00  0.00    +0.000 NA
ATOM     14  C   UNL     1       5.328   5.484  19.208  0.00  0.00    +0.000 A 
ATOM     15  N   UNL     1       3.983   5.727  19.106  0.00  0.00    +0.000 N 
ATOM     16  C   UNL     1       3.344   4.511  19.108  0.00  0.00    +0.000 A 
ATOM     17  N   UNL     1       2.025   4.257  19.004  0.00  0.00    +0.000 NA
ATOM     18  H   UNL     1       4.521   0.312  19.374  0.00  0.00    +0.000 HD
ATOM     19  H   UNL     1       5.832   1.454  19.441  0.00  0.00    +0.000 HD
ENDBRANCH   1  15
BRANCH   4  20
ATOM     20  C   UNL     1       0.845  10.476  18.890  0.00  0.00    +0.000 C 
BRANCH  20  21
ATOM     21  C   UNL     1      -0.624  10.748  18.617  0.00  0.00    +0.000 A 
ATOM     22  C   UNL     1      -1.363   9.912  17.765  0.00  0.00    +0.000 A 
ATOM     23  C   UNL     1      -2.731  10.122  17.574  0.00  0.00    +0.000 A 
ATOM     24  C   UNL     1      -3.363  11.168  18.250  0.00  0.00    +0.000 A 
ATOM     25  C   UNL     1      -2.642  12.032  19.075  0.00  0.00    +0.000 A 
ATOM     26  C   UNL     1      -1.274  11.817  19.257  0.00  0.00    +0.000 A 
BRANCH  24  27
ATOM     27  S   UNL     1      -5.101  11.418  18.042  0.00  0.00    +0.000 S 
ATOM     28  O   UNL     1      -5.315  11.916  16.700  0.00  0.00    +0.000 OA
ATOM     29  O   UNL     1      -5.783  10.247  18.558  0.00  0.00    +0.000 OA
ATOM     30  F   UNL     1      -5.514  12.603  19.014  0.00  0.00    +0.000 F 
ENDBRANCH  24  27
ENDBRANCH  20  21
ENDBRANCH   4  20
TORSDOF 4
ENDMDL
MODEL 2
REMARK VINA RESULT:      -8.1      2.824      3.545
REMARK  Name = 
REMARK  5 active torsions:
REMARK  status: ('A' for Active; 'I' for Inactive)
REMARK    1  A    between atoms: C_1  and  C_2
REMARK    2  A    between atoms: N_9  and  C_10
REMARK    3  A    between atoms: N_13  and  C_14
REMARK    4  A    between atoms: C_14  and  C_15
REMARK    5  A    between atoms: C_18  and  S_19
REMARK                            x       y       z     vdW  Elec       q    Type
REMARK                         _______ _______ _______ _____ _____    ______ ____
ROOT
ATOM      1  C   UNL     1       2.353   7.401  19.708  0.00  0.00    +0.000 C 
ATOM      2  C   UNL     1       1.758   7.943  18.407  0.00  0.00    +0.000 C 
ATOM      3  C   UNL     1       1.533   9.447  18.524  0.00  0.00    +0.000 C 
ATOM      4  N   UNL     1       0.649   9.790  19.650  0.00  0.00    +0.000 NA
ATOM      5  C   UNL     1       1.126   9.214  20.925  0.00  0.00    +0.000 C 
ATOM      6  C   UNL     1       1.378   7.703  20.849  0.00  0.00    +0.000 C 
ENDROOT
BRANCH   1  15
ATOM      7  C   UNL     1       5.512   5.728  15.605  0.00  0.00    +0.000 C 
ATOM      8  C   UNL     1       4.709   5.168  16.742  0.00  0.00    +0.000 A 
ATOM      9  N   UNL     1       4.645   3.816  16.813  0.00  0.00    +0.000 NA
ATOM     10  C   UNL     1       3.938   3.242  17.810  0.00  0.00    +0.000 A 
ATOM     11  N   UNL     1       3.840   1.858  17.837  0.00  0.00    +0.000 N 
ATOM     12  C   UNL     1       3.335   4.072  18.767  0.00  0.00    +0.000 A 
ATOM     13  N   UNL     1       2.603   3.795  19.903  0.00  0.00    +0.000 NA
ATOM     14  C   UNL     1       2.251   4.974  20.369  0.00  0.00    +0.000 A 
ATOM     15  N   UNL     1       2.714   5.998  19.585  0.00  0.00    +0.000 N 
ATOM     16  C   UNL     1       3.455   5.438  18.572  0.00  0.00    +0.000 A 
ATOM     17  N   UNL     1       4.121   6.058  17.579  0.00  0.00    +0.000 NA
ATOM     18  H   UNL     1       4.587   1.405  17.329  0.00  0.00    +0.000 HD
ATOM     19  H   UNL     1       3.581   1.488  18.745  0.00  0.00    +0.000 HD
ENDBRANCH   1  15
BRANCH   4  20
ATOM     20  C   UNL     1       0.548  11.262  19.799  0.00  0.00    +0.000 C 
BRANCH  20  21
ATOM     21  C   UNL     1      -0.608  11.741  20.660  0.00  0.00    +0.000 A 
ATOM     22  C   UNL     1      -1.821  12.140  20.077  0.00  0.00    +0.000 A 
ATOM     23  C   UNL     1      -2.906  12.511  20.876  0.00  0.00    +0.000 A 
ATOM     24  C   UNL     1      -2.777  12.470  22.265  0.00  0.00    +0.000 A 
ATOM     25  C   UNL     1      -1.570  12.110  22.866  0.00  0.00    +0.000 A 
ATOM     26  C   UNL     1      -0.490  11.744  22.061  0.00  0.00    +0.000 A 
BRANCH  24  27
ATOM     27  S   UNL     1      -4.156  12.903  23.283  0.00  0.00    +0.000 S 
ATOM     28  O   UNL     1      -3.971  14.273  23.713  0.00  0.00    +0.000 OA
ATOM     29  O   UNL     1      -5.361  12.451  22.615  0.00  0.00    +0.000 OA
ATOM     30  F   UNL     1      -4.052  12.020  24.598  0.00  0.00    +0.000 F 
ENDBRANCH  24  27
ENDBRANCH  20  21
ENDBRANCH   4  20
TORSDOF 4
ENDMDL
MODEL 3
REMARK VINA RESULT:      -8.1      1.114      1.512
REMARK  Name = 
REMARK  5 active torsions:
REMARK  status: ('A' for Active; 'I' for Inactive)
REMARK    1  A    between atoms: C_1  and  C_2
REMARK    2  A    between atoms: N_9  and  C_10
REMARK    3  A    between atoms: N_13  and  C_14
REMARK    4  A    between atoms: C_14  and  C_15
REMARK    5  A    between atoms: C_18  and  S_19
REMARK                            x       y       z     vdW  Elec       q    Type
REMARK                         _______ _______ _______ _____ _____    ______ ____
ROOT
ATOM      1  C   UNL     1       3.123   7.090  19.081  0.00  0.00    +0.000 C 
ATOM      2  C   UNL     1       2.633   7.581  17.717  0.00  0.00    +0.000 C 
ATOM      3  C   UNL     1       2.131   9.017  17.831  0.00  0.00    +0.000 C 
ATOM      4  N   UNL     1       1.048   9.149  18.820  0.00  0.00    +0.000 NA
ATOM      5  C   UNL     1       1.432   8.606  20.139  0.00  0.00    +0.000 C 
ATOM      6  C   UNL     1       1.956   7.166  20.070  0.00  0.00    +0.000 C 
ENDROOT
BRANCH   1  15
ATOM      7  C   UNL     1       1.115   2.890  21.900  0.00  0.00    +0.000 C 
ATOM      8  C   UNL     1       2.281   3.234  21.020  0.00  0.00    +0.000 A 
ATOM      9  N   UNL     1       3.217   2.265  20.870  0.00  0.00    +0.000 NA
ATOM     10  C   UNL     1       4.295   2.507  20.094  0.00  0.00    +0.000 A 
ATOM     11  N   UNL     1       5.268   1.522  19.994  0.00  0.00    +0.000 N 
ATOM     12  C   UNL     1       4.379   3.738  19.429  0.00  0.00    +0.000 A 
ATOM     13  N   UNL     1       5.309   4.254  18.550  0.00  0.00    +0.000 NA
ATOM     14  C   UNL     1       4.892   5.477  18.302  0.00  0.00    +0.000 A 
ATOM     15  N   UNL     1       3.741   5.778  18.984  0.00  0.00    +0.000 N 
ATOM     16  C   UNL     1       3.370   4.653  19.680  0.00  0.00    +0.000 A 
ATOM     17  N   UNL     1       2.293   4.473  20.469  0.00  0.00    +0.000 NA
ATOM     18  H   UNL     1       4.916   0.602  20.217  0.00  0.00    +0.000 HD
ATOM     19  H   UNL     1       5.867   1.626  19.182  0.00  0.00    +0.000 HD
ENDBRANCH   1  15
BRANCH   4  20
ATOM     20  C   UNL     1       0.667  10.573  18.983  0.00  0.00    +0.000 C 
BRANCH  20  21
ATOM     21  C   UNL     1      -0.817  10.860  18.833  0.00  0.00    +0.000 A 
ATOM     22  C   UNL     1      -1.426  11.891  19.567  0.00  0.00    +0.000 A 
ATOM     23  C   UNL     1      -2.775  12.200  19.373  0.00  0.00    +0.000 A 
ATOM     24  C   UNL     1      -3.513  11.480  18.432  0.00  0.00    +0.000 A 
ATOM     25  C   UNL     1      -2.937  10.429  17.716  0.00  0.00    +0.000 A 
ATOM     26  C   UNL     1      -1.590  10.124  17.918  0.00  0.00    +0.000 A 
BRANCH  24  27
ATOM     27  S   UNL     1      -5.210  11.889  18.154  0.00  0.00    +0.000 S 
ATOM     28  O   UNL     1      -5.959  10.651  18.117  0.00  0.00    +0.000 OA
ATOM     29  O   UNL     1      -5.555  12.983  19.042  0.00  0.00    +0.000 OA
ATOM     30  F   UNL     1      -5.304  12.495  16.690  0.00  0.00    +0.000 F 
ENDBRANCH  24  27
ENDBRANCH  20  21
ENDBRANCH   4  20
TORSDOF 4
ENDMDL
MODEL 4
REMARK VINA RESULT:      -8.0      2.955      3.674
REMARK  Name = 
REMARK  5 active torsions:
REMARK  status: ('A' for Active; 'I' for Inactive)
REMARK    1  A    between atoms: C_1  and  C_2
REMARK    2  A    between atoms: N_9  and  C_10
REMARK    3  A    between atoms: N_13  and  C_14
REMARK    4  A    between atoms: C_14  and  C_15
REMARK    5  A    between atoms: C_18  and  S_19
REMARK                            x       y       z     vdW  Elec       q    Type
REMARK                         _______ _______ _______ _____ _____    ______ ____
ROOT
ATOM      1  C   UNL     1       2.376   7.319  19.778  0.00  0.00    +0.000 C 
ATOM      2  C   UNL     1       1.754   7.862  18.490  0.00  0.00    +0.000 C 
ATOM      3  C   UNL     1       1.477   9.355  18.635  0.00  0.00    +0.000 C 
ATOM      4  N   UNL     1       0.588   9.646  19.772  0.00  0.00    +0.000 NA
ATOM      5  C   UNL     1       1.092   9.066  21.034  0.00  0.00    +0.000 C 
ATOM      6  C   UNL     1       1.398   7.566  20.930  0.00  0.00    +0.000 C 
ENDROOT
BRANCH   1  15
ATOM      7  C   UNL     1       5.459   5.807  15.556  0.00  0.00    +0.000 C 
ATOM      8  C   UNL     1       4.715   5.206  16.713  0.00  0.00    +0.000 A 
ATOM      9  N   UNL     1       4.705   3.851  16.772  0.00  0.00    +0.000 NA
ATOM     10  C   UNL     1       4.054   3.242  17.786  0.00  0.00    +0.000 A 
ATOM     11  N   UNL     1       4.010   1.854  17.801  0.00  0.00    +0.000 N 
ATOM     12  C   UNL     1       3.452   4.038  18.770  0.00  0.00    +0.000 A 
ATOM     13  N   UNL     1       2.770   3.723  19.926  0.00  0.00    +0.000 NA
ATOM     14  C   UNL     1       2.388   4.883  20.417  0.00  0.00    +0.000 A 
ATOM     15  N   UNL     1       2.786   5.932  19.628  0.00  0.00    +0.000 N 
ATOM     16  C   UNL     1       3.513   5.410  18.586  0.00  0.00    +0.000 A 
ATOM     17  N   UNL     1       4.122   6.065  17.578  0.00  0.00    +0.000 NA
ATOM     18  H   UNL     1       4.757   1.436  17.264  0.00  0.00    +0.000 HD
ATOM     19  H   UNL     1       3.795   1.467  18.713  0.00  0.00    +0.000 HD
ENDBRANCH   1  15
BRANCH   4  20
ATOM     20  C   UNL     1       0.435  11.110  19.947  0.00  0.00    +0.000 C 
BRANCH  20  21
ATOM     21  C   UNL     1      -0.703  11.532  20.860  0.00  0.00    +0.000 A 
ATOM     22  C   UNL     1      -0.620  11.338  22.248  0.00  0.00    +0.000 A 
ATOM     23  C   UNL     1      -1.636  11.792  23.092  0.00  0.00    +0.000 A 
ATOM     24  C   UNL     1      -2.736  12.455  22.543  0.00  0.00    +0.000 A 
ATOM     25  C   UNL     1      -2.856  12.629  21.163  0.00  0.00    +0.000 A 
ATOM     26  C   UNL     1      -1.837  12.168  20.327  0.00  0.00    +0.000 A 
BRANCH  24  27
ATOM     27  S   UNL     1      -4.008  13.065  23.607  0.00  0.00    +0.000 S 
ATOM     28  O   UNL     1      -4.900  13.874  22.803  0.00  0.00    +0.000 OA
ATOM     29  O   UNL     1      -4.477  11.960  24.420  0.00  0.00    +0.000 OA
ATOM     30  F   UNL     1      -3.316  14.067  24.625  0.00  0.00    +0.000 F 
ENDBRANCH  24  27
ENDBRANCH  20  21
ENDBRANCH   4  20
TORSDOF 4
ENDMDL
MODEL 5
REMARK VINA RESULT:      -8.0      1.836      2.947
REMARK  Name = 
REMARK  5 active torsions:
REMARK  status: ('A' for Active; 'I' for Inactive)
REMARK    1  A    between atoms: C_1  and  C_2
REMARK    2  A    between atoms: N_9  and  C_10
REMARK    3  A    between atoms: N_13  and  C_14
REMARK    4  A    between atoms: C_14  and  C_15
REMARK    5  A    between atoms: C_18  and  S_19
REMARK                            x       y       z     vdW  Elec       q    Type
REMARK                         _______ _______ _______ _____ _____    ______ ____
ROOT
ATOM      1  C   UNL     1       2.255   7.364  19.862  0.00  0.00    +0.000 C 
ATOM      2  C   UNL     1       1.936   7.755  18.418  0.00  0.00    +0.000 C 
ATOM      3  C   UNL     1       1.745   9.266  18.318  0.00  0.00    +0.000 C 
ATOM      4  N   UNL     1       0.675   9.748  19.207  0.00  0.00    +0.000 NA
ATOM      5  C   UNL     1       0.881   9.322  20.606  0.00  0.00    +0.000 C 
ATOM      6  C   UNL     1       1.092   7.810  20.753  0.00  0.00    +0.000 C 
ENDROOT
BRANCH   1  15
ATOM      7  C   UNL     1       7.238   5.601  18.566  0.00  0.00    +0.000 C 
ATOM      8  C   UNL     1       5.892   5.065  18.957  0.00  0.00    +0.000 A 
ATOM      9  N   UNL     1       5.769   3.715  18.957  0.00  0.00    +0.000 NA
ATOM     10  C   UNL     1       4.585   3.162  19.297  0.00  0.00    +0.000 A 
ATOM     11  N   UNL     1       4.463   1.780  19.241  0.00  0.00    +0.000 N 
ATOM     12  C   UNL     1       3.538   4.009  19.687  0.00  0.00    +0.000 A 
ATOM     13  N   UNL     1       2.256   3.753  20.125  0.00  0.00    +0.000 NA
ATOM     14  C   UNL     1       1.715   4.942  20.289  0.00  0.00    +0.000 A 
ATOM     15  N   UNL     1       2.586   5.952  19.971  0.00  0.00    +0.000 N 
ATOM     16  C   UNL     1       3.782   5.371  19.626  0.00  0.00    +0.000 A 
ATOM     17  N   UNL     1       4.932   5.972  19.263  0.00  0.00    +0.000 NA
ATOM     18  H   UNL     1       5.354   1.308  19.297  0.00  0.00    +0.000 HD
ATOM     19  H   UNL     1       3.690   1.420  19.790  0.00  0.00    +0.000 HD
ENDBRANCH   1  15
BRANCH   4  20
ATOM     20  C   UNL     1       0.597  11.229  19.165  0.00  0.00    +0.000 C 
BRANCH  20  21
ATOM     21  C   UNL     1      -0.742  11.812  19.582  0.00  0.00    +0.000 A 
ATOM     22  C   UNL     1      -1.901  11.559  18.832  0.00  0.00    +0.000 A 
ATOM     23  C   UNL     1      -3.143  12.037  19.258  0.00  0.00    +0.000 A 
ATOM     24  C   UNL     1      -3.224  12.762  20.448  0.00  0.00    +0.000 A 
ATOM     25  C   UNL     1      -2.080  13.055  21.192  0.00  0.00    +0.000 A 
ATOM     26  C   UNL     1      -0.842  12.577  20.757  0.00  0.00    +0.000 A 
BRANCH  24  27
ATOM     27  S   UNL     1      -4.796  13.339  21.014  0.00  0.00    +0.000 S 
ATOM     28  O   UNL     1      -5.535  12.192  21.498  0.00  0.00    +0.000 OA
ATOM     29  O   UNL     1      -4.571  14.521  21.824  0.00  0.00    +0.000 OA
ATOM     30  F   UNL     1      -5.585  13.853  19.736  0.00  0.00    +0.000 F 
ENDBRANCH  24  27
ENDBRANCH  20  21
ENDBRANCH   4  20
TORSDOF 4
ENDMDL
MODEL 6
REMARK VINA RESULT:      -8.0      3.777      4.297
REMARK  Name = 
REMARK  5 active torsions:
REMARK  status: ('A' for Active; 'I' for Inactive)
REMARK    1  A    between atoms: C_1  and  C_2
REMARK    2  A    between atoms: N_9  and  C_10
REMARK    3  A    between atoms: N_13  and  C_14
REMARK    4  A    between atoms: C_14  and  C_15
REMARK    5  A    between atoms: C_18  and  S_19
REMARK                            x       y       z     vdW  Elec       q    Type
REMARK                         _______ _______ _______ _____ _____    ______ ____
ROOT
ATOM      1  C   UNL     1       2.384   7.191  18.719  0.00  0.00    +0.000 C 
ATOM      2  C   UNL     1       2.095   7.825  20.081  0.00  0.00    +0.000 C 
ATOM      3  C   UNL     1       1.027   8.905  19.937  0.00  0.00    +0.000 C 
ATOM      4  N   UNL     1       1.424   9.952  18.981  0.00  0.00    +0.000 NA
ATOM      5  C   UNL     1       1.803   9.390  17.668  0.00  0.00    +0.000 C 
ATOM      6  C   UNL     1       2.866   8.289  17.767  0.00  0.00    +0.000 C 
ENDROOT
BRANCH   1  15
ATOM      7  C   UNL     1       0.439   2.110  18.833  0.00  0.00    +0.000 C 
ATOM      8  C   UNL     1       1.734   2.852  18.993  0.00  0.00    +0.000 A 
ATOM      9  N   UNL     1       2.809   2.100  19.335  0.00  0.00    +0.000 NA
ATOM     10  C   UNL     1       4.007   2.701  19.498  0.00  0.00    +0.000 A 
ATOM     11  N   UNL     1       5.085   1.924  19.898  0.00  0.00    +0.000 N 
ATOM     12  C   UNL     1       4.103   4.079  19.257  0.00  0.00    +0.000 A 
ATOM     13  N   UNL     1       5.170   4.952  19.290  0.00  0.00    +0.000 NA
ATOM     14  C   UNL     1       4.646   6.131  19.031  0.00  0.00    +0.000 A 
ATOM     15  N   UNL     1       3.290   6.061  18.838  0.00  0.00    +0.000 N 
ATOM     16  C   UNL     1       2.929   4.739  18.933  0.00  0.00    +0.000 A 
ATOM     17  N   UNL     1       1.707   4.192  18.790  0.00  0.00    +0.000 NA
ATOM     18  H   UNL     1       4.958   0.944  19.687  0.00  0.00    +0.000 HD
ATOM     19  H   UNL     1       5.985   2.348  19.701  0.00  0.00    +0.000 HD
ENDBRANCH   1  15
BRANCH   4  20
ATOM     20  C   UNL     1       0.317  10.919  18.785  0.00  0.00    +0.000 C 
BRANCH  20  21
ATOM     21  C   UNL     1       0.730  12.380  18.806  0.00  0.00    +0.000 A 
ATOM     22  C   UNL     1       2.070  12.751  18.613  0.00  0.00    +0.000 A 
ATOM     23  C   UNL     1       2.435  14.098  18.560  0.00  0.00    +0.000 A 
ATOM     24  C   UNL     1       1.449  15.079  18.691  0.00  0.00    +0.000 A 
ATOM     25  C   UNL     1       0.116  14.734  18.918  0.00  0.00    +0.000 A 
ATOM     26  C   UNL     1      -0.239  13.385  18.973  0.00  0.00    +0.000 A 
BRANCH  24  27
ATOM     27  S   UNL     1       1.897  16.786  18.589  0.00  0.00    +0.000 S 
ATOM     28  O   UNL     1       1.540  17.408  19.846  0.00  0.00    +0.000 OA
ATOM     29  O   UNL     1       3.234  16.863  18.032  0.00  0.00    +0.000 OA
ATOM     30  F   UNL     1       0.952  17.445  17.497  0.00  0.00    +0.000 F 
ENDBRANCH  24  27
ENDBRANCH  20  21
ENDBRANCH   4  20
TORSDOF 4
ENDMDL
MODEL 7
REMARK VINA RESULT:      -8.0      2.642      3.040
REMARK  Name = 
REMARK  5 active torsions:
REMARK  status: ('A' for Active; 'I' for Inactive)
REMARK    1  A    between atoms: C_1  and  C_2
REMARK    2  A    between atoms: N_9  and  C_10
REMARK    3  A    between atoms: N_13  and  C_14
REMARK    4  A    between atoms: C_14  and  C_15
REMARK    5  A    between atoms: C_18  and  S_19
REMARK                            x       y       z     vdW  Elec       q    Type
REMARK                         _______ _______ _______ _____ _____    ______ ____
ROOT
ATOM      1  C   UNL     1       2.616   7.429  19.035  0.00  0.00    +0.000 C 
ATOM      2  C   UNL     1       1.913   8.329  18.017  0.00  0.00    +0.000 C 
ATOM      3  C   UNL     1       1.724   9.726  18.600  0.00  0.00    +0.000 C 
ATOM      4  N   UNL     1       0.951   9.703  19.854  0.00  0.00    +0.000 NA
ATOM      5  C   UNL     1       1.533   8.777  20.848  0.00  0.00    +0.000 C 
ATOM      6  C   UNL     1       1.754   7.362  20.298  0.00  0.00    +0.000 C 
ENDROOT
BRANCH   1  15
ATOM      7  C   UNL     1       1.334   2.854  21.688  0.00  0.00    +0.000 C 
ATOM      8  C   UNL     1       2.079   3.307  20.467  0.00  0.00    +0.000 A 
ATOM      9  N   UNL     1       2.722   2.336  19.772  0.00  0.00    +0.000 NA
ATOM     10  C   UNL     1       3.414   2.672  18.662  0.00  0.00    +0.000 A 
ATOM     11  N   UNL     1       4.109   1.674  17.992  0.00  0.00    +0.000 N 
ATOM     12  C   UNL     1       3.401   4.010  18.243  0.00  0.00    +0.000 A 
ATOM     13  N   UNL     1       3.959   4.644  17.152  0.00  0.00    +0.000 NA
ATOM     14  C   UNL     1       3.660   5.915  17.316  0.00  0.00    +0.000 A 
ATOM     15  N   UNL     1       2.943   6.133  18.464  0.00  0.00    +0.000 N 
ATOM     16  C   UNL     1       2.726   4.910  19.051  0.00  0.00    +0.000 A 
ATOM     17  N   UNL     1       2.048   4.632  20.181  0.00  0.00    +0.000 NA
ATOM     18  H   UNL     1       3.746   0.751  18.186  0.00  0.00    +0.000 HD
ATOM     19  H   UNL     1       4.334   1.912  17.033  0.00  0.00    +0.000 HD
ENDBRANCH   1  15
BRANCH   4  20
ATOM     20  C   UNL     1       0.887  11.061  20.447  0.00  0.00    +0.000 C 
BRANCH  20  21
ATOM     21  C   UNL     1      -0.430  11.404  21.120  0.00  0.00    +0.000 A 
ATOM     22  C   UNL     1      -0.634  11.130  22.482  0.00  0.00    +0.000 A 
ATOM     23  C   UNL     1      -1.818  11.513  23.116  0.00  0.00    +0.000 A 
ATOM     24  C   UNL     1      -2.799  12.185  22.383  0.00  0.00    +0.000 A 
ATOM     25  C   UNL     1      -2.633  12.438  21.021  0.00  0.00    +0.000 A 
ATOM     26  C   UNL     1      -1.447  12.048  20.394  0.00  0.00    +0.000 A 
BRANCH  24  27
ATOM     27  S   UNL     1      -4.285  12.706  23.186  0.00  0.00    +0.000 S 
ATOM     28  O   UNL     1      -5.375  12.522  22.251  0.00  0.00    +0.000 OA
ATOM     29  O   UNL     1      -4.295  12.134  24.518  0.00  0.00    +0.000 OA
ATOM     30  F   UNL     1      -4.164  14.273  23.405  0.00  0.00    +0.000 F 
ENDBRANCH  24  27
ENDBRANCH  20  21
ENDBRANCH   4  20
TORSDOF 4
ENDMDL
MODEL 8
REMARK VINA RESULT:      -8.0      1.911      2.643
REMARK  Name = 
REMARK  5 active torsions:
REMARK  status: ('A' for Active; 'I' for Inactive)
REMARK    1  A    between atoms: C_1  and  C_2
REMARK    2  A    between atoms: N_9  and  C_10
REMARK    3  A    between atoms: N_13  and  C_14
REMARK    4  A    between atoms: C_14  and  C_15
REMARK    5  A    between atoms: C_18  and  S_19
REMARK                            x       y       z     vdW  Elec       q    Type
REMARK                         _______ _______ _______ _____ _____    ______ ____
ROOT
ATOM      1  C   UNL     1       2.354   7.533  19.500  0.00  0.00    +0.000 C 
ATOM      2  C   UNL     1       1.808   7.951  18.133  0.00  0.00    +0.000 C 
ATOM      3  C   UNL     1       1.538   9.453  18.117  0.00  0.00    +0.000 C 
ATOM      4  N   UNL     1       0.592   9.857  19.170  0.00  0.00    +0.000 NA
ATOM      5  C   UNL     1       1.022   9.401  20.508  0.00  0.00    +0.000 C 
ATOM      6  C   UNL     1       1.318   7.897  20.567  0.00  0.00    +0.000 C 
ENDROOT
BRANCH   1  15
ATOM      7  C   UNL     1       5.522   5.567  15.536  0.00  0.00    +0.000 C 
ATOM      8  C   UNL     1       4.748   5.096  16.733  0.00  0.00    +0.000 A 
ATOM      9  N   UNL     1       4.727   3.756  16.935  0.00  0.00    +0.000 NA
ATOM     10  C   UNL     1       4.049   3.261  17.992  0.00  0.00    +0.000 A 
ATOM     11  N   UNL     1       3.995   1.883  18.154  0.00  0.00    +0.000 N 
ATOM     12  C   UNL     1       3.430   4.160  18.872  0.00  0.00    +0.000 A 
ATOM     13  N   UNL     1       2.719   3.972  20.039  0.00  0.00    +0.000 NA
ATOM     14  C   UNL     1       2.334   5.180  20.394  0.00  0.00    +0.000 A 
ATOM     15  N   UNL     1       2.758   6.137  19.508  0.00  0.00    +0.000 N 
ATOM     16  C   UNL     1       3.505   5.504  18.545  0.00  0.00    +0.000 A 
ATOM     17  N   UNL     1       4.141   6.045  17.488  0.00  0.00    +0.000 NA
ATOM     18  H   UNL     1       4.751   1.406  17.682  0.00  0.00    +0.000 HD
ATOM     19  H   UNL     1       3.757   1.595  19.097  0.00  0.00    +0.000 HD
ENDBRANCH   1  15
BRANCH   4  20
ATOM     20  C   UNL     1       0.445  11.333  19.194  0.00  0.00    +0.000 C 
BRANCH  20  21
ATOM     21  C   UNL     1      -0.955  11.832  19.507  0.00  0.00    +0.000 A 
ATOM     22  C   UNL     1      -2.033  11.524  18.663  0.00  0.00    +0.000 A 
ATOM     23  C   UNL     1      -3.331  11.924  18.992  0.00  0.00    +0.000 A 
ATOM     24  C   UNL     1      -3.550  12.625  20.179  0.00  0.00    +0.000 A 
ATOM     25  C   UNL     1      -2.489  12.972  21.016  0.00  0.00    +0.000 A 
ATOM     26  C   UNL     1      -1.194  12.572  20.678  0.00  0.00    +0.000 A 
BRANCH  24  27
ATOM     27  S   UNL     1      -5.193  13.103  20.621  0.00  0.00    +0.000 S 
ATOM     28  O   UNL     1      -5.857  13.556  19.417  0.00  0.00    +0.000 OA
ATOM     29  O   UNL     1      -5.744  12.065  21.472  0.00  0.00    +0.000 OA
ATOM     30  F   UNL     1      -5.067  14.381  21.553  0.00  0.00    +0.000 F 
ENDBRANCH  24  27
ENDBRANCH  20  21
ENDBRANCH   4  20
TORSDOF 4
ENDMDL
MODEL 9
REMARK VINA RESULT:      -7.9      6.298     10.043
REMARK  Name = 
REMARK  5 active torsions:
REMARK  status: ('A' for Active; 'I' for Inactive)
REMARK    1  A    between atoms: C_1  and  C_2
REMARK    2  A    between atoms: N_9  and  C_10
REMARK    3  A    between atoms: N_13  and  C_14
REMARK    4  A    between atoms: C_14  and  C_15
REMARK    5  A    between atoms: C_18  and  S_19
REMARK                            x       y       z     vdW  Elec       q    Type
REMARK                         _______ _______ _______ _____ _____    ______ ____
ROOT
ATOM      1  C   UNL     1       0.344  10.393  19.638  0.00  0.00    +0.000 C 
ATOM      2  C   UNL     1       1.296  10.099  18.476  0.00  0.00    +0.000 C 
ATOM      3  C   UNL     1       1.566   8.600  18.390  0.00  0.00    +0.000 C 
ATOM      4  N   UNL     1       2.133   8.066  19.639  0.00  0.00    +0.000 NA
ATOM      5  C   UNL     1       1.300   8.398  20.814  0.00  0.00    +0.000 C 
ATOM      6  C   UNL     1       0.993   9.897  20.932  0.00  0.00    +0.000 C 
ENDROOT
BRANCH   1  15
ATOM      7  C   UNL     1      -3.091  12.212  23.446  0.00  0.00    +0.000 C 
ATOM      8  C   UNL     1      -2.393  12.685  22.204  0.00  0.00    +0.000 A 
ATOM      9  N   UNL     1      -2.703  13.938  21.791  0.00  0.00    +0.000 NA
ATOM     10  C   UNL     1      -2.113  14.428  20.679  0.00  0.00    +0.000 A 
ATOM     11  N   UNL     1      -2.482  15.693  20.241  0.00  0.00    +0.000 N 
ATOM     12  C   UNL     1      -1.161  13.637  20.022  0.00  0.00    +0.000 A 
ATOM     13  N   UNL     1      -0.369  13.868  18.916  0.00  0.00    +0.000 NA
ATOM     14  C   UNL     1       0.286  12.741  18.732  0.00  0.00    +0.000 A 
ATOM     15  N   UNL     1      -0.050  11.792  19.663  0.00  0.00    +0.000 N 
ATOM     16  C   UNL     1      -0.946  12.366  20.531  0.00  0.00    +0.000 A 
ATOM     17  N   UNL     1      -1.531  11.820  21.614  0.00  0.00    +0.000 NA
ATOM     18  H   UNL     1      -2.880  16.258  20.977  0.00  0.00    +0.000 HD
ATOM     19  H   UNL     1      -1.804  16.118  19.618  0.00  0.00    +0.000 HD
ENDBRANCH   1  15
BRANCH   4  20
ATOM     20  C   UNL     1       2.274   6.593  19.556  0.00  0.00    +0.000 C 
BRANCH  20  21
ATOM     21  C   UNL     1       3.444   6.107  18.718  0.00  0.00    +0.000 A 
ATOM     22  C   UNL     1       3.799   6.764  17.529  0.00  0.00    +0.000 A 
ATOM     23  C   UNL     1       4.919   6.360  16.800  0.00  0.00    +0.000 A 
ATOM     24  C   UNL     1       5.695   5.298  17.271  0.00  0.00    +0.000 A 
ATOM     25  C   UNL     1       5.343   4.609  18.432  0.00  0.00    +0.000 A 
ATOM     26  C   UNL     1       4.218   5.017  19.153  0.00  0.00    +0.000 A 
BRANCH  24  27
ATOM     27  S   UNL     1       7.136   4.804  16.374  0.00  0.00    +0.000 S 
ATOM     28  O   UNL     1       7.508   5.900  15.504  0.00  0.00    +0.000 OA
ATOM     29  O   UNL     1       8.063   4.206  17.315  0.00  0.00    +0.000 OA
ATOM     30  F   UNL     1       6.696   3.620  15.413  0.00  0.00    +0.000 F 
ENDBRANCH  24  27
ENDBRANCH  20  21
ENDBRANCH   4  20
TORSDOF 4
ENDMDL
