MODEL 1
REMARK VINA RESULT:      -8.1      0.000      0.000
REMARK  Name = 
REMARK  9 active torsions:
REMARK  status: ('A' for Active; 'I' for Inactive)
REMARK    1  A    between atoms: C_1  and  C_2
REMARK    2  A    between atoms: N_4  and  C_5
REMARK    3  A    between atoms: C_5  and  C_6
REMARK    4  A    between atoms: C_5  and  C_7
REMARK    5  A    between atoms: N_9  and  C_10
REMARK    6  A    between atoms: C_10  and  C_11
REMARK    7  A    between atoms: C_11  and  C_12
REMARK    8  A    between atoms: N_21  and  C_22
REMARK    9  A    between atoms: C_28  and  C_29
REMARK                            x       y       z     vdW  Elec       q    Type
REMARK                         _______ _______ _______ _____ _____    ______ ____
ROOT
ATOM      1  C   UNL     1       3.291   7.975  16.884  0.00  0.00    +0.000 C 
ATOM      2  C   UNL     1       2.811   7.173  18.060  0.00  0.00    +0.000 A 
ATOM      3  N   UNL     1       3.113   5.906  18.107  0.00  0.00    +0.000 NA
ATOM      4  N   UNL     1       2.731   5.100  19.188  0.00  0.00    +0.000 N 
ATOM      5  C   UNL     1       2.100   5.585  20.352  0.00  0.00    +0.000 A 
ATOM      6  O   UNL     1       1.890   4.877  21.340  0.00  0.00    +0.000 OA
ATOM      7  C   UNL     1       1.732   6.994  20.263  0.00  0.00    +0.000 A 
ATOM      8  N   UNL     1       1.115   7.724  21.198  0.00  0.00    +0.000 NA
ATOM      9  N   UNL     1       0.897   8.936  20.615  0.00  0.00    +0.000 N 
ATOM     10  C   UNL     1       1.539   9.024  19.374  0.00  0.00    +0.000 A 
ATOM     11  C   UNL     1       1.705  10.269  18.575  0.00  0.00    +0.000 C 
ATOM     12  C   UNL     1       2.049   7.758  19.135  0.00  0.00    +0.000 A 
ENDROOT
BRANCH   9  13
ATOM     13  C   UNL     1       0.128   9.912  21.318  0.00  0.00    +0.000 A 
ATOM     14  C   UNL     1      -0.439   9.570  22.556  0.00  0.00    +0.000 A 
ATOM     15  C   UNL     1      -1.128  10.530  23.303  0.00  0.00    +0.000 A 
ATOM     16  C   UNL     1      -1.285  11.823  22.807  0.00  0.00    +0.000 A 
ATOM     17  C   UNL     1      -0.779  12.151  21.551  0.00  0.00    +0.000 A 
ATOM     18  C   UNL     1      -0.085  11.196  20.801  0.00  0.00    +0.000 A 
ENDBRANCH   9  13
BRANCH   4  19
ATOM     19  C   UNL     1       3.039   3.658  19.083  0.00  0.00    +0.000 C 
ATOM     20  C   UNL     1       2.019   2.894  18.235  0.00  0.00    +0.000 C 
BRANCH  19  21
ATOM     21  C   UNL     1       4.464   3.413  18.541  0.00  0.00    +0.000 C 
ATOM     22  O   UNL     1       5.421   3.157  19.270  0.00  0.00    +0.000 OA
ATOM     23  N   UNL     1       4.625   3.607  17.185  0.00  0.00    +0.000 N 
ATOM     24  H   UNL     1       3.814   3.819  16.605  0.00  0.00    +0.000 HD
BRANCH  23  25
ATOM     25  C   UNL     1       5.929   3.503  16.546  0.00  0.00    +0.000 C 
BRANCH  25  26
ATOM     26  C   UNL     1       6.384   4.801  15.875  0.00  0.00    +0.000 C 
BRANCH  26  27
ATOM     27  C   UNL     1       6.982   5.742  16.858  0.00  0.00    +0.000 A 
ATOM     28  C   UNL     1       7.563   5.571  18.096  0.00  0.00    +0.000 A 
ATOM     29  C   UNL     1       7.974   6.856  18.521  0.00  0.00    +0.000 A 
ATOM     30  C   UNL     1       7.608   7.726  17.521  0.00  0.00    +0.000 A 
ATOM     31  O   UNL     1       7.003   7.058  16.506  0.00  0.00    +0.000 OA
ENDBRANCH  26  27
ENDBRANCH  25  26
ENDBRANCH  23  25
ENDBRANCH  19  21
ENDBRANCH   4  19
TORSDOF 6
ENDMDL
MODEL 2
REMARK VINA RESULT:      -8.0      1.019      1.608
REMARK  Name = 
REMARK  9 active torsions:
REMARK  status: ('A' for Active; 'I' for Inactive)
REMARK    1  A    between atoms: C_1  and  C_2
REMARK    2  A    between atoms: N_4  and  C_5
REMARK    3  A    between atoms: C_5  and  C_6
REMARK    4  A    between atoms: C_5  and  C_7
REMARK    5  A    between atoms: N_9  and  C_10
REMARK    6  A    between atoms: C_10  and  C_11
REMARK    7  A    between atoms: C_11  and  C_12
REMARK    8  A    between atoms: N_21  and  C_22
REMARK    9  A    between atoms: C_28  and  C_29
REMARK                            x       y       z     vdW  Elec       q    Type
REMARK                         _______ _______ _______ _____ _____    ______ ____
ROOT
ATOM      1  C   UNL     1       3.261   8.341  16.957  0.00  0.00    +0.000 C 
ATOM      2  C   UNL     1       2.779   7.508  18.110  0.00  0.00    +0.000 A 
ATOM      3  N   UNL     1       3.160   6.263  18.171  0.00  0.00    +0.000 NA
ATOM      4  N   UNL     1       2.780   5.431  19.234  0.00  0.00    +0.000 N 
ATOM      5  C   UNL     1       2.067   5.872  20.367  0.00  0.00    +0.000 A 
ATOM      6  O   UNL     1       1.857   5.149  21.344  0.00  0.00    +0.000 OA
ATOM      7  C   UNL     1       1.614   7.255  20.261  0.00  0.00    +0.000 A 
ATOM      8  N   UNL     1       0.910   7.941  21.167  0.00  0.00    +0.000 NA
ATOM      9  N   UNL     1       0.642   9.138  20.574  0.00  0.00    +0.000 N 
ATOM     10  C   UNL     1       1.334   9.271  19.364  0.00  0.00    +0.000 A 
ATOM     11  C   UNL     1       1.456  10.526  18.573  0.00  0.00    +0.000 C 
ATOM     12  C   UNL     1       1.934   8.040  19.148  0.00  0.00    +0.000 A 
ENDROOT
BRANCH   9  13
ATOM     13  C   UNL     1      -0.219  10.062  21.241  0.00  0.00    +0.000 A 
ATOM     14  C   UNL     1      -0.471   9.891  22.611  0.00  0.00    +0.000 A 
ATOM     15  C   UNL     1      -1.245  10.824  23.306  0.00  0.00    +0.000 A 
ATOM     16  C   UNL     1      -1.797  11.914  22.635  0.00  0.00    +0.000 A 
ATOM     17  C   UNL     1      -1.602  12.056  21.262  0.00  0.00    +0.000 A 
ATOM     18  C   UNL     1      -0.826  11.126  20.562  0.00  0.00    +0.000 A 
ENDBRANCH   9  13
BRANCH   4  19
ATOM     19  C   UNL     1       3.184   4.012  19.143  0.00  0.00    +0.000 C 
ATOM     20  C   UNL     1       2.685   3.333  17.865  0.00  0.00    +0.000 C 
BRANCH  19  21
ATOM     21  C   UNL     1       4.713   3.841  19.268  0.00  0.00    +0.000 C 
ATOM     22  O   UNL     1       5.237   2.834  19.746  0.00  0.00    +0.000 OA
ATOM     23  N   UNL     1       5.466   4.940  18.908  0.00  0.00    +0.000 N 
ATOM     24  H   UNL     1       5.005   5.760  18.515  0.00  0.00    +0.000 HD
BRANCH  23  25
ATOM     25  C   UNL     1       6.913   4.959  19.058  0.00  0.00    +0.000 C 
BRANCH  25  26
ATOM     26  C   UNL     1       7.665   4.649  17.762  0.00  0.00    +0.000 C 
BRANCH  26  27
ATOM     27  C   UNL     1       6.780   4.774  16.575  0.00  0.00    +0.000 A 
ATOM     28  C   UNL     1       6.392   3.892  15.589  0.00  0.00    +0.000 A 
ATOM     29  C   UNL     1       5.501   4.602  14.750  0.00  0.00    +0.000 A 
ATOM     30  C   UNL     1       5.413   5.872  15.272  0.00  0.00    +0.000 A 
ATOM     31  O   UNL     1       6.188   5.985  16.380  0.00  0.00    +0.000 OA
ENDBRANCH  26  27
ENDBRANCH  25  26
ENDBRANCH  23  25
ENDBRANCH  19  21
ENDBRANCH   4  19
TORSDOF 6
ENDMDL
MODEL 3
REMARK VINA RESULT:      -8.0      1.327      2.047
REMARK  Name = 
REMARK  9 active torsions:
REMARK  status: ('A' for Active; 'I' for Inactive)
REMARK    1  A    between atoms: C_1  and  C_2
REMARK    2  A    between atoms: N_4  and  C_5
REMARK    3  A    between atoms: C_5  and  C_6
REMARK    4  A    between atoms: C_5  and  C_7
REMARK    5  A    between atoms: N_9  and  C_10
REMARK    6  A    between atoms: C_10  and  C_11
REMARK    7  A    between atoms: C_11  and  C_12
REMARK    8  A    between atoms: N_21  and  C_22
REMARK    9  A    between atoms: C_28  and  C_29
REMARK                            x       y       z     vdW  Elec       q    Type
REMARK                         _______ _______ _______ _____ _____    ______ ____
ROOT
ATOM      1  C   UNL     1       3.457   8.066  16.995  0.00  0.00    +0.000 C 
ATOM      2  C   UNL     1       2.958   7.260  18.160  0.00  0.00    +0.000 A 
ATOM      3  N   UNL     1       3.339   6.018  18.259  0.00  0.00    +0.000 NA
ATOM      4  N   UNL     1       2.943   5.213  19.336  0.00  0.00    +0.000 N 
ATOM      5  C   UNL     1       2.209   5.680  20.445  0.00  0.00    +0.000 A 
ATOM      6  O   UNL     1       1.984   4.981  21.436  0.00  0.00    +0.000 OA
ATOM      7  C   UNL     1       1.756   7.059  20.297  0.00  0.00    +0.000 A 
ATOM      8  N   UNL     1       1.035   7.766  21.173  0.00  0.00    +0.000 NA
ATOM      9  N   UNL     1       0.775   8.947  20.546  0.00  0.00    +0.000 N 
ATOM     10  C   UNL     1       1.487   9.051  19.345  0.00  0.00    +0.000 A 
ATOM     11  C   UNL     1       1.620  10.286  18.525  0.00  0.00    +0.000 C 
ATOM     12  C   UNL     1       2.093   7.816  19.170  0.00  0.00    +0.000 A 
ENDROOT
BRANCH   9  13
ATOM     13  C   UNL     1      -0.100   9.885  21.174  0.00  0.00    +0.000 A 
ATOM     14  C   UNL     1      -0.338   9.776  22.553  0.00  0.00    +0.000 A 
ATOM     15  C   UNL     1      -1.125  10.727  23.208  0.00  0.00    +0.000 A 
ATOM     16  C   UNL     1      -1.705  11.772  22.489  0.00  0.00    +0.000 A 
ATOM     17  C   UNL     1      -1.523  11.849  21.110  0.00  0.00    +0.000 A 
ATOM     18  C   UNL     1      -0.733  10.902  20.450  0.00  0.00    +0.000 A 
ENDBRANCH   9  13
BRANCH   4  19
ATOM     19  C   UNL     1       3.351   3.792  19.288  0.00  0.00    +0.000 C 
ATOM     20  C   UNL     1       2.277   2.886  18.681  0.00  0.00    +0.000 C 
BRANCH  19  21
ATOM     21  C   UNL     1       4.686   3.604  18.536  0.00  0.00    +0.000 C 
ATOM     22  O   UNL     1       5.783   3.704  19.085  0.00  0.00    +0.000 OA
ATOM     23  N   UNL     1       4.580   3.421  17.172  0.00  0.00    +0.000 N 
ATOM     24  H   UNL     1       3.658   3.341  16.744  0.00  0.00    +0.000 HD
BRANCH  23  25
ATOM     25  C   UNL     1       5.754   3.320  16.319  0.00  0.00    +0.000 C 
BRANCH  25  26
ATOM     26  C   UNL     1       6.245   4.672  15.796  0.00  0.00    +0.000 C 
BRANCH  26  27
ATOM     27  C   UNL     1       6.679   4.583  14.378  0.00  0.00    +0.000 A 
ATOM     28  C   UNL     1       6.276   3.805  13.314  0.00  0.00    +0.000 A 
ATOM     29  C   UNL     1       7.054   4.216  12.206  0.00  0.00    +0.000 A 
ATOM     30  C   UNL     1       7.887   5.208  12.669  0.00  0.00    +0.000 A 
ATOM     31  O   UNL     1       7.667   5.436  13.988  0.00  0.00    +0.000 OA
ENDBRANCH  26  27
ENDBRANCH  25  26
ENDBRANCH  23  25
ENDBRANCH  19  21
ENDBRANCH   4  19
TORSDOF 6
ENDMDL
MODEL 4
REMARK VINA RESULT:      -7.9      0.993      1.390
REMARK  Name = 
REMARK  9 active torsions:
REMARK  status: ('A' for Active; 'I' for Inactive)
REMARK    1  A    between atoms: C_1  and  C_2
REMARK    2  A    between atoms: N_4  and  C_5
REMARK    3  A    between atoms: C_5  and  C_6
REMARK    4  A    between atoms: C_5  and  C_7
REMARK    5  A    between atoms: N_9  and  C_10
REMARK    6  A    between atoms: C_10  and  C_11
REMARK    7  A    between atoms: C_11  and  C_12
REMARK    8  A    between atoms: N_21  and  C_22
REMARK    9  A    between atoms: C_28  and  C_29
REMARK                            x       y       z     vdW  Elec       q    Type
REMARK                         _______ _______ _______ _____ _____    ______ ____
ROOT
ATOM      1  C   UNL     1       3.593   7.629  16.912  0.00  0.00    +0.000 C 
ATOM      2  C   UNL     1       3.109   6.870  18.115  0.00  0.00    +0.000 A 
ATOM      3  N   UNL     1       3.462   5.622  18.239  0.00  0.00    +0.000 NA
ATOM      4  N   UNL     1       3.079   4.858  19.350  0.00  0.00    +0.000 N 
ATOM      5  C   UNL     1       2.392   5.376  20.467  0.00  0.00    +0.000 A 
ATOM      6  O   UNL     1       2.180   4.712  21.484  0.00  0.00    +0.000 OA
ATOM      7  C   UNL     1       1.969   6.761  20.291  0.00  0.00    +0.000 A 
ATOM      8  N   UNL     1       1.293   7.512  21.167  0.00  0.00    +0.000 NA
ATOM      9  N   UNL     1       1.044   8.681  20.514  0.00  0.00    +0.000 N 
ATOM     10  C   UNL     1       1.721   8.732  19.290  0.00  0.00    +0.000 A 
ATOM     11  C   UNL     1       1.860   9.939  18.430  0.00  0.00    +0.000 C 
ATOM     12  C   UNL     1       2.290   7.477  19.134  0.00  0.00    +0.000 A 
ENDROOT
BRANCH   9  13
ATOM     13  C   UNL     1       0.213   9.659  21.140  0.00  0.00    +0.000 A 
ATOM     14  C   UNL     1      -0.392  10.647  20.347  0.00  0.00    +0.000 A 
ATOM     15  C   UNL     1      -1.273  11.567  20.921  0.00  0.00    +0.000 A 
ATOM     16  C   UNL     1      -1.533  11.529  22.290  0.00  0.00    +0.000 A 
ATOM     17  C   UNL     1      -0.888  10.590  23.092  0.00  0.00    +0.000 A 
ATOM     18  C   UNL     1      -0.007   9.664  22.522  0.00  0.00    +0.000 A 
ENDBRANCH   9  13
BRANCH   4  19
ATOM     19  C   UNL     1       3.450   3.427  19.332  0.00  0.00    +0.000 C 
ATOM     20  C   UNL     1       2.310   2.513  19.789  0.00  0.00    +0.000 C 
BRANCH  19  21
ATOM     21  C   UNL     1       3.957   2.983  17.943  0.00  0.00    +0.000 C 
ATOM     22  O   UNL     1       3.542   1.976  17.370  0.00  0.00    +0.000 OA
ATOM     23  N   UNL     1       4.992   3.731  17.421  0.00  0.00    +0.000 N 
ATOM     24  H   UNL     1       5.315   4.561  17.917  0.00  0.00    +0.000 HD
BRANCH  23  25
ATOM     25  C   UNL     1       5.634   3.378  16.164  0.00  0.00    +0.000 C 
BRANCH  25  26
ATOM     26  C   UNL     1       6.844   4.253  15.830  0.00  0.00    +0.000 C 
BRANCH  26  27
ATOM     27  C   UNL     1       7.220   5.124  16.975  0.00  0.00    +0.000 A 
ATOM     28  C   UNL     1       7.259   6.490  17.148  0.00  0.00    +0.000 A 
ATOM     29  C   UNL     1       7.671   6.708  18.484  0.00  0.00    +0.000 A 
ATOM     30  C   UNL     1       7.865   5.462  19.034  0.00  0.00    +0.000 A 
ATOM     31  O   UNL     1       7.595   4.493  18.123  0.00  0.00    +0.000 OA
ENDBRANCH  26  27
ENDBRANCH  25  26
ENDBRANCH  23  25
ENDBRANCH  19  21
ENDBRANCH   4  19
TORSDOF 6
ENDMDL
MODEL 5
REMARK VINA RESULT:      -7.7      2.086      4.606
REMARK  Name = 
REMARK  9 active torsions:
REMARK  status: ('A' for Active; 'I' for Inactive)
REMARK    1  A    between atoms: C_1  and  C_2
REMARK    2  A    between atoms: N_4  and  C_5
REMARK    3  A    between atoms: C_5  and  C_6
REMARK    4  A    between atoms: C_5  and  C_7
REMARK    5  A    between atoms: N_9  and  C_10
REMARK    6  A    between atoms: C_10  and  C_11
REMARK    7  A    between atoms: C_11  and  C_12
REMARK    8  A    between atoms: N_21  and  C_22
REMARK    9  A    between atoms: C_28  and  C_29
REMARK                            x       y       z     vdW  Elec       q    Type
REMARK                         _______ _______ _______ _____ _____    ______ ____
ROOT
ATOM      1  C   UNL     1       1.850   6.035  21.107  0.00  0.00    +0.000 C 
ATOM      2  C   UNL     1       2.487   6.572  19.857  0.00  0.00    +0.000 A 
ATOM      3  N   UNL     1       3.379   5.838  19.255  0.00  0.00    +0.000 NA
ATOM      4  N   UNL     1       3.992   6.256  18.066  0.00  0.00    +0.000 N 
ATOM      5  C   UNL     1       3.637   7.423  17.360  0.00  0.00    +0.000 A 
ATOM      6  O   UNL     1       4.103   7.700  16.253  0.00  0.00    +0.000 OA
ATOM      7  C   UNL     1       2.668   8.253  18.070  0.00  0.00    +0.000 A 
ATOM      8  N   UNL     1       2.154   9.416  17.659  0.00  0.00    +0.000 NA
ATOM      9  N   UNL     1       1.389   9.852  18.699  0.00  0.00    +0.000 N 
ATOM     10  C   UNL     1       1.280   8.872  19.693  0.00  0.00    +0.000 A 
ATOM     11  C   UNL     1       0.345   8.918  20.850  0.00  0.00    +0.000 C 
ATOM     12  C   UNL     1       2.134   7.854  19.300  0.00  0.00    +0.000 A 
ENDROOT
BRANCH   9  13
ATOM     13  C   UNL     1       0.800  11.150  18.627  0.00  0.00    +0.000 A 
ATOM     14  C   UNL     1       1.622  12.280  18.768  0.00  0.00    +0.000 A 
ATOM     15  C   UNL     1       1.086  13.562  18.622  0.00  0.00    +0.000 A 
ATOM     16  C   UNL     1      -0.274  13.728  18.367  0.00  0.00    +0.000 A 
ATOM     17  C   UNL     1      -1.106  12.613  18.287  0.00  0.00    +0.000 A 
ATOM     18  C   UNL     1      -0.575  11.327  18.429  0.00  0.00    +0.000 A 
ENDBRANCH   9  13
BRANCH   4  19
ATOM     19  C   UNL     1       5.063   5.388  17.531  0.00  0.00    +0.000 C 
ATOM     20  C   UNL     1       6.457   5.797  18.016  0.00  0.00    +0.000 C 
BRANCH  19  21
ATOM     21  C   UNL     1       4.810   3.899  17.851  0.00  0.00    +0.000 C 
ATOM     22  O   UNL     1       4.292   3.121  17.050  0.00  0.00    +0.000 OA
ATOM     23  N   UNL     1       5.102   3.511  19.143  0.00  0.00    +0.000 N 
ATOM     24  H   UNL     1       5.530   4.176  19.785  0.00  0.00    +0.000 HD
BRANCH  23  25
ATOM     25  C   UNL     1       4.829   2.162  19.617  0.00  0.00    +0.000 C 
BRANCH  25  26
ATOM     26  C   UNL     1       3.824   2.113  20.770  0.00  0.00    +0.000 C 
BRANCH  26  27
ATOM     27  C   UNL     1       2.443   2.400  20.301  0.00  0.00    +0.000 A 
ATOM     28  C   UNL     1       1.327   2.923  20.918  0.00  0.00    +0.000 A 
ATOM     29  C   UNL     1       0.319   2.982  19.926  0.00  0.00    +0.000 A 
ATOM     30  C   UNL     1       0.882   2.483  18.775  0.00  0.00    +0.000 A 
ATOM     31  O   UNL     1       2.173   2.125  18.994  0.00  0.00    +0.000 OA
ENDBRANCH  26  27
ENDBRANCH  25  26
ENDBRANCH  23  25
ENDBRANCH  19  21
ENDBRANCH   4  19
TORSDOF 6
ENDMDL
MODEL 6
REMARK VINA RESULT:      -7.7      2.048      4.526
REMARK  Name = 
REMARK  9 active torsions:
REMARK  status: ('A' for Active; 'I' for Inactive)
REMARK    1  A    between atoms: C_1  and  C_2
REMARK    2  A    between atoms: N_4  and  C_5
REMARK    3  A    between atoms: C_5  and  C_6
REMARK    4  A    between atoms: C_5  and  C_7
REMARK    5  A    between atoms: N_9  and  C_10
REMARK    6  A    between atoms: C_10  and  C_11
REMARK    7  A    between atoms: C_11  and  C_12
REMARK    8  A    between atoms: N_21  and  C_22
REMARK    9  A    between atoms: C_28  and  C_29
REMARK                            x       y       z     vdW  Elec       q    Type
REMARK                         _______ _______ _______ _____ _____    ______ ____
ROOT
ATOM      1  C   UNL     1       1.702   6.180  21.062  0.00  0.00    +0.000 C 
ATOM      2  C   UNL     1       2.366   6.738  19.836  0.00  0.00    +0.000 A 
ATOM      3  N   UNL     1       3.258   6.005  19.231  0.00  0.00    +0.000 NA
ATOM      4  N   UNL     1       3.896   6.442  18.061  0.00  0.00    +0.000 N 
ATOM      5  C   UNL     1       3.568   7.630  17.378  0.00  0.00    +0.000 A 
ATOM      6  O   UNL     1       4.056   7.927  16.285  0.00  0.00    +0.000 OA
ATOM      7  C   UNL     1       2.600   8.457  18.092  0.00  0.00    +0.000 A 
ATOM      8  N   UNL     1       2.109   9.637  17.701  0.00  0.00    +0.000 NA
ATOM      9  N   UNL     1       1.333  10.059  18.739  0.00  0.00    +0.000 N 
ATOM     10  C   UNL     1       1.194   9.058  19.708  0.00  0.00    +0.000 A 
ATOM     11  C   UNL     1       0.242   9.090  20.851  0.00  0.00    +0.000 C 
ATOM     12  C   UNL     1       2.041   8.037  19.303  0.00  0.00    +0.000 A 
ENDROOT
BRANCH   9  13
ATOM     13  C   UNL     1       0.764  11.367  18.689  0.00  0.00    +0.000 A 
ATOM     14  C   UNL     1       1.593  12.480  18.905  0.00  0.00    +0.000 A 
ATOM     15  C   UNL     1       1.079  13.774  18.783  0.00  0.00    +0.000 A 
ATOM     16  C   UNL     1      -0.267  13.967  18.476  0.00  0.00    +0.000 A 
ATOM     17  C   UNL     1      -1.108  12.867  18.321  0.00  0.00    +0.000 A 
ATOM     18  C   UNL     1      -0.599  11.570  18.439  0.00  0.00    +0.000 A 
ENDBRANCH   9  13
BRANCH   4  19
ATOM     19  C   UNL     1       4.963   5.572  17.523  0.00  0.00    +0.000 C 
ATOM     20  C   UNL     1       6.368   6.082  17.853  0.00  0.00    +0.000 C 
BRANCH  19  21
ATOM     21  C   UNL     1       4.807   4.111  17.998  0.00  0.00    +0.000 C 
ATOM     22  O   UNL     1       5.599   3.572  18.771  0.00  0.00    +0.000 OA
ATOM     23  N   UNL     1       3.777   3.403  17.415  0.00  0.00    +0.000 N 
ATOM     24  H   UNL     1       3.137   3.875  16.778  0.00  0.00    +0.000 HD
BRANCH  23  25
ATOM     25  C   UNL     1       3.564   1.991  17.695  0.00  0.00    +0.000 C 
BRANCH  25  26
ATOM     26  C   UNL     1       2.161   1.679  18.222  0.00  0.00    +0.000 C 
BRANCH  26  27
ATOM     27  C   UNL     1       1.979   2.171  19.612  0.00  0.00    +0.000 A 
ATOM     28  C   UNL     1       0.876   2.570  20.335  0.00  0.00    +0.000 A 
ATOM     29  C   UNL     1       1.348   2.898  21.628  0.00  0.00    +0.000 A 
ATOM     30  C   UNL     1       2.707   2.687  21.606  0.00  0.00    +0.000 A 
ATOM     31  O   UNL     1       3.099   2.246  20.384  0.00  0.00    +0.000 OA
ENDBRANCH  26  27
ENDBRANCH  25  26
ENDBRANCH  23  25
ENDBRANCH  19  21
ENDBRANCH   4  19
TORSDOF 6
ENDMDL
MODEL 7
REMARK VINA RESULT:      -7.6      1.002      1.987
REMARK  Name = 
REMARK  9 active torsions:
REMARK  status: ('A' for Active; 'I' for Inactive)
REMARK    1  A    between atoms: C_1  and  C_2
REMARK    2  A    between atoms: N_4  and  C_5
REMARK    3  A    between atoms: C_5  and  C_6
REMARK    4  A    between atoms: C_5  and  C_7
REMARK    5  A    between atoms: N_9  and  C_10
REMARK    6  A    between atoms: C_10  and  C_11
REMARK    7  A    between atoms: C_11  and  C_12
REMARK    8  A    between atoms: N_21  and  C_22
REMARK    9  A    between atoms: C_28  and  C_29
REMARK                            x       y       z     vdW  Elec       q    Type
REMARK                         _______ _______ _______ _____ _____    ______ ____
ROOT
ATOM      1  C   UNL     1       3.047   8.007  16.901  0.00  0.00    +0.000 C 
ATOM      2  C   UNL     1       2.659   7.226  18.124  0.00  0.00    +0.000 A 
ATOM      3  N   UNL     1       2.965   5.960  18.169  0.00  0.00    +0.000 NA
ATOM      4  N   UNL     1       2.667   5.173  19.290  0.00  0.00    +0.000 N 
ATOM      5  C   UNL     1       2.128   5.678  20.491  0.00  0.00    +0.000 A 
ATOM      6  O   UNL     1       1.995   4.987  21.504  0.00  0.00    +0.000 OA
ATOM      7  C   UNL     1       1.754   7.086  20.407  0.00  0.00    +0.000 A 
ATOM      8  N   UNL     1       1.212   7.832  21.375  0.00  0.00    +0.000 NA
ATOM      9  N   UNL     1       0.949   9.034  20.790  0.00  0.00    +0.000 N 
ATOM     10  C   UNL     1       1.493   9.101  19.502  0.00  0.00    +0.000 A 
ATOM     11  C   UNL     1       1.596  10.332  18.671  0.00  0.00    +0.000 C 
ATOM     12  C   UNL     1       1.983   7.830  19.245  0.00  0.00    +0.000 A 
ENDROOT
BRANCH   9  13
ATOM     13  C   UNL     1       0.236  10.023  21.533  0.00  0.00    +0.000 A 
ATOM     14  C   UNL     1       0.311  11.365  21.128  0.00  0.00    +0.000 A 
ATOM     15  C   UNL     1      -0.439  12.342  21.789  0.00  0.00    +0.000 A 
ATOM     16  C   UNL     1      -1.243  11.994  22.873  0.00  0.00    +0.000 A 
ATOM     17  C   UNL     1      -1.273  10.674  23.319  0.00  0.00    +0.000 A 
ATOM     18  C   UNL     1      -0.527   9.691  22.660  0.00  0.00    +0.000 A 
ENDBRANCH   9  13
BRANCH   4  19
ATOM     19  C   UNL     1       2.966   3.729  19.186  0.00  0.00    +0.000 C 
ATOM     20  C   UNL     1       2.171   3.037  18.076  0.00  0.00    +0.000 C 
BRANCH  19  21
ATOM     21  C   UNL     1       4.476   3.467  18.994  0.00  0.00    +0.000 C 
ATOM     22  O   UNL     1       5.119   2.703  19.713  0.00  0.00    +0.000 OA
ATOM     23  N   UNL     1       5.093   4.232  18.026  0.00  0.00    +0.000 N 
ATOM     24  H   UNL     1       4.536   4.857  17.445  0.00  0.00    +0.000 HD
BRANCH  23  25
ATOM     25  C   UNL     1       6.528   4.162  17.794  0.00  0.00    +0.000 C 
BRANCH  25  26
ATOM     26  C   UNL     1       7.044   5.235  16.833  0.00  0.00    +0.000 C 
BRANCH  26  27
ATOM     27  C   UNL     1       6.927   4.800  15.417  0.00  0.00    +0.000 A 
ATOM     28  C   UNL     1       6.158   3.849  14.782  0.00  0.00    +0.000 A 
ATOM     29  C   UNL     1       6.478   3.934  13.406  0.00  0.00    +0.000 A 
ATOM     30  C   UNL     1       7.428   4.923  13.294  0.00  0.00    +0.000 A 
ATOM     31  O   UNL     1       7.708   5.453  14.512  0.00  0.00    +0.000 OA
ENDBRANCH  26  27
ENDBRANCH  25  26
ENDBRANCH  23  25
ENDBRANCH  19  21
ENDBRANCH   4  19
TORSDOF 6
ENDMDL
MODEL 8
REMARK VINA RESULT:      -7.4      4.196      9.939
REMARK  Name = 
REMARK  9 active torsions:
REMARK  status: ('A' for Active; 'I' for Inactive)
REMARK    1  A    between atoms: C_1  and  C_2
REMARK    2  A    between atoms: N_4  and  C_5
REMARK    3  A    between atoms: C_5  and  C_6
REMARK    4  A    between atoms: C_5  and  C_7
REMARK    5  A    between atoms: N_9  and  C_10
REMARK    6  A    between atoms: C_10  and  C_11
REMARK    7  A    between atoms: C_11  and  C_12
REMARK    8  A    between atoms: N_21  and  C_22
REMARK    9  A    between atoms: C_28  and  C_29
REMARK                            x       y       z     vdW  Elec       q    Type
REMARK                         _______ _______ _______ _____ _____    ______ ____
ROOT
ATOM      1  C   UNL     1      -1.391  12.044  18.429  0.00  0.00    +0.000 C 
ATOM      2  C   UNL     1      -0.991  11.499  19.770  0.00  0.00    +0.000 A 
ATOM      3  N   UNL     1      -1.458  12.082  20.838  0.00  0.00    +0.000 NA
ATOM      4  N   UNL     1      -1.158  11.610  22.123  0.00  0.00    +0.000 N 
ATOM      5  C   UNL     1      -0.437  10.428  22.383  0.00  0.00    +0.000 A 
ATOM      6  O   UNL     1      -0.296   9.969  23.519  0.00  0.00    +0.000 OA
ATOM      7  C   UNL     1       0.113   9.812  21.180  0.00  0.00    +0.000 A 
ATOM      8  N   UNL     1       0.847   8.697  21.112  0.00  0.00    +0.000 NA
ATOM      9  N   UNL     1       1.209   8.590  19.803  0.00  0.00    +0.000 N 
ATOM     10  C   UNL     1       0.551   9.543  19.016  0.00  0.00    +0.000 A 
ATOM     11  C   UNL     1       0.532   9.568  17.528  0.00  0.00    +0.000 C 
ATOM     12  C   UNL     1      -0.130  10.352  19.913  0.00  0.00    +0.000 A 
ENDROOT
BRANCH   9  13
ATOM     13  C   UNL     1       2.120   7.560  19.420  0.00  0.00    +0.000 A 
ATOM     14  C   UNL     1       2.858   7.710  18.235  0.00  0.00    +0.000 A 
ATOM     15  C   UNL     1       3.815   6.756  17.877  0.00  0.00    +0.000 A 
ATOM     16  C   UNL     1       4.019   5.634  18.679  0.00  0.00    +0.000 A 
ATOM     17  C   UNL     1       3.246   5.448  19.823  0.00  0.00    +0.000 A 
ATOM     18  C   UNL     1       2.289   6.401  20.188  0.00  0.00    +0.000 A 
ENDBRANCH   9  13
BRANCH   4  19
ATOM     19  C   UNL     1      -1.658  12.414  23.259  0.00  0.00    +0.000 C 
ATOM     20  C   UNL     1      -1.152  13.859  23.233  0.00  0.00    +0.000 C 
BRANCH  19  21
ATOM     21  C   UNL     1      -3.200  12.398  23.339  0.00  0.00    +0.000 C 
ATOM     22  O   UNL     1      -3.817  11.825  24.237  0.00  0.00    +0.000 OA
ATOM     23  N   UNL     1      -3.857  12.978  22.273  0.00  0.00    +0.000 N 
ATOM     24  H   UNL     1      -3.320  13.445  21.544  0.00  0.00    +0.000 HD
BRANCH  23  25
ATOM     25  C   UNL     1      -5.308  12.957  22.165  0.00  0.00    +0.000 C 
BRANCH  25  26
ATOM     26  C   UNL     1      -5.833  13.607  20.883  0.00  0.00    +0.000 C 
BRANCH  26  27
ATOM     27  C   UNL     1      -5.974  12.614  19.786  0.00  0.00    +0.000 A 
ATOM     28  C   UNL     1      -7.049  12.175  19.044  0.00  0.00    +0.000 A 
ATOM     29  C   UNL     1      -6.533  11.235  18.119  0.00  0.00    +0.000 A 
ATOM     30  C   UNL     1      -5.182  11.156  18.366  0.00  0.00    +0.000 A 
ATOM     31  O   UNL     1      -4.834  11.990  19.379  0.00  0.00    +0.000 OA
ENDBRANCH  26  27
ENDBRANCH  25  26
ENDBRANCH  23  25
ENDBRANCH  19  21
ENDBRANCH   4  19
TORSDOF 6
ENDMDL
MODEL 9
REMARK VINA RESULT:      -7.4      2.449      4.773
REMARK  Name = 
REMARK  9 active torsions:
REMARK  status: ('A' for Active; 'I' for Inactive)
REMARK    1  A    between atoms: C_1  and  C_2
REMARK    2  A    between atoms: N_4  and  C_5
REMARK    3  A    between atoms: C_5  and  C_6
REMARK    4  A    between atoms: C_5  and  C_7
REMARK    5  A    between atoms: N_9  and  C_10
REMARK    6  A    between atoms: C_10  and  C_11
REMARK    7  A    between atoms: C_11  and  C_12
REMARK    8  A    between atoms: N_21  and  C_22
REMARK    9  A    between atoms: C_28  and  C_29
REMARK                            x       y       z     vdW  Elec       q    Type
REMARK                         _______ _______ _______ _____ _____    ______ ____
ROOT
ATOM      1  C   UNL     1      -1.071  10.424  18.042  0.00  0.00    +0.000 C 
ATOM      2  C   UNL     1      -0.397  10.072  19.337  0.00  0.00    +0.000 A 
ATOM      3  N   UNL     1       0.449   9.081  19.342  0.00  0.00    +0.000 NA
ATOM      4  N   UNL     1       1.144   8.716  20.504  0.00  0.00    +0.000 N 
ATOM      5  C   UNL     1       1.086   9.430  21.718  0.00  0.00    +0.000 A 
ATOM      6  O   UNL     1       1.804   9.161  22.684  0.00  0.00    +0.000 OA
ATOM      7  C   UNL     1       0.103  10.509  21.706  0.00  0.00    +0.000 A 
ATOM      8  N   UNL     1      -0.183  11.346  22.708  0.00  0.00    +0.000 NA
ATOM      9  N   UNL     1      -1.228  12.094  22.256  0.00  0.00    +0.000 N 
ATOM     10  C   UNL     1      -1.480  11.848  20.901  0.00  0.00    +0.000 A 
ATOM     11  C   UNL     1      -2.388  12.647  20.033  0.00  0.00    +0.000 C 
ATOM     12  C   UNL     1      -0.641  10.799  20.557  0.00  0.00    +0.000 A 
ENDROOT
BRANCH   9  13
ATOM     13  C   UNL     1      -1.863  13.006  23.153  0.00  0.00    +0.000 A 
ATOM     14  C   UNL     1      -3.179  12.748  23.568  0.00  0.00    +0.000 A 
ATOM     15  C   UNL     1      -3.796  13.579  24.506  0.00  0.00    +0.000 A 
ATOM     16  C   UNL     1      -3.120  14.688  25.012  0.00  0.00    +0.000 A 
ATOM     17  C   UNL     1      -1.836  14.985  24.558  0.00  0.00    +0.000 A 
ATOM     18  C   UNL     1      -1.212  14.154  23.621  0.00  0.00    +0.000 A 
ENDBRANCH   9  13
BRANCH   4  19
ATOM     19  C   UNL     1       1.998   7.512  20.416  0.00  0.00    +0.000 C 
ATOM     20  C   UNL     1       1.250   6.226  20.777  0.00  0.00    +0.000 C 
BRANCH  19  21
ATOM     21  C   UNL     1       2.647   7.370  19.022  0.00  0.00    +0.000 C 
ATOM     22  O   UNL     1       2.647   8.276  18.189  0.00  0.00    +0.000 OA
ATOM     23  N   UNL     1       3.141   6.117  18.721  0.00  0.00    +0.000 N 
ATOM     24  H   UNL     1       3.129   5.386  19.432  0.00  0.00    +0.000 HD
BRANCH  23  25
ATOM     25  C   UNL     1       3.699   5.808  17.414  0.00  0.00    +0.000 C 
BRANCH  25  26
ATOM     26  C   UNL     1       3.945   4.313  17.194  0.00  0.00    +0.000 C 
BRANCH  26  27
ATOM     27  C   UNL     1       2.980   3.484  17.961  0.00  0.00    +0.000 A 
ATOM     28  C   UNL     1       3.130   2.505  18.920  0.00  0.00    +0.000 A 
ATOM     29  C   UNL     1       1.822   2.115  19.295  0.00  0.00    +0.000 A 
ATOM     30  C   UNL     1       0.962   2.873  18.534  0.00  0.00    +0.000 A 
ATOM     31  O   UNL     1       1.657   3.706  17.720  0.00  0.00    +0.000 OA
ENDBRANCH  26  27
ENDBRANCH  25  26
ENDBRANCH  23  25
ENDBRANCH  19  21
ENDBRANCH   4  19
TORSDOF 6
ENDMDL
