MODEL 1
REMARK VINA RESULT:      -8.3      0.000      0.000
REMARK  Name = 
REMARK  3 active torsions:
REMARK  status: ('A' for Active; 'I' for Inactive)
REMARK    1  A    between atoms: C_1  and  C_2
REMARK    2  A    between atoms: C_5  and  C_6
REMARK    3  A    between atoms: C_19  and  C_20
REMARK                            x       y       z     vdW  Elec       q    Type
REMARK                         _______ _______ _______ _____ _____    ______ ____
ROOT
ATOM      1  C   UNL     1       4.132   5.170  17.353  0.00  0.00    +0.000 C 
ATOM      2  C   UNL     1       4.717   4.242  16.558  0.00  0.00    +0.000 C 
ATOM      3  C   UNL     1       6.061   4.512  16.056  0.00  0.00    +0.000 C 
ATOM      4  O   UNL     1       6.577   3.905  15.134  0.00  0.00    +0.000 OA
ATOM      5  C   UNL     1       6.757   5.531  16.825  0.00  0.00    +0.000 A 
ATOM      6  C   UNL     1       7.651   5.243  17.848  0.00  0.00    +0.000 A 
ATOM      7  C   UNL     1       8.197   6.309  18.561  0.00  0.00    +0.000 A 
ATOM      8  C   UNL     1       7.909   7.619  18.166  0.00  0.00    +0.000 A 
ATOM      9  C   UNL     1       6.851   7.851  17.287  0.00  0.00    +0.000 A 
ATOM     10  C   UNL     1       6.125   6.752  16.835  0.00  0.00    +0.000 A 
ATOM     11  C   UNL     1       4.670   6.605  17.219  0.00  0.00    +0.000 C 
ATOM     12  O   UNL     1       4.005   7.596  17.518  0.00  0.00    +0.000 OA
ENDROOT
BRANCH   1  17
ATOM     13  C   UNL     1       0.999   2.737  21.670  0.00  0.00    +0.000 C 
ATOM     14  C   UNL     1       1.741   3.398  20.539  0.00  0.00    +0.000 A 
ATOM     15  C   UNL     1       2.690   4.399  20.803  0.00  0.00    +0.000 A 
ATOM     16  C   UNL     1       3.414   5.027  19.769  0.00  0.00    +0.000 A 
ATOM     17  C   UNL     1       3.208   4.683  18.424  0.00  0.00    +0.000 A 
ATOM     18  C   UNL     1       2.221   3.693  18.180  0.00  0.00    +0.000 A 
ATOM     19  C   UNL     1       1.506   3.040  19.211  0.00  0.00    +0.000 A 
ATOM     20  C   UNL     1       0.520   1.954  18.849  0.00  0.00    +0.000 C 
ENDBRANCH   1  17
TORSDOF 1
ENDMDL
MODEL 2
REMARK VINA RESULT:      -8.2      1.964      6.345
REMARK  Name = 
REMARK  3 active torsions:
REMARK  status: ('A' for Active; 'I' for Inactive)
REMARK    1  A    between atoms: C_1  and  C_2
REMARK    2  A    between atoms: C_5  and  C_6
REMARK    3  A    between atoms: C_19  and  C_20
REMARK                            x       y       z     vdW  Elec       q    Type
REMARK                         _______ _______ _______ _____ _____    ______ ____
ROOT
ATOM      1  C   UNL     1       2.634   5.666  18.190  0.00  0.00    +0.000 C 
ATOM      2  C   UNL     1       2.527   6.695  19.066  0.00  0.00    +0.000 C 
ATOM      3  C   UNL     1       1.822   6.458  20.324  0.00  0.00    +0.000 C 
ATOM      4  O   UNL     1       1.425   7.345  21.058  0.00  0.00    +0.000 OA
ATOM      5  C   UNL     1       1.715   5.046  20.653  0.00  0.00    +0.000 A 
ATOM      6  C   UNL     1       2.592   4.388  21.506  0.00  0.00    +0.000 A 
ATOM      7  C   UNL     1       2.428   3.015  21.684  0.00  0.00    +0.000 A 
ATOM      8  C   UNL     1       1.341   2.370  21.085  0.00  0.00    +0.000 A 
ATOM      9  C   UNL     1       0.628   3.022  20.078  0.00  0.00    +0.000 A 
ATOM     10  C   UNL     1       1.036   4.303  19.716  0.00  0.00    +0.000 A 
ATOM     11  C   UNL     1       1.583   4.552  18.329  0.00  0.00    +0.000 C 
ATOM     12  O   UNL     1       1.275   3.808  17.398  0.00  0.00    +0.000 OA
ENDROOT
BRANCH   1  17
ATOM     13  C   UNL     1       7.747   4.972  15.407  0.00  0.00    +0.000 C 
ATOM     14  C   UNL     1       6.421   5.211  16.078  0.00  0.00    +0.000 A 
ATOM     15  C   UNL     1       5.348   4.332  15.859  0.00  0.00    +0.000 A 
ATOM     16  C   UNL     1       4.097   4.517  16.484  0.00  0.00    +0.000 A 
ATOM     17  C   UNL     1       3.869   5.600  17.348  0.00  0.00    +0.000 A 
ATOM     18  C   UNL     1       4.958   6.491  17.528  0.00  0.00    +0.000 A 
ATOM     19  C   UNL     1       6.224   6.302  16.925  0.00  0.00    +0.000 A 
ATOM     20  C   UNL     1       7.338   7.275  17.231  0.00  0.00    +0.000 C 
ENDBRANCH   1  17
TORSDOF 1
ENDMDL
MODEL 3
REMARK VINA RESULT:      -8.1      2.899      4.363
REMARK  Name = 
REMARK  3 active torsions:
REMARK  status: ('A' for Active; 'I' for Inactive)
REMARK    1  A    between atoms: C_1  and  C_2
REMARK    2  A    between atoms: C_5  and  C_6
REMARK    3  A    between atoms: C_19  and  C_20
REMARK                            x       y       z     vdW  Elec       q    Type
REMARK                         _______ _______ _______ _____ _____    ______ ____
ROOT
ATOM      1  C   UNL     1       3.915   5.633  18.632  0.00  0.00    +0.000 C 
ATOM      2  C   UNL     1       5.054   5.744  19.358  0.00  0.00    +0.000 C 
ATOM      3  C   UNL     1       6.272   5.139  18.825  0.00  0.00    +0.000 C 
ATOM      4  O   UNL     1       7.273   4.931  19.488  0.00  0.00    +0.000 OA
ATOM      5  C   UNL     1       6.197   4.882  17.396  0.00  0.00    +0.000 A 
ATOM      6  C   UNL     1       6.706   5.744  16.434  0.00  0.00    +0.000 A 
ATOM      7  C   UNL     1       6.506   5.423  15.093  0.00  0.00    +0.000 A 
ATOM      8  C   UNL     1       5.894   4.210  14.761  0.00  0.00    +0.000 A 
ATOM      9  C   UNL     1       5.215   3.494  15.749  0.00  0.00    +0.000 A 
ATOM     10  C   UNL     1       5.183   4.026  17.034  0.00  0.00    +0.000 A 
ATOM     11  C   UNL     1       3.866   4.466  17.631  0.00  0.00    +0.000 C 
ATOM     12  O   UNL     1       2.810   3.977  17.231  0.00  0.00    +0.000 OA
ENDROOT
BRANCH   1  17
ATOM     13  C   UNL     1       0.637  10.468  19.135  0.00  0.00    +0.000 C 
ATOM     14  C   UNL     1       1.415   9.186  19.005  0.00  0.00    +0.000 A 
ATOM     15  C   UNL     1       2.083   8.881  17.808  0.00  0.00    +0.000 A 
ATOM     16  C   UNL     1       2.834   7.697  17.658  0.00  0.00    +0.000 A 
ATOM     17  C   UNL     1       2.936   6.763  18.701  0.00  0.00    +0.000 A 
ATOM     18  C   UNL     1       2.226   7.078  19.888  0.00  0.00    +0.000 A 
ATOM     19  C   UNL     1       1.490   8.273  20.059  0.00  0.00    +0.000 A 
ATOM     20  C   UNL     1       0.819   8.544  21.385  0.00  0.00    +0.000 C 
ENDBRANCH   1  17
TORSDOF 1
ENDMDL
MODEL 4
REMARK VINA RESULT:      -8.1      3.304      5.566
REMARK  Name = 
REMARK  3 active torsions:
REMARK  status: ('A' for Active; 'I' for Inactive)
REMARK    1  A    between atoms: C_1  and  C_2
REMARK    2  A    between atoms: C_5  and  C_6
REMARK    3  A    between atoms: C_19  and  C_20
REMARK                            x       y       z     vdW  Elec       q    Type
REMARK                         _______ _______ _______ _____ _____    ______ ____
ROOT
ATOM      1  C   UNL     1       3.242   5.890  19.748  0.00  0.00    +0.000 C 
ATOM      2  C   UNL     1       4.513   5.864  19.277  0.00  0.00    +0.000 C 
ATOM      3  C   UNL     1       5.093   4.569  18.929  0.00  0.00    +0.000 C 
ATOM      4  O   UNL     1       6.284   4.382  18.762  0.00  0.00    +0.000 OA
ATOM      5  C   UNL     1       4.089   3.538  18.722  0.00  0.00    +0.000 A 
ATOM      6  C   UNL     1       3.600   3.183  17.472  0.00  0.00    +0.000 A 
ATOM      7  C   UNL     1       2.583   2.231  17.411  0.00  0.00    +0.000 A 
ATOM      8  C   UNL     1       2.163   1.600  18.585  0.00  0.00    +0.000 A 
ATOM      9  C   UNL     1       2.525   2.140  19.820  0.00  0.00    +0.000 A 
ATOM     10  C   UNL     1       3.302   3.295  19.823  0.00  0.00    +0.000 A 
ATOM     11  C   UNL     1       2.731   4.581  20.375  0.00  0.00    +0.000 C 
ATOM     12  O   UNL     1       1.818   4.551  21.200  0.00  0.00    +0.000 OA
ENDROOT
BRANCH   1  17
ATOM     13  C   UNL     1       0.541  10.959  18.576  0.00  0.00    +0.000 C 
ATOM     14  C   UNL     1       1.167   9.625  18.883  0.00  0.00    +0.000 A 
ATOM     15  C   UNL     1       1.849   8.916  17.882  0.00  0.00    +0.000 A 
ATOM     16  C   UNL     1       2.461   7.671  18.139  0.00  0.00    +0.000 A 
ATOM     17  C   UNL     1       2.402   7.081  19.412  0.00  0.00    +0.000 A 
ATOM     18  C   UNL     1       1.680   7.802  20.397  0.00  0.00    +0.000 A 
ATOM     19  C   UNL     1       1.083   9.061  20.157  0.00  0.00    +0.000 A 
ATOM     20  C   UNL     1       0.389   9.777  21.292  0.00  0.00    +0.000 C 
ENDBRANCH   1  17
TORSDOF 1
ENDMDL
MODEL 5
REMARK VINA RESULT:      -8.0      1.953      6.154
REMARK  Name = 
REMARK  3 active torsions:
REMARK  status: ('A' for Active; 'I' for Inactive)
REMARK    1  A    between atoms: C_1  and  C_2
REMARK    2  A    between atoms: C_5  and  C_6
REMARK    3  A    between atoms: C_19  and  C_20
REMARK                            x       y       z     vdW  Elec       q    Type
REMARK                         _______ _______ _______ _____ _____    ______ ____
ROOT
ATOM      1  C   UNL     1       3.030   5.428  17.912  0.00  0.00    +0.000 C 
ATOM      2  C   UNL     1       2.920   6.537  18.684  0.00  0.00    +0.000 C 
ATOM      3  C   UNL     1       2.115   6.454  19.899  0.00  0.00    +0.000 C 
ATOM      4  O   UNL     1       1.718   7.424  20.519  0.00  0.00    +0.000 OA
ATOM      5  C   UNL     1       1.901   5.086  20.343  0.00  0.00    +0.000 A 
ATOM      6  C   UNL     1       2.675   4.464  21.315  0.00  0.00    +0.000 A 
ATOM      7  C   UNL     1       2.418   3.125  21.600  0.00  0.00    +0.000 A 
ATOM      8  C   UNL     1       1.341   2.484  20.979  0.00  0.00    +0.000 A 
ATOM      9  C   UNL     1       0.742   3.077  19.867  0.00  0.00    +0.000 A 
ATOM     10  C   UNL     1       1.249   4.296  19.426  0.00  0.00    +0.000 A 
ATOM     11  C   UNL     1       1.908   4.387  18.068  0.00  0.00    +0.000 C 
ATOM     12  O   UNL     1       1.625   3.577  17.185  0.00  0.00    +0.000 OA
ENDROOT
BRANCH   1  17
ATOM     13  C   UNL     1       7.905   5.219  14.663  0.00  0.00    +0.000 C 
ATOM     14  C   UNL     1       6.664   5.199  15.514  0.00  0.00    +0.000 A 
ATOM     15  C   UNL     1       6.634   5.886  16.739  0.00  0.00    +0.000 A 
ATOM     16  C   UNL     1       5.483   5.902  17.553  0.00  0.00    +0.000 A 
ATOM     17  C   UNL     1       4.316   5.219  17.176  0.00  0.00    +0.000 A 
ATOM     18  C   UNL     1       4.381   4.507  15.951  0.00  0.00    +0.000 A 
ATOM     19  C   UNL     1       5.522   4.504  15.115  0.00  0.00    +0.000 A 
ATOM     20  C   UNL     1       5.468   3.764  13.799  0.00  0.00    +0.000 C 
ENDBRANCH   1  17
TORSDOF 1
ENDMDL
MODEL 6
REMARK VINA RESULT:      -7.8      0.935      1.332
REMARK  Name = 
REMARK  3 active torsions:
REMARK  status: ('A' for Active; 'I' for Inactive)
REMARK    1  A    between atoms: C_1  and  C_2
REMARK    2  A    between atoms: C_5  and  C_6
REMARK    3  A    between atoms: C_19  and  C_20
REMARK                            x       y       z     vdW  Elec       q    Type
REMARK                         _______ _______ _______ _____ _____    ______ ____
ROOT
ATOM      1  C   UNL     1       4.096   4.737  17.163  0.00  0.00    +0.000 C 
ATOM      2  C   UNL     1       4.710   3.946  16.250  0.00  0.00    +0.000 C 
ATOM      3  C   UNL     1       5.998   4.380  15.717  0.00  0.00    +0.000 C 
ATOM      4  O   UNL     1       6.510   3.915  14.715  0.00  0.00    +0.000 OA
ATOM      5  C   UNL     1       6.649   5.374  16.554  0.00  0.00    +0.000 A 
ATOM      6  C   UNL     1       7.619   5.066  17.499  0.00  0.00    +0.000 A 
ATOM      7  C   UNL     1       8.115   6.099  18.293  0.00  0.00    +0.000 A 
ATOM      8  C   UNL     1       7.699   7.412  18.049  0.00  0.00    +0.000 A 
ATOM      9  C   UNL     1       6.578   7.637  17.249  0.00  0.00    +0.000 A 
ATOM     10  C   UNL     1       5.922   6.529  16.720  0.00  0.00    +0.000 A 
ATOM     11  C   UNL     1       4.507   6.219  17.153  0.00  0.00    +0.000 C 
ATOM     12  O   UNL     1       3.780   7.114  17.583  0.00  0.00    +0.000 OA
ENDROOT
BRANCH   1  17
ATOM     13  C   UNL     1       1.052   2.677  21.730  0.00  0.00    +0.000 C 
ATOM     14  C   UNL     1       1.831   3.137  20.528  0.00  0.00    +0.000 A 
ATOM     15  C   UNL     1       1.238   3.991  19.584  0.00  0.00    +0.000 A 
ATOM     16  C   UNL     1       1.945   4.453  18.454  0.00  0.00    +0.000 A 
ATOM     17  C   UNL     1       3.274   4.068  18.220  0.00  0.00    +0.000 A 
ATOM     18  C   UNL     1       3.840   3.179  19.170  0.00  0.00    +0.000 A 
ATOM     19  C   UNL     1       3.149   2.728  20.319  0.00  0.00    +0.000 A 
ATOM     20  C   UNL     1       3.863   1.832  21.303  0.00  0.00    +0.000 C 
ENDBRANCH   1  17
TORSDOF 1
ENDMDL
MODEL 7
REMARK VINA RESULT:      -7.6      3.058      5.013
REMARK  Name = 
REMARK  3 active torsions:
REMARK  status: ('A' for Active; 'I' for Inactive)
REMARK    1  A    between atoms: C_1  and  C_2
REMARK    2  A    between atoms: C_5  and  C_6
REMARK    3  A    between atoms: C_19  and  C_20
REMARK                            x       y       z     vdW  Elec       q    Type
REMARK                         _______ _______ _______ _____ _____    ______ ____
ROOT
ATOM      1  C   UNL     1       3.756   6.284  18.272  0.00  0.00    +0.000 C 
ATOM      2  C   UNL     1       4.258   6.221  17.015  0.00  0.00    +0.000 C 
ATOM      3  C   UNL     1       4.659   4.916  16.496  0.00  0.00    +0.000 C 
ATOM      4  O   UNL     1       5.362   4.761  15.514  0.00  0.00    +0.000 OA
ATOM      5  C   UNL     1       4.061   3.811  17.228  0.00  0.00    +0.000 A 
ATOM      6  C   UNL     1       2.908   3.153  16.818  0.00  0.00    +0.000 A 
ATOM      7  C   UNL     1       2.392   2.157  17.645  0.00  0.00    +0.000 A 
ATOM      8  C   UNL     1       3.094   1.788  18.797  0.00  0.00    +0.000 A 
ATOM      9  C   UNL     1       4.113   2.616  19.271  0.00  0.00    +0.000 A 
ATOM     10  C   UNL     1       4.388   3.782  18.563  0.00  0.00    +0.000 A 
ATOM     11  C   UNL     1       4.143   5.127  19.209  0.00  0.00    +0.000 C 
ATOM     12  O   UNL     1       4.143   5.236  20.435  0.00  0.00    +0.000 OA
ENDROOT
BRANCH   1  17
ATOM     13  C   UNL     1       0.212  10.769  19.572  0.00  0.00    +0.000 C 
ATOM     14  C   UNL     1       1.061   9.572  19.240  0.00  0.00    +0.000 A 
ATOM     15  C   UNL     1       1.615   9.430  17.957  0.00  0.00    +0.000 A 
ATOM     16  C   UNL     1       2.429   8.330  17.617  0.00  0.00    +0.000 A 
ATOM     17  C   UNL     1       2.711   7.319  18.550  0.00  0.00    +0.000 A 
ATOM     18  C   UNL     1       2.114   7.468  19.828  0.00  0.00    +0.000 A 
ATOM     19  C   UNL     1       1.317   8.579  20.187  0.00  0.00    +0.000 A 
ATOM     20  C   UNL     1       0.778   8.676  21.595  0.00  0.00    +0.000 C 
ENDBRANCH   1  17
TORSDOF 1
ENDMDL
MODEL 8
REMARK VINA RESULT:      -7.6      3.043      4.051
REMARK  Name = 
REMARK  3 active torsions:
REMARK  status: ('A' for Active; 'I' for Inactive)
REMARK    1  A    between atoms: C_1  and  C_2
REMARK    2  A    between atoms: C_5  and  C_6
REMARK    3  A    between atoms: C_19  and  C_20
REMARK                            x       y       z     vdW  Elec       q    Type
REMARK                         _______ _______ _______ _____ _____    ______ ____
ROOT
ATOM      1  C   UNL     1       3.267   6.152  17.823  0.00  0.00    +0.000 C 
ATOM      2  C   UNL     1       3.066   4.915  18.338  0.00  0.00    +0.000 C 
ATOM      3  C   UNL     1       4.214   4.019  18.447  0.00  0.00    +0.000 C 
ATOM      4  O   UNL     1       4.124   2.818  18.630  0.00  0.00    +0.000 OA
ATOM      5  C   UNL     1       5.486   4.722  18.397  0.00  0.00    +0.000 A 
ATOM      6  C   UNL     1       6.201   5.096  19.527  0.00  0.00    +0.000 A 
ATOM      7  C   UNL     1       7.371   5.833  19.349  0.00  0.00    +0.000 A 
ATOM      8  C   UNL     1       7.834   6.084  18.054  0.00  0.00    +0.000 A 
ATOM      9  C   UNL     1       6.979   5.881  16.970  0.00  0.00    +0.000 A 
ATOM     10  C   UNL     1       5.689   5.427  17.234  0.00  0.00    +0.000 A 
ATOM     11  C   UNL     1       4.504   6.313  16.924  0.00  0.00    +0.000 C 
ATOM     12  O   UNL     1       4.595   7.193  16.068  0.00  0.00    +0.000 OA
ENDROOT
BRANCH   1  17
ATOM     13  C   UNL     1       0.580  10.869  20.037  0.00  0.00    +0.000 C 
ATOM     14  C   UNL     1       1.205   9.619  19.478  0.00  0.00    +0.000 A 
ATOM     15  C   UNL     1       1.526   9.538  18.113  0.00  0.00    +0.000 A 
ATOM     16  C   UNL     1       2.127   8.390  17.558  0.00  0.00    +0.000 A 
ATOM     17  C   UNL     1       2.421   7.268  18.351  0.00  0.00    +0.000 A 
ATOM     18  C   UNL     1       2.058   7.362  19.719  0.00  0.00    +0.000 A 
ATOM     19  C   UNL     1       1.477   8.518  20.291  0.00  0.00    +0.000 A 
ATOM     20  C   UNL     1       1.185   8.540  21.772  0.00  0.00    +0.000 C 
ENDBRANCH   1  17
TORSDOF 1
ENDMDL
MODEL 9
REMARK VINA RESULT:      -7.4      3.326      4.131
REMARK  Name = 
REMARK  3 active torsions:
REMARK  status: ('A' for Active; 'I' for Inactive)
REMARK    1  A    between atoms: C_1  and  C_2
REMARK    2  A    between atoms: C_5  and  C_6
REMARK    3  A    between atoms: C_19  and  C_20
REMARK                            x       y       z     vdW  Elec       q    Type
REMARK                         _______ _______ _______ _____ _____    ______ ____
ROOT
ATOM      1  C   UNL     1       2.957   6.510  18.323  0.00  0.00    +0.000 C 
ATOM      2  C   UNL     1       2.772   5.214  18.671  0.00  0.00    +0.000 C 
ATOM      3  C   UNL     1       3.866   4.275  18.438  0.00  0.00    +0.000 C 
ATOM      4  O   UNL     1       3.736   3.064  18.448  0.00  0.00    +0.000 OA
ATOM      5  C   UNL     1       5.151   4.935  18.272  0.00  0.00    +0.000 A 
ATOM      6  C   UNL     1       6.068   5.099  19.302  0.00  0.00    +0.000 A 
ATOM      7  C   UNL     1       7.234   5.815  19.035  0.00  0.00    +0.000 A 
ATOM      8  C   UNL     1       7.485   6.256  17.732  0.00  0.00    +0.000 A 
ATOM      9  C   UNL     1       6.448   6.258  16.798  0.00  0.00    +0.000 A 
ATOM     10  C   UNL     1       5.197   5.810  17.212  0.00  0.00    +0.000 A 
ATOM     11  C   UNL     1       4.033   6.773  17.256  0.00  0.00    +0.000 C 
ATOM     12  O   UNL     1       4.030   7.775  16.541  0.00  0.00    +0.000 OA
ENDROOT
BRANCH   1  17
ATOM     13  C   UNL     1      -0.311  10.256  21.431  0.00  0.00    +0.000 C 
ATOM     14  C   UNL     1       0.584   9.346  20.633  0.00  0.00    +0.000 A 
ATOM     15  C   UNL     1       1.123   8.190  21.220  0.00  0.00    +0.000 A 
ATOM     16  C   UNL     1       1.951   7.307  20.497  0.00  0.00    +0.000 A 
ATOM     17  C   UNL     1       2.282   7.554  19.156  0.00  0.00    +0.000 A 
ATOM     18  C   UNL     1       1.752   8.745  18.595  0.00  0.00    +0.000 A 
ATOM     19  C   UNL     1       0.901   9.625  19.303  0.00  0.00    +0.000 A 
ATOM     20  C   UNL     1       0.338  10.835  18.595  0.00  0.00    +0.000 C 
ENDBRANCH   1  17
TORSDOF 1
ENDMDL
