MODEL 1
REMARK VINA RESULT:      -7.0      0.000      0.000
REMARK  Name = 
REMARK  11 active torsions:
REMARK  status: ('A' for Active; 'I' for Inactive)
REMARK    1  A    between atoms: C_1  and  O_2
REMARK    2  A    between atoms: O_2  and  C_3
REMARK    3  A    between atoms: C_5  and  C_6
REMARK    4  A    between atoms: C_9  and  O_10
REMARK    5  A    between atoms: O_10  and  C_11
REMARK    6  A    between atoms: C_12  and  O_13
REMARK    7  A    between atoms: O_13  and  C_14
REMARK    8  A    between atoms: C_15  and  O_16
REMARK    9  A    between atoms: O_16  and  C_17
REMARK   10  A    between atoms: C_19  and  C_20
REMARK   11  A    between atoms: C_22  and  O_23
REMARK                            x       y       z     vdW  Elec       q    Type
REMARK                         _______ _______ _______ _____ _____    ______ ____
ROOT
ATOM      1  C   UNL     1       3.776   3.944  17.173  0.00  0.00    +0.000 A 
ATOM      2  C   UNL     1       2.959   4.980  17.677  0.00  0.00    +0.000 A 
ATOM      3  C   UNL     1       3.426   6.289  17.897  0.00  0.00    +0.000 A 
ATOM      4  C   UNL     1       4.772   6.527  17.552  0.00  0.00    +0.000 A 
ATOM      5  C   UNL     1       5.587   5.523  17.004  0.00  0.00    +0.000 A 
ATOM      6  C   UNL     1       5.100   4.224  16.820  0.00  0.00    +0.000 A 
ENDROOT
BRANCH   3   7
ATOM      7  C   UNL     1       2.575   7.396  18.443  0.00  0.00    +0.000 A 
ATOM      8  C   UNL     1       2.284   8.487  17.601  0.00  0.00    +0.000 A 
ATOM      9  C   UNL     1       1.598   9.618  18.046  0.00  0.00    +0.000 A 
ATOM     10  C   UNL     1       1.138   9.706  19.358  0.00  0.00    +0.000 A 
ATOM     11  C   UNL     1       1.350   8.618  20.232  0.00  0.00    +0.000 A 
ATOM     12  C   UNL     1       2.058   7.461  19.769  0.00  0.00    +0.000 A 
BRANCH  10  13
ATOM     13  O   UNL     1       0.500  10.820  19.837  0.00  0.00    +0.000 OA
ATOM     14  C   UNL     1      -0.709  11.240  19.219  0.00  0.00    +0.000 C 
ENDBRANCH  10  13
BRANCH  11  15
ATOM     15  O   UNL     1       0.982   8.589  21.556  0.00  0.00    +0.000 OA
ATOM     16  C   UNL     1      -0.376   8.500  21.949  0.00  0.00    +0.000 C 
ENDBRANCH  11  15
BRANCH  12  17
ATOM     17  O   UNL     1       2.384   6.395  20.585  0.00  0.00    +0.000 OA
ATOM     18  C   UNL     1       1.427   5.344  20.721  0.00  0.00    +0.000 C 
ENDBRANCH  12  17
ENDBRANCH   3   7
BRANCH   1  20
ATOM     19  C   UNL     1       2.185   2.405  18.103  0.00  0.00    +0.000 C 
ATOM     20  O   UNL     1       3.118   2.745  17.083  0.00  0.00    +0.000 OA
ENDBRANCH   1  20
BRANCH   5  21
ATOM     21  C   UNL     1       6.963   5.889  16.616  0.00  0.00    +0.000 C 
ATOM     22  O   UNL     1       7.396   5.646  15.496  0.00  0.00    +0.000 OA
ENDBRANCH   5  21
BRANCH   6  23
ATOM     23  O   UNL     1       5.909   3.250  16.295  0.00  0.00    +0.000 OA
ATOM     24  H   UNL     1       6.261   3.554  15.430  0.00  0.00    +0.000 HD
ENDBRANCH   6  23
TORSDOF 7
ENDMDL
MODEL 2
REMARK VINA RESULT:      -6.7      0.587      2.608
REMARK  Name = 
REMARK  11 active torsions:
REMARK  status: ('A' for Active; 'I' for Inactive)
REMARK    1  A    between atoms: C_1  and  O_2
REMARK    2  A    between atoms: O_2  and  C_3
REMARK    3  A    between atoms: C_5  and  C_6
REMARK    4  A    between atoms: C_9  and  O_10
REMARK    5  A    between atoms: O_10  and  C_11
REMARK    6  A    between atoms: C_12  and  O_13
REMARK    7  A    between atoms: O_13  and  C_14
REMARK    8  A    between atoms: C_15  and  O_16
REMARK    9  A    between atoms: O_16  and  C_17
REMARK   10  A    between atoms: C_19  and  C_20
REMARK   11  A    between atoms: C_22  and  O_23
REMARK                            x       y       z     vdW  Elec       q    Type
REMARK                         _______ _______ _______ _____ _____    ______ ____
ROOT
ATOM      1  C   UNL     1       5.386   5.700  16.843  0.00  0.00    +0.000 A 
ATOM      2  C   UNL     1       4.594   6.731  17.393  0.00  0.00    +0.000 A 
ATOM      3  C   UNL     1       3.291   6.521  17.883  0.00  0.00    +0.000 A 
ATOM      4  C   UNL     1       2.820   5.194  17.823  0.00  0.00    +0.000 A 
ATOM      5  C   UNL     1       3.610   4.146  17.325  0.00  0.00    +0.000 A 
ATOM      6  C   UNL     1       4.893   4.391  16.822  0.00  0.00    +0.000 A 
ENDROOT
BRANCH   3   7
ATOM      7  C   UNL     1       2.433   7.607  18.458  0.00  0.00    +0.000 A 
ATOM      8  C   UNL     1       2.076   8.684  17.623  0.00  0.00    +0.000 A 
ATOM      9  C   UNL     1       1.378   9.799  18.091  0.00  0.00    +0.000 A 
ATOM     10  C   UNL     1       0.972   9.883  19.421  0.00  0.00    +0.000 A 
ATOM     11  C   UNL     1       1.251   8.807  20.291  0.00  0.00    +0.000 A 
ATOM     12  C   UNL     1       1.971   7.667  19.804  0.00  0.00    +0.000 A 
BRANCH  10  13
ATOM     13  O   UNL     1       0.323  10.981  19.920  0.00  0.00    +0.000 OA
ATOM     14  C   UNL     1      -1.025  11.219  19.536  0.00  0.00    +0.000 C 
ENDBRANCH  10  13
BRANCH  11  15
ATOM     15  O   UNL     1       0.941   8.776  21.629  0.00  0.00    +0.000 OA
ATOM     16  C   UNL     1      -0.383   8.548  22.081  0.00  0.00    +0.000 C 
ENDBRANCH  11  15
BRANCH  12  17
ATOM     17  O   UNL     1       2.361   6.616  20.613  0.00  0.00    +0.000 OA
ATOM     18  C   UNL     1       1.452   5.528  20.774  0.00  0.00    +0.000 C 
ENDBRANCH  12  17
ENDBRANCH   3   7
BRANCH   1  20
ATOM     19  C   UNL     1       7.434   6.871  17.291  0.00  0.00    +0.000 C 
ATOM     20  O   UNL     1       6.601   6.147  16.392  0.00  0.00    +0.000 OA
ENDBRANCH   1  20
BRANCH   5  21
ATOM     21  C   UNL     1       3.049   2.781  17.365  0.00  0.00    +0.000 C 
ATOM     22  O   UNL     1       3.634   1.868  17.933  0.00  0.00    +0.000 OA
ENDBRANCH   5  21
BRANCH   6  23
ATOM     23  O   UNL     1       5.650   3.362  16.327  0.00  0.00    +0.000 OA
ATOM     24  H   UNL     1       6.600   3.605  16.379  0.00  0.00    +0.000 HD
ENDBRANCH   6  23
TORSDOF 7
ENDMDL
MODEL 3
REMARK VINA RESULT:      -6.3      1.964      3.858
REMARK  Name = 
REMARK  11 active torsions:
REMARK  status: ('A' for Active; 'I' for Inactive)
REMARK    1  A    between atoms: C_1  and  O_2
REMARK    2  A    between atoms: O_2  and  C_3
REMARK    3  A    between atoms: C_5  and  C_6
REMARK    4  A    between atoms: C_9  and  O_10
REMARK    5  A    between atoms: O_10  and  C_11
REMARK    6  A    between atoms: C_12  and  O_13
REMARK    7  A    between atoms: O_13  and  C_14
REMARK    8  A    between atoms: C_15  and  O_16
REMARK    9  A    between atoms: O_16  and  C_17
REMARK   10  A    between atoms: C_19  and  C_20
REMARK   11  A    between atoms: C_22  and  O_23
REMARK                            x       y       z     vdW  Elec       q    Type
REMARK                         _______ _______ _______ _____ _____    ______ ____
ROOT
ATOM      1  C   UNL     1       7.065   6.501  16.472  0.00  0.00    +0.000 A 
ATOM      2  C   UNL     1       6.036   6.648  17.428  0.00  0.00    +0.000 A 
ATOM      3  C   UNL     1       4.838   5.911  17.387  0.00  0.00    +0.000 A 
ATOM      4  C   UNL     1       4.729   4.975  16.337  0.00  0.00    +0.000 A 
ATOM      5  C   UNL     1       5.760   4.780  15.405  0.00  0.00    +0.000 A 
ATOM      6  C   UNL     1       6.930   5.547  15.458  0.00  0.00    +0.000 A 
ENDROOT
BRANCH   3   7
ATOM      7  C   UNL     1       3.732   6.064  18.387  0.00  0.00    +0.000 A 
ATOM      8  C   UNL     1       2.940   7.228  18.328  0.00  0.00    +0.000 A 
ATOM      9  C   UNL     1       1.961   7.519  19.279  0.00  0.00    +0.000 A 
ATOM     10  C   UNL     1       1.701   6.643  20.331  0.00  0.00    +0.000 A 
ATOM     11  C   UNL     1       2.424   5.434  20.409  0.00  0.00    +0.000 A 
ATOM     12  C   UNL     1       3.430   5.142  19.430  0.00  0.00    +0.000 A 
BRANCH  10  13
ATOM     13  O   UNL     1       0.778   6.921  21.304  0.00  0.00    +0.000 OA
ATOM     14  C   UNL     1       0.404   8.273  21.533  0.00  0.00    +0.000 C 
ENDBRANCH  10  13
BRANCH  11  15
ATOM     15  O   UNL     1       2.294   4.502  21.410  0.00  0.00    +0.000 OA
ATOM     16  C   UNL     1       1.378   3.425  21.310  0.00  0.00    +0.000 C 
ENDBRANCH  11  15
BRANCH  12  17
ATOM     17  O   UNL     1       4.241   4.024  19.487  0.00  0.00    +0.000 OA
ATOM     18  C   UNL     1       3.764   2.824  18.881  0.00  0.00    +0.000 C 
ENDBRANCH  12  17
ENDBRANCH   3   7
BRANCH   1  20
ATOM     19  C   UNL     1       7.983   8.355  17.691  0.00  0.00    +0.000 C 
ATOM     20  O   UNL     1       8.117   7.353  16.689  0.00  0.00    +0.000 OA
ENDBRANCH   1  20
BRANCH   5  21
ATOM     21  C   UNL     1       5.575   3.732  14.383  0.00  0.00    +0.000 C 
ATOM     22  O   UNL     1       6.079   3.830  13.270  0.00  0.00    +0.000 OA
ENDBRANCH   5  21
BRANCH   6  23
ATOM     23  O   UNL     1       7.925   5.355  14.536  0.00  0.00    +0.000 OA
ATOM     24  H   UNL     1       7.524   5.113  13.672  0.00  0.00    +0.000 HD
ENDBRANCH   6  23
TORSDOF 7
ENDMDL
MODEL 4
REMARK VINA RESULT:      -6.3      2.796      5.138
REMARK  Name = 
REMARK  11 active torsions:
REMARK  status: ('A' for Active; 'I' for Inactive)
REMARK    1  A    between atoms: C_1  and  O_2
REMARK    2  A    between atoms: O_2  and  C_3
REMARK    3  A    between atoms: C_5  and  C_6
REMARK    4  A    between atoms: C_9  and  O_10
REMARK    5  A    between atoms: O_10  and  C_11
REMARK    6  A    between atoms: C_12  and  O_13
REMARK    7  A    between atoms: O_13  and  C_14
REMARK    8  A    between atoms: C_15  and  O_16
REMARK    9  A    between atoms: O_16  and  C_17
REMARK   10  A    between atoms: C_19  and  C_20
REMARK   11  A    between atoms: C_22  and  O_23
REMARK                            x       y       z     vdW  Elec       q    Type
REMARK                         _______ _______ _______ _____ _____    ______ ____
ROOT
ATOM      1  C   UNL     1       7.091   5.778  15.988  0.00  0.00    +0.000 A 
ATOM      2  C   UNL     1       6.201   5.358  17.001  0.00  0.00    +0.000 A 
ATOM      3  C   UNL     1       5.236   4.351  16.807  0.00  0.00    +0.000 A 
ATOM      4  C   UNL     1       5.225   3.750  15.532  0.00  0.00    +0.000 A 
ATOM      5  C   UNL     1       6.134   4.120  14.528  0.00  0.00    +0.000 A 
ATOM      6  C   UNL     1       7.065   5.142  14.743  0.00  0.00    +0.000 A 
ENDROOT
BRANCH   3   7
ATOM      7  C   UNL     1       4.276   3.903  17.868  0.00  0.00    +0.000 A 
ATOM      8  C   UNL     1       3.819   2.571  17.829  0.00  0.00    +0.000 A 
ATOM      9  C   UNL     1       2.841   2.087  18.699  0.00  0.00    +0.000 A 
ATOM     10  C   UNL     1       2.284   2.906  19.678  0.00  0.00    +0.000 A 
ATOM     11  C   UNL     1       2.745   4.235  19.801  0.00  0.00    +0.000 A 
ATOM     12  C   UNL     1       3.747   4.726  18.902  0.00  0.00    +0.000 A 
BRANCH  10  13
ATOM     13  O   UNL     1       1.292   2.473  20.518  0.00  0.00    +0.000 OA
ATOM     14  C   UNL     1       1.564   2.369  21.909  0.00  0.00    +0.000 C 
ENDBRANCH  10  13
BRANCH  11  15
ATOM     15  O   UNL     1       2.257   5.157  20.696  0.00  0.00    +0.000 OA
ATOM     16  C   UNL     1       1.021   5.817  20.485  0.00  0.00    +0.000 C 
ENDBRANCH  11  15
BRANCH  12  17
ATOM     17  O   UNL     1       4.186   6.037  18.900  0.00  0.00    +0.000 OA
ATOM     18  C   UNL     1       3.433   6.988  18.148  0.00  0.00    +0.000 C 
ENDBRANCH  12  17
ENDBRANCH   3   7
BRANCH   1  20
ATOM     19  C   UNL     1       7.550   7.539  17.555  0.00  0.00    +0.000 C 
ATOM     20  O   UNL     1       7.911   6.799  16.393  0.00  0.00    +0.000 OA
ENDBRANCH   1  20
BRANCH   5  21
ATOM     21  C   UNL     1       6.082   3.385  13.248  0.00  0.00    +0.000 C 
ATOM     22  O   UNL     1       6.425   3.912  12.197  0.00  0.00    +0.000 OA
ENDBRANCH   5  21
BRANCH   6  23
ATOM     23  O   UNL     1       7.939   5.501  13.751  0.00  0.00    +0.000 OA
ATOM     24  H   UNL     1       8.485   4.723  13.503  0.00  0.00    +0.000 HD
ENDBRANCH   6  23
TORSDOF 7
ENDMDL
MODEL 5
REMARK VINA RESULT:      -6.3      1.370      6.829
REMARK  Name = 
REMARK  11 active torsions:
REMARK  status: ('A' for Active; 'I' for Inactive)
REMARK    1  A    between atoms: C_1  and  O_2
REMARK    2  A    between atoms: O_2  and  C_3
REMARK    3  A    between atoms: C_5  and  C_6
REMARK    4  A    between atoms: C_9  and  O_10
REMARK    5  A    between atoms: O_10  and  C_11
REMARK    6  A    between atoms: C_12  and  O_13
REMARK    7  A    between atoms: O_13  and  C_14
REMARK    8  A    between atoms: C_15  and  O_16
REMARK    9  A    between atoms: O_16  and  C_17
REMARK   10  A    between atoms: C_19  and  C_20
REMARK   11  A    between atoms: C_22  and  O_23
REMARK                            x       y       z     vdW  Elec       q    Type
REMARK                         _______ _______ _______ _____ _____    ______ ____
ROOT
ATOM      1  C   UNL     1       0.464   9.652  18.694  0.00  0.00    +0.000 A 
ATOM      2  C   UNL     1       1.249   8.648  18.086  0.00  0.00    +0.000 A 
ATOM      3  C   UNL     1       2.046   7.747  18.818  0.00  0.00    +0.000 A 
ATOM      4  C   UNL     1       1.993   7.881  20.221  0.00  0.00    +0.000 A 
ATOM      5  C   UNL     1       1.181   8.841  20.845  0.00  0.00    +0.000 A 
ATOM      6  C   UNL     1       0.419   9.739  20.089  0.00  0.00    +0.000 A 
ENDROOT
BRANCH   3   7
ATOM      7  C   UNL     1       2.894   6.684  18.188  0.00  0.00    +0.000 A 
ATOM      8  C   UNL     1       4.058   7.084  17.501  0.00  0.00    +0.000 A 
ATOM      9  C   UNL     1       4.853   6.188  16.785  0.00  0.00    +0.000 A 
ATOM     10  C   UNL     1       4.541   4.831  16.741  0.00  0.00    +0.000 A 
ATOM     11  C   UNL     1       3.419   4.363  17.458  0.00  0.00    +0.000 A 
ATOM     12  C   UNL     1       2.605   5.290  18.188  0.00  0.00    +0.000 A 
BRANCH  10  13
ATOM     13  O   UNL     1       5.277   3.934  16.013  0.00  0.00    +0.000 OA
ATOM     14  C   UNL     1       5.767   4.320  14.736  0.00  0.00    +0.000 C 
ENDBRANCH  10  13
BRANCH  11  15
ATOM     15  O   UNL     1       2.979   3.061  17.470  0.00  0.00    +0.000 OA
ATOM     16  C   UNL     1       3.583   2.079  18.295  0.00  0.00    +0.000 C 
ENDBRANCH  11  15
BRANCH  12  17
ATOM     17  O   UNL     1       1.441   4.926  18.840  0.00  0.00    +0.000 OA
ATOM     18  C   UNL     1       1.552   4.444  20.179  0.00  0.00    +0.000 C 
ENDBRANCH  12  17
ENDBRANCH   3   7
BRANCH   1  20
ATOM     19  C   UNL     1      -1.501  10.054  17.372  0.00  0.00    +0.000 C 
ATOM     20  O   UNL     1      -0.192  10.437  17.781  0.00  0.00    +0.000 OA
ENDBRANCH   1  20
BRANCH   5  21
ATOM     21  C   UNL     1       1.146   8.859  22.321  0.00  0.00    +0.000 C 
ATOM     22  O   UNL     1       0.941   9.895  22.941  0.00  0.00    +0.000 OA
ENDBRANCH   5  21
BRANCH   6  23
ATOM     23  O   UNL     1      -0.360  10.679  20.710  0.00  0.00    +0.000 OA
ATOM     24  H   UNL     1      -1.204  10.263  20.994  0.00  0.00    +0.000 HD
ENDBRANCH   6  23
TORSDOF 7
ENDMDL
MODEL 6
REMARK VINA RESULT:      -6.2      1.283      1.303
REMARK  Name = 
REMARK  11 active torsions:
REMARK  status: ('A' for Active; 'I' for Inactive)
REMARK    1  A    between atoms: C_1  and  O_2
REMARK    2  A    between atoms: O_2  and  C_3
REMARK    3  A    between atoms: C_5  and  C_6
REMARK    4  A    between atoms: C_9  and  O_10
REMARK    5  A    between atoms: O_10  and  C_11
REMARK    6  A    between atoms: C_12  and  O_13
REMARK    7  A    between atoms: O_13  and  C_14
REMARK    8  A    between atoms: C_15  and  O_16
REMARK    9  A    between atoms: O_16  and  C_17
REMARK   10  A    between atoms: C_19  and  C_20
REMARK   11  A    between atoms: C_22  and  O_23
REMARK                            x       y       z     vdW  Elec       q    Type
REMARK                         _______ _______ _______ _____ _____    ______ ____
ROOT
ATOM      1  C   UNL     1       5.054   4.476  18.479  0.00  0.00    +0.000 A 
ATOM      2  C   UNL     1       4.107   5.433  18.905  0.00  0.00    +0.000 A 
ATOM      3  C   UNL     1       3.681   6.505  18.099  0.00  0.00    +0.000 A 
ATOM      4  C   UNL     1       4.237   6.558  16.805  0.00  0.00    +0.000 A 
ATOM      5  C   UNL     1       5.143   5.589  16.345  0.00  0.00    +0.000 A 
ATOM      6  C   UNL     1       5.566   4.549  17.179  0.00  0.00    +0.000 A 
ENDROOT
BRANCH   3   7
ATOM      7  C   UNL     1       2.686   7.536  18.542  0.00  0.00    +0.000 A 
ATOM      8  C   UNL     1       2.444   8.633  17.692  0.00  0.00    +0.000 A 
ATOM      9  C   UNL     1       1.625   9.702  18.060  0.00  0.00    +0.000 A 
ATOM     10  C   UNL     1       0.977   9.716  19.293  0.00  0.00    +0.000 A 
ATOM     11  C   UNL     1       1.136   8.616  20.162  0.00  0.00    +0.000 A 
ATOM     12  C   UNL     1       1.982   7.523  19.780  0.00  0.00    +0.000 A 
BRANCH  10  13
ATOM     13  O   UNL     1       0.201  10.769  19.700  0.00  0.00    +0.000 OA
ATOM     14  C   UNL     1       0.266  11.992  18.979  0.00  0.00    +0.000 C 
ENDBRANCH  10  13
BRANCH  11  15
ATOM     15  O   UNL     1       0.586   8.518  21.418  0.00  0.00    +0.000 OA
ATOM     16  C   UNL     1       1.154   9.185  22.533  0.00  0.00    +0.000 C 
ENDBRANCH  11  15
BRANCH  12  17
ATOM     17  O   UNL     1       2.260   6.454  20.610  0.00  0.00    +0.000 OA
ATOM     18  C   UNL     1       1.348   5.356  20.609  0.00  0.00    +0.000 C 
ENDBRANCH  12  17
ENDBRANCH   3   7
BRANCH   1  20
ATOM     19  C   UNL     1       4.396   2.526  19.717  0.00  0.00    +0.000 C 
ATOM     20  O   UNL     1       5.347   3.551  19.447  0.00  0.00    +0.000 OA
ENDBRANCH   1  20
BRANCH   5  21
ATOM     21  C   UNL     1       5.618   5.697  14.951  0.00  0.00    +0.000 C 
ATOM     22  O   UNL     1       6.778   5.440  14.652  0.00  0.00    +0.000 OA
ENDBRANCH   5  21
BRANCH   6  23
ATOM     23  O   UNL     1       6.460   3.616  16.722  0.00  0.00    +0.000 OA
ATOM     24  H   UNL     1       6.206   2.730  17.064  0.00  0.00    +0.000 HD
ENDBRANCH   6  23
TORSDOF 7
ENDMDL
MODEL 7
REMARK VINA RESULT:      -6.1      2.111      3.950
REMARK  Name = 
REMARK  11 active torsions:
REMARK  status: ('A' for Active; 'I' for Inactive)
REMARK    1  A    between atoms: C_1  and  O_2
REMARK    2  A    between atoms: O_2  and  C_3
REMARK    3  A    between atoms: C_5  and  C_6
REMARK    4  A    between atoms: C_9  and  O_10
REMARK    5  A    between atoms: O_10  and  C_11
REMARK    6  A    between atoms: C_12  and  O_13
REMARK    7  A    between atoms: O_13  and  C_14
REMARK    8  A    between atoms: C_15  and  O_16
REMARK    9  A    between atoms: O_16  and  C_17
REMARK   10  A    between atoms: C_19  and  C_20
REMARK   11  A    between atoms: C_22  and  O_23
REMARK                            x       y       z     vdW  Elec       q    Type
REMARK                         _______ _______ _______ _____ _____    ______ ____
ROOT
ATOM      1  C   UNL     1       4.537   4.115  19.215  0.00  0.00    +0.000 A 
ATOM      2  C   UNL     1       4.028   5.403  19.492  0.00  0.00    +0.000 A 
ATOM      3  C   UNL     1       2.652   5.677  19.608  0.00  0.00    +0.000 A 
ATOM      4  C   UNL     1       1.791   4.570  19.461  0.00  0.00    +0.000 A 
ATOM      5  C   UNL     1       2.280   3.274  19.233  0.00  0.00    +0.000 A 
ATOM      6  C   UNL     1       3.653   3.037  19.098  0.00  0.00    +0.000 A 
ENDROOT
BRANCH   3   7
ATOM      7  C   UNL     1       2.096   7.040  19.890  0.00  0.00    +0.000 A 
ATOM      8  C   UNL     1       1.632   7.312  21.192  0.00  0.00    +0.000 A 
ATOM      9  C   UNL     1       0.994   8.507  21.528  0.00  0.00    +0.000 A 
ATOM     10  C   UNL     1       0.810   9.512  20.581  0.00  0.00    +0.000 A 
ATOM     11  C   UNL     1       1.305   9.318  19.273  0.00  0.00    +0.000 A 
ATOM     12  C   UNL     1       1.957   8.087  18.935  0.00  0.00    +0.000 A 
BRANCH  10  13
ATOM     13  O   UNL     1       0.150  10.677  20.869  0.00  0.00    +0.000 OA
ATOM     14  C   UNL     1      -0.508  10.805  22.121  0.00  0.00    +0.000 C 
ENDBRANCH  10  13
BRANCH  11  15
ATOM     15  O   UNL     1       1.160  10.209  18.237  0.00  0.00    +0.000 OA
ATOM     16  C   UNL     1       2.038  11.309  18.072  0.00  0.00    +0.000 C 
ENDBRANCH  11  15
BRANCH  12  17
ATOM     17  O   UNL     1       2.388   7.785  17.656  0.00  0.00    +0.000 OA
ATOM     18  C   UNL     1       3.755   8.044  17.338  0.00  0.00    +0.000 C 
ENDBRANCH  12  17
ENDBRANCH   3   7
BRANCH   1  20
ATOM     19  C   UNL     1       6.601   5.338  19.109  0.00  0.00    +0.000 C 
ATOM     20  O   UNL     1       5.903   4.097  19.105  0.00  0.00    +0.000 OA
ENDBRANCH   1  20
BRANCH   5  21
ATOM     21  C   UNL     1       1.301   2.172  19.158  0.00  0.00    +0.000 C 
ATOM     22  O   UNL     1       0.311   2.247  18.440  0.00  0.00    +0.000 OA
ENDBRANCH   5  21
BRANCH   6  23
ATOM     23  O   UNL     1       4.117   1.770  18.865  0.00  0.00    +0.000 OA
ATOM     24  H   UNL     1       4.581   1.442  19.666  0.00  0.00    +0.000 HD
ENDBRANCH   6  23
TORSDOF 7
ENDMDL
MODEL 8
REMARK VINA RESULT:      -6.1      2.033      4.346
REMARK  Name = 
REMARK  11 active torsions:
REMARK  status: ('A' for Active; 'I' for Inactive)
REMARK    1  A    between atoms: C_1  and  O_2
REMARK    2  A    between atoms: O_2  and  C_3
REMARK    3  A    between atoms: C_5  and  C_6
REMARK    4  A    between atoms: C_9  and  O_10
REMARK    5  A    between atoms: O_10  and  C_11
REMARK    6  A    between atoms: C_12  and  O_13
REMARK    7  A    between atoms: O_13  and  C_14
REMARK    8  A    between atoms: C_15  and  O_16
REMARK    9  A    between atoms: O_16  and  C_17
REMARK   10  A    between atoms: C_19  and  C_20
REMARK   11  A    between atoms: C_22  and  O_23
REMARK                            x       y       z     vdW  Elec       q    Type
REMARK                         _______ _______ _______ _____ _____    ______ ____
ROOT
ATOM      1  C   UNL     1       3.440   5.541  18.936  0.00  0.00    +0.000 A 
ATOM      2  C   UNL     1       2.930   6.798  19.329  0.00  0.00    +0.000 A 
ATOM      3  C   UNL     1       1.908   6.948  20.285  0.00  0.00    +0.000 A 
ATOM      4  C   UNL     1       1.432   5.755  20.866  0.00  0.00    +0.000 A 
ATOM      5  C   UNL     1       1.960   4.500  20.525  0.00  0.00    +0.000 A 
ATOM      6  C   UNL     1       2.958   4.381  19.552  0.00  0.00    +0.000 A 
ENDROOT
BRANCH   3   7
ATOM      7  C   UNL     1       1.347   8.274  20.703  0.00  0.00    +0.000 A 
ATOM      8  C   UNL     1       1.172   8.516  22.080  0.00  0.00    +0.000 A 
ATOM      9  C   UNL     1       0.554   9.669  22.568  0.00  0.00    +0.000 A 
ATOM     10  C   UNL     1       0.102  10.660  21.700  0.00  0.00    +0.000 A 
ATOM     11  C   UNL     1       0.302  10.498  20.312  0.00  0.00    +0.000 A 
ATOM     12  C   UNL     1       0.935   9.311  19.819  0.00  0.00    +0.000 A 
BRANCH  10  13
ATOM     13  O   UNL     1      -0.546  11.782  22.145  0.00  0.00    +0.000 OA
ATOM     14  C   UNL     1      -1.709  11.633  22.948  0.00  0.00    +0.000 C 
ENDBRANCH  10  13
BRANCH  11  15
ATOM     15  O   UNL     1      -0.126  11.378  19.347  0.00  0.00    +0.000 OA
ATOM     16  C   UNL     1      -1.448  11.340  18.839  0.00  0.00    +0.000 C 
ENDBRANCH  11  15
BRANCH  12  17
ATOM     17  O   UNL     1       1.087   9.037  18.472  0.00  0.00    +0.000 OA
ATOM     18  C   UNL     1       2.074   9.773  17.751  0.00  0.00    +0.000 C 
ENDBRANCH  12  17
ENDBRANCH   3   7
BRANCH   1  20
ATOM     19  C   UNL     1       4.509   6.860  17.238  0.00  0.00    +0.000 C 
ATOM     20  O   UNL     1       4.398   5.639  17.961  0.00  0.00    +0.000 OA
ENDBRANCH   1  20
BRANCH   5  21
ATOM     21  C   UNL     1       1.438   3.316  21.237  0.00  0.00    +0.000 C 
ATOM     22  O   UNL     1       2.143   2.670  22.002  0.00  0.00    +0.000 OA
ENDBRANCH   5  21
BRANCH   6  23
ATOM     23  O   UNL     1       3.457   3.149  19.219  0.00  0.00    +0.000 OA
ATOM     24  H   UNL     1       2.925   2.772  18.485  0.00  0.00    +0.000 HD
ENDBRANCH   6  23
TORSDOF 7
ENDMDL
MODEL 9
REMARK VINA RESULT:      -6.0      1.703      2.190
REMARK  Name = 
REMARK  11 active torsions:
REMARK  status: ('A' for Active; 'I' for Inactive)
REMARK    1  A    between atoms: C_1  and  O_2
REMARK    2  A    between atoms: O_2  and  C_3
REMARK    3  A    between atoms: C_5  and  C_6
REMARK    4  A    between atoms: C_9  and  O_10
REMARK    5  A    between atoms: O_10  and  C_11
REMARK    6  A    between atoms: C_12  and  O_13
REMARK    7  A    between atoms: O_13  and  C_14
REMARK    8  A    between atoms: C_15  and  O_16
REMARK    9  A    between atoms: O_16  and  C_17
REMARK   10  A    between atoms: C_19  and  C_20
REMARK   11  A    between atoms: C_22  and  O_23
REMARK                            x       y       z     vdW  Elec       q    Type
REMARK                         _______ _______ _______ _____ _____    ______ ____
ROOT
ATOM      1  C   UNL     1       5.611   4.708  16.403  0.00  0.00    +0.000 A 
ATOM      2  C   UNL     1       4.509   5.516  16.760  0.00  0.00    +0.000 A 
ATOM      3  C   UNL     1       4.483   6.314  17.918  0.00  0.00    +0.000 A 
ATOM      4  C   UNL     1       5.652   6.289  18.707  0.00  0.00    +0.000 A 
ATOM      5  C   UNL     1       6.776   5.530  18.344  0.00  0.00    +0.000 A 
ATOM      6  C   UNL     1       6.762   4.727  17.199  0.00  0.00    +0.000 A 
ENDROOT
BRANCH   3   7
ATOM      7  C   UNL     1       3.316   7.167  18.316  0.00  0.00    +0.000 A 
ATOM      8  C   UNL     1       2.930   8.209  17.450  0.00  0.00    +0.000 A 
ATOM      9  C   UNL     1       1.932   9.128  17.779  0.00  0.00    +0.000 A 
ATOM     10  C   UNL     1       1.245   9.038  18.988  0.00  0.00    +0.000 A 
ATOM     11  C   UNL     1       1.551   7.980  19.870  0.00  0.00    +0.000 A 
ATOM     12  C   UNL     1       2.578   7.041  19.527  0.00  0.00    +0.000 A 
BRANCH  10  13
ATOM     13  O   UNL     1       0.292   9.949  19.358  0.00  0.00    +0.000 OA
ATOM     14  C   UNL     1      -0.196  10.867  18.389  0.00  0.00    +0.000 C 
ENDBRANCH  10  13
BRANCH  11  15
ATOM     15  O   UNL     1       0.977   7.795  21.106  0.00  0.00    +0.000 OA
ATOM     16  C   UNL     1       1.131   8.744  22.147  0.00  0.00    +0.000 C 
ENDBRANCH  11  15
BRANCH  12  17
ATOM     17  O   UNL     1       2.997   6.033  20.375  0.00  0.00    +0.000 OA
ATOM     18  C   UNL     1       2.289   4.794  20.337  0.00  0.00    +0.000 C 
ENDBRANCH  12  17
ENDBRANCH   3   7
BRANCH   1  20
ATOM     19  C   UNL     1       6.160   4.300  14.102  0.00  0.00    +0.000 C 
ATOM     20  O   UNL     1       5.392   3.987  15.259  0.00  0.00    +0.000 OA
ENDBRANCH   1  20
BRANCH   5  21
ATOM     21  C   UNL     1       7.974   5.621  19.202  0.00  0.00    +0.000 C 
ATOM     22  O   UNL     1       7.928   5.339  20.394  0.00  0.00    +0.000 OA
ENDBRANCH   5  21
BRANCH   6  23
ATOM     23  O   UNL     1       7.861   3.982  16.862  0.00  0.00    +0.000 OA
ATOM     24  H   UNL     1       8.673   4.461  17.137  0.00  0.00    +0.000 HD
ENDBRANCH   6  23
TORSDOF 7
ENDMDL
