MODEL 1
REMARK VINA RESULT:      -7.2      0.000      0.000
REMARK  Name = 
REMARK  10 active torsions:
REMARK  status: ('A' for Active; 'I' for Inactive)
REMARK    1  A    between atoms: C_1  and  C_2
REMARK    2  A    between atoms: C_3  and  O_4
REMARK    3  A    between atoms: O_4  and  C_5
REMARK    4  A    between atoms: C_5  and  C_6
REMARK    5  A    between atoms: C_6  and  N_7
REMARK    6  A    between atoms: N_7  and  C_8
REMARK    7  A    between atoms: N_7  and  C_9
REMARK    8  A    between atoms: C_21  and  C_23
REMARK    9  A    between atoms: C_26  and  C_27
REMARK   10  A    between atoms: C_27  and  O_29
REMARK                            x       y       z     vdW  Elec       q    Type
REMARK                         _______ _______ _______ _____ _____    ______ ____
ROOT
ATOM      1  C   UNL     1      -4.965  12.086  20.251  0.00  0.00    +0.000 C 
ATOM      2  C   UNL     1      -4.127  11.835  19.023  0.00  0.00    +0.000 A 
ATOM      3  C   UNL     1      -4.716  11.594  17.788  0.00  0.00    +0.000 A 
ATOM      4  C   UNL     1      -3.893  11.348  16.679  0.00  0.00    +0.000 A 
ATOM      5  C   UNL     1      -2.481  11.214  16.811  0.00  0.00    +0.000 A 
ATOM      6  C   UNL     1      -1.866  11.370  18.056  0.00  0.00    +0.000 A 
ATOM      7  C   UNL     1      -0.470  10.975  18.432  0.00  0.00    +0.000 A 
ATOM      8  C   UNL     1      -0.184  11.140  19.735  0.00  0.00    +0.000 A 
ATOM      9  C   UNL     1      -0.902  12.072  20.606  0.00  0.00    +0.000 A 
ATOM     10  O   UNL     1      -0.349  12.631  21.545  0.00  0.00    +0.000 OA
ATOM     11  O   UNL     1      -2.226  12.182  20.352  0.00  0.00    +0.000 OA
ATOM     12  C   UNL     1      -2.727  11.764  19.106  0.00  0.00    +0.000 A 
ATOM     13  C   UNL     1       0.706  10.284  20.546  0.00  0.00    +0.000 C 
ATOM     14  N   UNL     1       1.102   9.093  19.827  0.00  0.00    +0.000 N 
ATOM     15  C   UNL     1       1.522   8.085  20.705  0.00  0.00    +0.000 C 
ATOM     16  O   UNL     1       1.605   8.289  21.919  0.00  0.00    +0.000 OA
ATOM     17  C   UNL     1       1.555   9.337  18.450  0.00  0.00    +0.000 C 
ATOM     18  C   UNL     1       0.513  10.159  17.601  0.00  0.00    +0.000 C 
ENDROOT
BRANCH  15  19
ATOM     19  C   UNL     1       1.751   6.688  20.287  0.00  0.00    +0.000 A 
ATOM     20  C   UNL     1       0.908   5.705  20.847  0.00  0.00    +0.000 A 
ATOM     21  C   UNL     1       0.892   4.404  20.344  0.00  0.00    +0.000 A 
ATOM     22  C   UNL     1       1.730   4.078  19.275  0.00  0.00    +0.000 A 
ATOM     23  C   UNL     1       2.548   5.058  18.696  0.00  0.00    +0.000 A 
ATOM     24  C   UNL     1       2.558   6.363  19.197  0.00  0.00    +0.000 A 
BRANCH  22  25
ATOM     25  C   UNL     1       1.730   2.728  18.678  0.00  0.00    +0.000 C 
ATOM     26  O   UNL     1       0.706   2.121  18.407  0.00  0.00    +0.000 OA
BRANCH  25  27
ATOM     27  O   UNL     1       2.968   2.265  18.402  0.00  0.00    +0.000 OA
ATOM     28  H   UNL     1       3.166   2.184  17.467  0.00  0.00    +0.000 HD
ENDBRANCH  25  27
ENDBRANCH  22  25
ENDBRANCH  15  19
BRANCH   3  29
ATOM     29  O   UNL     1      -6.084  11.698  17.748  0.00  0.00    +0.000 OA
BRANCH  29  30
ATOM     30  C   UNL     1      -6.587  12.898  17.147  0.00  0.00    +0.000 C 
BRANCH  30  31
ATOM     31  C   UNL     1      -7.671  13.525  18.059  0.00  0.00    +0.000 C 
BRANCH  31  32
ATOM     32  N   UNL     1      -7.546  14.992  18.203  0.00  0.00    +0.000 NA
ATOM     33  C   UNL     1      -6.425  15.369  19.065  0.00  0.00    +0.000 C 
ATOM     34  C   UNL     1      -7.394  15.639  16.895  0.00  0.00    +0.000 C 
ENDBRANCH  31  32
ENDBRANCH  30  31
ENDBRANCH  29  30
ENDBRANCH   3  29
TORSDOF 7
ENDMDL
MODEL 2
REMARK VINA RESULT:      -6.9      4.822      9.909
REMARK  Name = 
REMARK  10 active torsions:
REMARK  status: ('A' for Active; 'I' for Inactive)
REMARK    1  A    between atoms: C_1  and  C_2
REMARK    2  A    between atoms: C_3  and  O_4
REMARK    3  A    between atoms: O_4  and  C_5
REMARK    4  A    between atoms: C_5  and  C_6
REMARK    5  A    between atoms: C_6  and  N_7
REMARK    6  A    between atoms: N_7  and  C_8
REMARK    7  A    between atoms: N_7  and  C_9
REMARK    8  A    between atoms: C_21  and  C_23
REMARK    9  A    between atoms: C_26  and  C_27
REMARK   10  A    between atoms: C_27  and  O_29
REMARK                            x       y       z     vdW  Elec       q    Type
REMARK                         _______ _______ _______ _____ _____    ______ ____
ROOT
ATOM      1  C   UNL     1       1.560   7.015  21.200  0.00  0.00    +0.000 C 
ATOM      2  C   UNL     1       1.740   7.765  19.903  0.00  0.00    +0.000 A 
ATOM      3  C   UNL     1       2.429   7.202  18.837  0.00  0.00    +0.000 A 
ATOM      4  C   UNL     1       2.586   7.948  17.659  0.00  0.00    +0.000 A 
ATOM      5  C   UNL     1       2.168   9.306  17.574  0.00  0.00    +0.000 A 
ATOM      6  C   UNL     1       1.545   9.927  18.659  0.00  0.00    +0.000 A 
ATOM      7  C   UNL     1       1.320  11.396  18.854  0.00  0.00    +0.000 A 
ATOM      8  C   UNL     1       0.795  11.717  20.050  0.00  0.00    +0.000 A 
ATOM      9  C   UNL     1       0.028  10.780  20.871  0.00  0.00    +0.000 A 
ATOM     10  O   UNL     1      -0.876  11.160  21.605  0.00  0.00    +0.000 OA
ATOM     11  O   UNL     1       0.460   9.500  20.827  0.00  0.00    +0.000 OA
ATOM     12  C   UNL     1       1.280   9.085  19.763  0.00  0.00    +0.000 A 
ATOM     13  C   UNL     1       1.081  12.942  20.825  0.00  0.00    +0.000 C 
ATOM     14  N   UNL     1       2.170  13.699  20.246  0.00  0.00    +0.000 N 
ATOM     15  C   UNL     1       2.751  14.557  21.188  0.00  0.00    +0.000 C 
ATOM     16  O   UNL     1       2.283  14.669  22.325  0.00  0.00    +0.000 OA
ATOM     17  C   UNL     1       2.071  13.890  18.792  0.00  0.00    +0.000 C 
ATOM     18  C   UNL     1       1.878  12.536  18.010  0.00  0.00    +0.000 C 
ENDROOT
BRANCH  15  19
ATOM     19  C   UNL     1       4.025  15.269  20.962  0.00  0.00    +0.000 A 
ATOM     20  C   UNL     1       5.213  14.547  21.199  0.00  0.00    +0.000 A 
ATOM     21  C   UNL     1       6.450  15.050  20.795  0.00  0.00    +0.000 A 
ATOM     22  C   UNL     1       6.502  16.289  20.153  0.00  0.00    +0.000 A 
ATOM     23  C   UNL     1       5.322  16.997  19.888  0.00  0.00    +0.000 A 
ATOM     24  C   UNL     1       4.083  16.489  20.288  0.00  0.00    +0.000 A 
BRANCH  22  25
ATOM     25  C   UNL     1       7.777  16.855  19.670  0.00  0.00    +0.000 C 
ATOM     26  O   UNL     1       8.857  16.321  19.863  0.00  0.00    +0.000 OA
BRANCH  25  27
ATOM     27  O   UNL     1       7.621  17.981  18.940  0.00  0.00    +0.000 OA
ATOM     28  H   UNL     1       7.023  18.626  19.322  0.00  0.00    +0.000 HD
ENDBRANCH  25  27
ENDBRANCH  22  25
ENDBRANCH  15  19
BRANCH   3  29
ATOM     29  O   UNL     1       2.839   5.903  19.009  0.00  0.00    +0.000 OA
BRANCH  29  30
ATOM     30  C   UNL     1       2.219   4.948  18.139  0.00  0.00    +0.000 C 
BRANCH  30  31
ATOM     31  C   UNL     1       1.465   3.886  18.979  0.00  0.00    +0.000 C 
BRANCH  31  32
ATOM     32  N   UNL     1       2.172   2.590  19.066  0.00  0.00    +0.000 NA
ATOM     33  C   UNL     1       2.872   2.257  17.825  0.00  0.00    +0.000 C 
ATOM     34  C   UNL     1       3.127   2.585  20.180  0.00  0.00    +0.000 C 
ENDBRANCH  31  32
ENDBRANCH  30  31
ENDBRANCH  29  30
ENDBRANCH   3  29
TORSDOF 7
ENDMDL
MODEL 3
REMARK VINA RESULT:      -6.8      5.572      9.801
REMARK  Name = 
REMARK  10 active torsions:
REMARK  status: ('A' for Active; 'I' for Inactive)
REMARK    1  A    between atoms: C_1  and  C_2
REMARK    2  A    between atoms: C_3  and  O_4
REMARK    3  A    between atoms: O_4  and  C_5
REMARK    4  A    between atoms: C_5  and  C_6
REMARK    5  A    between atoms: C_6  and  N_7
REMARK    6  A    between atoms: N_7  and  C_8
REMARK    7  A    between atoms: N_7  and  C_9
REMARK    8  A    between atoms: C_21  and  C_23
REMARK    9  A    between atoms: C_26  and  C_27
REMARK   10  A    between atoms: C_27  and  O_29
REMARK                            x       y       z     vdW  Elec       q    Type
REMARK                         _______ _______ _______ _____ _____    ______ ____
ROOT
ATOM      1  C   UNL     1       1.138   9.245  22.664  0.00  0.00    +0.000 C 
ATOM      2  C   UNL     1       1.135   9.489  21.176  0.00  0.00    +0.000 A 
ATOM      3  C   UNL     1       1.356   8.454  20.277  0.00  0.00    +0.000 A 
ATOM      4  C   UNL     1       1.362   8.735  18.903  0.00  0.00    +0.000 A 
ATOM      5  C   UNL     1       1.274  10.070  18.414  0.00  0.00    +0.000 A 
ATOM      6  C   UNL     1       1.133  11.142  19.297  0.00  0.00    +0.000 A 
ATOM      7  C   UNL     1       1.327  12.597  18.993  0.00  0.00    +0.000 A 
ATOM      8  C   UNL     1       1.236  13.400  20.067  0.00  0.00    +0.000 A 
ATOM      9  C   UNL     1       0.518  13.034  21.288  0.00  0.00    +0.000 A 
ATOM     10  O   UNL     1      -0.036  13.875  21.985  0.00  0.00    +0.000 OA
ATOM     11  O   UNL     1       0.604  11.729  21.629  0.00  0.00    +0.000 OA
ATOM     12  C   UNL     1       0.983  10.786  20.657  0.00  0.00    +0.000 A 
ATOM     13  C   UNL     1       2.005  14.642  20.293  0.00  0.00    +0.000 C 
ATOM     14  N   UNL     1       3.045  14.813  19.302  0.00  0.00    +0.000 N 
ATOM     15  C   UNL     1       4.046  15.680  19.760  0.00  0.00    +0.000 C 
ATOM     16  O   UNL     1       3.943  16.258  20.845  0.00  0.00    +0.000 OA
ATOM     17  C   UNL     1       2.606  14.595  17.916  0.00  0.00    +0.000 C 
ATOM     18  C   UNL     1       1.891  13.205  17.714  0.00  0.00    +0.000 C 
ENDROOT
BRANCH  15  19
ATOM     19  C   UNL     1       5.343  15.856  19.077  0.00  0.00    +0.000 A 
ATOM     20  C   UNL     1       6.115  16.978  19.446  0.00  0.00    +0.000 A 
ATOM     21  C   UNL     1       7.441  17.102  19.033  0.00  0.00    +0.000 A 
ATOM     22  C   UNL     1       8.003  16.099  18.238  0.00  0.00    +0.000 A 
ATOM     23  C   UNL     1       7.250  14.968  17.893  0.00  0.00    +0.000 A 
ATOM     24  C   UNL     1       5.922  14.842  18.313  0.00  0.00    +0.000 A 
BRANCH  22  25
ATOM     25  C   UNL     1       9.411  16.158  17.802  0.00  0.00    +0.000 C 
ATOM     26  O   UNL     1      10.168  17.063  18.117  0.00  0.00    +0.000 OA
BRANCH  25  27
ATOM     27  O   UNL     1       9.794  15.082  17.080  0.00  0.00    +0.000 OA
ATOM     28  H   UNL     1      10.186  14.375  17.595  0.00  0.00    +0.000 HD
ENDBRANCH  25  27
ENDBRANCH  22  25
ENDBRANCH  15  19
BRANCH   3  29
ATOM     29  O   UNL     1       1.474   7.200  20.827  0.00  0.00    +0.000 OA
BRANCH  29  30
ATOM     30  C   UNL     1       2.130   6.231  20.000  0.00  0.00    +0.000 C 
BRANCH  30  31
ATOM     31  C   UNL     1       2.349   4.923  20.800  0.00  0.00    +0.000 C 
BRANCH  31  32
ATOM     32  N   UNL     1       1.255   3.940  20.637  0.00  0.00    +0.000 NA
ATOM     33  C   UNL     1       1.121   3.487  19.252  0.00  0.00    +0.000 C 
ATOM     34  C   UNL     1       1.455   2.780  21.512  0.00  0.00    +0.000 C 
ENDBRANCH  31  32
ENDBRANCH  30  31
ENDBRANCH  29  30
ENDBRANCH   3  29
TORSDOF 7
ENDMDL
MODEL 4
REMARK VINA RESULT:      -6.8      1.007      1.524
REMARK  Name = 
REMARK  10 active torsions:
REMARK  status: ('A' for Active; 'I' for Inactive)
REMARK    1  A    between atoms: C_1  and  C_2
REMARK    2  A    between atoms: C_3  and  O_4
REMARK    3  A    between atoms: O_4  and  C_5
REMARK    4  A    between atoms: C_5  and  C_6
REMARK    5  A    between atoms: C_6  and  N_7
REMARK    6  A    between atoms: N_7  and  C_8
REMARK    7  A    between atoms: N_7  and  C_9
REMARK    8  A    between atoms: C_21  and  C_23
REMARK    9  A    between atoms: C_26  and  C_27
REMARK   10  A    between atoms: C_27  and  O_29
REMARK                            x       y       z     vdW  Elec       q    Type
REMARK                         _______ _______ _______ _____ _____    ______ ____
ROOT
ATOM      1  C   UNL     1      -5.472  12.113  20.678  0.00  0.00    +0.000 C 
ATOM      2  C   UNL     1      -4.694  11.919  19.400  0.00  0.00    +0.000 A 
ATOM      3  C   UNL     1      -5.337  11.621  18.206  0.00  0.00    +0.000 A 
ATOM      4  C   UNL     1      -4.568  11.431  17.048  0.00  0.00    +0.000 A 
ATOM      5  C   UNL     1      -3.145  11.411  17.093  0.00  0.00    +0.000 A 
ATOM      6  C   UNL     1      -2.468  11.627  18.295  0.00  0.00    +0.000 A 
ATOM      7  C   UNL     1      -1.024  11.347  18.584  0.00  0.00    +0.000 A 
ATOM      8  C   UNL     1      -0.672  11.546  19.867  0.00  0.00    +0.000 A 
ATOM      9  C   UNL     1      -1.407  12.425  20.777  0.00  0.00    +0.000 A 
ATOM     10  O   UNL     1      -0.842  13.034  21.678  0.00  0.00    +0.000 OA
ATOM     11  O   UNL     1      -2.748  12.427  20.606  0.00  0.00    +0.000 OA
ATOM     12  C   UNL     1      -3.290  11.960  19.396  0.00  0.00    +0.000 A 
ATOM     13  C   UNL     1       0.333  10.770  20.624  0.00  0.00    +0.000 C 
ATOM     14  N   UNL     1       0.777   9.607  19.885  0.00  0.00    +0.000 N 
ATOM     15  C   UNL     1       1.330   8.644  20.739  0.00  0.00    +0.000 C 
ATOM     16  O   UNL     1       1.471   8.864  21.945  0.00  0.00    +0.000 OA
ATOM     17  C   UNL     1       1.123   9.875  18.482  0.00  0.00    +0.000 C 
ATOM     18  C   UNL     1      -0.032  10.605  17.697  0.00  0.00    +0.000 C 
ENDROOT
BRANCH  15  19
ATOM     19  C   UNL     1       1.643   7.266  20.312  0.00  0.00    +0.000 A 
ATOM     20  C   UNL     1       2.628   7.112  19.314  0.00  0.00    +0.000 A 
ATOM     21  C   UNL     1       3.155   5.856  19.015  0.00  0.00    +0.000 A 
ATOM     22  C   UNL     1       2.691   4.740  19.715  0.00  0.00    +0.000 A 
ATOM     23  C   UNL     1       1.734   4.891  20.728  0.00  0.00    +0.000 A 
ATOM     24  C   UNL     1       1.211   6.151  21.031  0.00  0.00    +0.000 A 
BRANCH  22  25
ATOM     25  C   UNL     1       3.237   3.392  19.467  0.00  0.00    +0.000 C 
ATOM     26  O   UNL     1       4.093   3.165  18.627  0.00  0.00    +0.000 OA
BRANCH  25  27
ATOM     27  O   UNL     1       2.748   2.453  20.306  0.00  0.00    +0.000 OA
ATOM     28  H   UNL     1       2.050   1.909  19.935  0.00  0.00    +0.000 HD
ENDBRANCH  25  27
ENDBRANCH  22  25
ENDBRANCH  15  19
BRANCH   3  29
ATOM     29  O   UNL     1      -6.710  11.616  18.251  0.00  0.00    +0.000 OA
BRANCH  29  30
ATOM     30  C   UNL     1      -7.327  12.906  18.179  0.00  0.00    +0.000 C 
BRANCH  30  31
ATOM     31  C   UNL     1      -7.183  13.477  16.746  0.00  0.00    +0.000 C 
BRANCH  31  32
ATOM     32  N   UNL     1      -6.914  14.931  16.713  0.00  0.00    +0.000 NA
ATOM     33  C   UNL     1      -7.915  15.661  15.934  0.00  0.00    +0.000 C 
ATOM     34  C   UNL     1      -6.852  15.486  18.069  0.00  0.00    +0.000 C 
ENDBRANCH  31  32
ENDBRANCH  30  31
ENDBRANCH  29  30
ENDBRANCH   3  29
TORSDOF 7
ENDMDL
MODEL 5
REMARK VINA RESULT:      -6.8      4.928     10.085
REMARK  Name = 
REMARK  10 active torsions:
REMARK  status: ('A' for Active; 'I' for Inactive)
REMARK    1  A    between atoms: C_1  and  C_2
REMARK    2  A    between atoms: C_3  and  O_4
REMARK    3  A    between atoms: O_4  and  C_5
REMARK    4  A    between atoms: C_5  and  C_6
REMARK    5  A    between atoms: C_6  and  N_7
REMARK    6  A    between atoms: N_7  and  C_8
REMARK    7  A    between atoms: N_7  and  C_9
REMARK    8  A    between atoms: C_21  and  C_23
REMARK    9  A    between atoms: C_26  and  C_27
REMARK   10  A    between atoms: C_27  and  O_29
REMARK                            x       y       z     vdW  Elec       q    Type
REMARK                         _______ _______ _______ _____ _____    ______ ____
ROOT
ATOM      1  C   UNL     1       1.359   7.362  21.414  0.00  0.00    +0.000 C 
ATOM      2  C   UNL     1       1.523   8.105  20.111  0.00  0.00    +0.000 A 
ATOM      3  C   UNL     1       2.177   7.526  19.032  0.00  0.00    +0.000 A 
ATOM      4  C   UNL     1       2.320   8.265  17.847  0.00  0.00    +0.000 A 
ATOM      5  C   UNL     1       1.926   9.631  17.768  0.00  0.00    +0.000 A 
ATOM      6  C   UNL     1       1.339  10.267  18.865  0.00  0.00    +0.000 A 
ATOM      7  C   UNL     1       1.146  11.740  19.060  0.00  0.00    +0.000 A 
ATOM      8  C   UNL     1       0.655  12.074  20.267  0.00  0.00    +0.000 A 
ATOM      9  C   UNL     1      -0.111  11.154  21.108  0.00  0.00    +0.000 A 
ATOM     10  O   UNL     1      -0.990  11.552  21.862  0.00  0.00    +0.000 OA
ATOM     11  O   UNL     1       0.296   9.866  21.058  0.00  0.00    +0.000 OA
ATOM     12  C   UNL     1       1.084   9.432  19.977  0.00  0.00    +0.000 A 
ATOM     13  C   UNL     1       0.982  13.296  21.031  0.00  0.00    +0.000 C 
ATOM     14  N   UNL     1       2.071  14.030  20.424  0.00  0.00    +0.000 N 
ATOM     15  C   UNL     1       2.689  14.880  21.350  0.00  0.00    +0.000 C 
ATOM     16  O   UNL     1       2.250  15.004  22.497  0.00  0.00    +0.000 OA
ATOM     17  C   UNL     1       1.941  14.219  18.972  0.00  0.00    +0.000 C 
ATOM     18  C   UNL     1       1.705  12.867  18.200  0.00  0.00    +0.000 C 
ENDROOT
BRANCH  15  19
ATOM     19  C   UNL     1       3.970  15.568  21.093  0.00  0.00    +0.000 A 
ATOM     20  C   UNL     1       5.143  14.787  21.168  0.00  0.00    +0.000 A 
ATOM     21  C   UNL     1       6.365  15.285  20.717  0.00  0.00    +0.000 A 
ATOM     22  C   UNL     1       6.419  16.578  20.190  0.00  0.00    +0.000 A 
ATOM     23  C   UNL     1       5.252  17.347  20.086  0.00  0.00    +0.000 A 
ATOM     24  C   UNL     1       4.027  16.844  20.533  0.00  0.00    +0.000 A 
BRANCH  22  25
ATOM     25  C   UNL     1       7.677  17.144  19.664  0.00  0.00    +0.000 C 
ATOM     26  O   UNL     1       8.768  16.916  20.160  0.00  0.00    +0.000 OA
BRANCH  25  27
ATOM     27  O   UNL     1       7.505  17.881  18.545  0.00  0.00    +0.000 OA
ATOM     28  H   UNL     1       8.218  18.494  18.356  0.00  0.00    +0.000 HD
ENDBRANCH  25  27
ENDBRANCH  22  25
ENDBRANCH  15  19
BRANCH   3  29
ATOM     29  O   UNL     1       2.566   6.220  19.198  0.00  0.00    +0.000 OA
BRANCH  29  30
ATOM     30  C   UNL     1       3.871   5.903  18.699  0.00  0.00    +0.000 C 
BRANCH  30  31
ATOM     31  C   UNL     1       4.351   4.560  19.303  0.00  0.00    +0.000 C 
BRANCH  31  32
ATOM     32  N   UNL     1       4.456   3.469  18.308  0.00  0.00    +0.000 NA
ATOM     33  C   UNL     1       3.285   2.593  18.322  0.00  0.00    +0.000 C 
ATOM     34  C   UNL     1       4.647   4.006  16.957  0.00  0.00    +0.000 C 
ENDBRANCH  31  32
ENDBRANCH  30  31
ENDBRANCH  29  30
ENDBRANCH   3  29
TORSDOF 7
ENDMDL
MODEL 6
REMARK VINA RESULT:      -6.7      5.001     10.127
REMARK  Name = 
REMARK  10 active torsions:
REMARK  status: ('A' for Active; 'I' for Inactive)
REMARK    1  A    between atoms: C_1  and  C_2
REMARK    2  A    between atoms: C_3  and  O_4
REMARK    3  A    between atoms: O_4  and  C_5
REMARK    4  A    between atoms: C_5  and  C_6
REMARK    5  A    between atoms: C_6  and  N_7
REMARK    6  A    between atoms: N_7  and  C_8
REMARK    7  A    between atoms: N_7  and  C_9
REMARK    8  A    between atoms: C_21  and  C_23
REMARK    9  A    between atoms: C_26  and  C_27
REMARK   10  A    between atoms: C_27  and  O_29
REMARK                            x       y       z     vdW  Elec       q    Type
REMARK                         _______ _______ _______ _____ _____    ______ ____
ROOT
ATOM      1  C   UNL     1       1.651   7.103  21.212  0.00  0.00    +0.000 C 
ATOM      2  C   UNL     1       1.759   7.881  19.924  0.00  0.00    +0.000 A 
ATOM      3  C   UNL     1       2.397   7.345  18.813  0.00  0.00    +0.000 A 
ATOM      4  C   UNL     1       2.487   8.115  17.643  0.00  0.00    +0.000 A 
ATOM      5  C   UNL     1       2.055   9.472  17.608  0.00  0.00    +0.000 A 
ATOM      6  C   UNL     1       1.483  10.065  18.735  0.00  0.00    +0.000 A 
ATOM      7  C   UNL     1       1.257  11.528  18.972  0.00  0.00    +0.000 A 
ATOM      8  C   UNL     1       0.791  11.820  20.199  0.00  0.00    +0.000 A 
ATOM      9  C   UNL     1       0.074  10.860  21.038  0.00  0.00    +0.000 A 
ATOM     10  O   UNL     1      -0.794  11.217  21.826  0.00  0.00    +0.000 OA
ATOM     11  O   UNL     1       0.513   9.585  20.946  0.00  0.00    +0.000 OA
ATOM     12  C   UNL     1       1.281   9.198  19.834  0.00  0.00    +0.000 A 
ATOM     13  C   UNL     1       1.108  13.032  20.984  0.00  0.00    +0.000 C 
ATOM     14  N   UNL     1       2.160  13.809  20.365  0.00  0.00    +0.000 N 
ATOM     15  C   UNL     1       2.781  14.653  21.294  0.00  0.00    +0.000 C 
ATOM     16  O   UNL     1       2.371  14.739  22.455  0.00  0.00    +0.000 OA
ATOM     17  C   UNL     1       1.984  14.029  18.922  0.00  0.00    +0.000 C 
ATOM     18  C   UNL     1       1.762  12.689  18.124  0.00  0.00    +0.000 C 
ENDROOT
BRANCH  15  19
ATOM     19  C   UNL     1       4.036  15.381  21.018  0.00  0.00    +0.000 A 
ATOM     20  C   UNL     1       5.243  14.697  21.275  0.00  0.00    +0.000 A 
ATOM     21  C   UNL     1       6.463  15.207  20.832  0.00  0.00    +0.000 A 
ATOM     22  C   UNL     1       6.481  16.414  20.129  0.00  0.00    +0.000 A 
ATOM     23  C   UNL     1       5.282  17.082  19.845  0.00  0.00    +0.000 A 
ATOM     24  C   UNL     1       4.059  16.567  20.285  0.00  0.00    +0.000 A 
BRANCH  22  25
ATOM     25  C   UNL     1       7.737  16.983  19.604  0.00  0.00    +0.000 C 
ATOM     26  O   UNL     1       8.798  16.379  19.619  0.00  0.00    +0.000 OA
BRANCH  25  27
ATOM     27  O   UNL     1       7.581  18.204  19.048  0.00  0.00    +0.000 OA
ATOM     28  H   UNL     1       6.903  18.252  18.373  0.00  0.00    +0.000 HD
ENDBRANCH  25  27
ENDBRANCH  22  25
ENDBRANCH  15  19
BRANCH   3  29
ATOM     29  O   UNL     1       2.824   6.046  18.937  0.00  0.00    +0.000 OA
BRANCH  29  30
ATOM     30  C   UNL     1       3.606   5.554  17.843  0.00  0.00    +0.000 C 
BRANCH  30  31
ATOM     31  C   UNL     1       5.034   5.206  18.333  0.00  0.00    +0.000 C 
BRANCH  31  32
ATOM     32  N   UNL     1       6.086   5.469  17.327  0.00  0.00    +0.000 NA
ATOM     33  C   UNL     1       6.414   6.892  17.229  0.00  0.00    +0.000 C 
ATOM     34  C   UNL     1       7.303   4.707  17.626  0.00  0.00    +0.000 C 
ENDBRANCH  31  32
ENDBRANCH  30  31
ENDBRANCH  29  30
ENDBRANCH   3  29
TORSDOF 7
ENDMDL
MODEL 7
REMARK VINA RESULT:      -6.7      3.755      4.869
REMARK  Name = 
REMARK  10 active torsions:
REMARK  status: ('A' for Active; 'I' for Inactive)
REMARK    1  A    between atoms: C_1  and  C_2
REMARK    2  A    between atoms: C_3  and  O_4
REMARK    3  A    between atoms: O_4  and  C_5
REMARK    4  A    between atoms: C_5  and  C_6
REMARK    5  A    between atoms: C_6  and  N_7
REMARK    6  A    between atoms: N_7  and  C_8
REMARK    7  A    between atoms: N_7  and  C_9
REMARK    8  A    between atoms: C_21  and  C_23
REMARK    9  A    between atoms: C_26  and  C_27
REMARK   10  A    between atoms: C_27  and  O_29
REMARK                            x       y       z     vdW  Elec       q    Type
REMARK                         _______ _______ _______ _____ _____    ______ ____
ROOT
ATOM      1  C   UNL     1       1.897  14.961  22.044  0.00  0.00    +0.000 C 
ATOM      2  C   UNL     1       0.669  14.167  21.674  0.00  0.00    +0.000 A 
ATOM      3  C   UNL     1      -0.421  14.088  22.531  0.00  0.00    +0.000 A 
ATOM      4  C   UNL     1      -1.532  13.322  22.149  0.00  0.00    +0.000 A 
ATOM      5  C   UNL     1      -1.520  12.525  20.969  0.00  0.00    +0.000 A 
ATOM      6  C   UNL     1      -0.406  12.520  20.126  0.00  0.00    +0.000 A 
ATOM      7  C   UNL     1      -0.101  11.540  19.035  0.00  0.00    +0.000 A 
ATOM      8  C   UNL     1       1.102  11.713  18.461  0.00  0.00    +0.000 A 
ATOM      9  C   UNL     1       1.827  12.984  18.477  0.00  0.00    +0.000 A 
ATOM     10  O   UNL     1       2.566  13.315  17.558  0.00  0.00    +0.000 OA
ATOM     11  O   UNL     1       1.693  13.701  19.616  0.00  0.00    +0.000 OA
ATOM     12  C   UNL     1       0.621  13.425  20.483  0.00  0.00    +0.000 A 
ATOM     13  C   UNL     1       1.979  10.645  17.937  0.00  0.00    +0.000 C 
ATOM     14  N   UNL     1       1.489   9.331  18.292  0.00  0.00    +0.000 N 
ATOM     15  C   UNL     1       2.511   8.375  18.232  0.00  0.00    +0.000 C 
ATOM     16  O   UNL     1       3.640   8.669  17.832  0.00  0.00    +0.000 OA
ATOM     17  C   UNL     1       0.052   9.133  18.050  0.00  0.00    +0.000 C 
ATOM     18  C   UNL     1      -0.838  10.242  18.727  0.00  0.00    +0.000 C 
ENDROOT
BRANCH  15  19
ATOM     19  C   UNL     1       2.374   7.006  18.768  0.00  0.00    +0.000 A 
ATOM     20  C   UNL     1       2.038   6.883  20.133  0.00  0.00    +0.000 A 
ATOM     21  C   UNL     1       1.661   5.651  20.670  0.00  0.00    +0.000 A 
ATOM     22  C   UNL     1       1.624   4.530  19.838  0.00  0.00    +0.000 A 
ATOM     23  C   UNL     1       1.929   4.652  18.475  0.00  0.00    +0.000 A 
ATOM     24  C   UNL     1       2.300   5.888  17.938  0.00  0.00    +0.000 A 
BRANCH  22  25
ATOM     25  C   UNL     1       1.198   3.210  20.341  0.00  0.00    +0.000 C 
ATOM     26  O   UNL     1       1.827   2.582  21.178  0.00  0.00    +0.000 OA
BRANCH  25  27
ATOM     27  O   UNL     1       0.014   2.801  19.836  0.00  0.00    +0.000 OA
ATOM     28  H   UNL     1      -0.676   3.467  19.843  0.00  0.00    +0.000 HD
ENDBRANCH  25  27
ENDBRANCH  22  25
ENDBRANCH  15  19
BRANCH   3  29
ATOM     29  O   UNL     1      -0.342  14.850  23.671  0.00  0.00    +0.000 OA
BRANCH  29  30
ATOM     30  C   UNL     1      -1.495  14.801  24.519  0.00  0.00    +0.000 C 
BRANCH  30  31
ATOM     31  C   UNL     1      -2.086  16.223  24.683  0.00  0.00    +0.000 C 
BRANCH  31  32
ATOM     32  N   UNL     1      -3.514  16.229  25.068  0.00  0.00    +0.000 NA
ATOM     33  C   UNL     1      -4.081  17.578  25.071  0.00  0.00    +0.000 C 
ATOM     34  C   UNL     1      -4.304  15.371  24.179  0.00  0.00    +0.000 C 
ENDBRANCH  31  32
ENDBRANCH  30  31
ENDBRANCH  29  30
ENDBRANCH   3  29
TORSDOF 7
ENDMDL
MODEL 8
REMARK VINA RESULT:      -6.6      5.424      9.960
REMARK  Name = 
REMARK  10 active torsions:
REMARK  status: ('A' for Active; 'I' for Inactive)
REMARK    1  A    between atoms: C_1  and  C_2
REMARK    2  A    between atoms: C_3  and  O_4
REMARK    3  A    between atoms: O_4  and  C_5
REMARK    4  A    between atoms: C_5  and  C_6
REMARK    5  A    between atoms: C_6  and  N_7
REMARK    6  A    between atoms: N_7  and  C_8
REMARK    7  A    between atoms: N_7  and  C_9
REMARK    8  A    between atoms: C_21  and  C_23
REMARK    9  A    between atoms: C_26  and  C_27
REMARK   10  A    between atoms: C_27  and  O_29
REMARK                            x       y       z     vdW  Elec       q    Type
REMARK                         _______ _______ _______ _____ _____    ______ ____
ROOT
ATOM      1  C   UNL     1       1.043   8.502  21.990  0.00  0.00    +0.000 C 
ATOM      2  C   UNL     1       1.270   8.968  20.574  0.00  0.00    +0.000 A 
ATOM      3  C   UNL     1       1.747   8.101  19.600  0.00  0.00    +0.000 A 
ATOM      4  C   UNL     1       1.960   8.587  18.301  0.00  0.00    +0.000 A 
ATOM      5  C   UNL     1       1.819   9.969  17.989  0.00  0.00    +0.000 A 
ATOM      6  C   UNL     1       1.419  10.882  18.969  0.00  0.00    +0.000 A 
ATOM      7  C   UNL     1       1.511  12.376  18.905  0.00  0.00    +0.000 A 
ATOM      8  C   UNL     1       1.155  12.998  20.043  0.00  0.00    +0.000 A 
ATOM      9  C   UNL     1       0.280  12.396  21.050  0.00  0.00    +0.000 A 
ATOM     10  O   UNL     1      -0.469  13.077  21.739  0.00  0.00    +0.000 OA
ATOM     11  O   UNL     1       0.441  11.065  21.220  0.00  0.00    +0.000 OA
ATOM     12  C   UNL     1       1.076  10.312  20.216  0.00  0.00    +0.000 A 
ATOM     13  C   UNL     1       1.742  14.246  20.573  0.00  0.00    +0.000 C 
ATOM     14  N   UNL     1       2.913  14.646  19.823  0.00  0.00    +0.000 N 
ATOM     15  C   UNL     1       3.725  15.508  20.571  0.00  0.00    +0.000 C 
ATOM     16  O   UNL     1       3.379  15.906  21.686  0.00  0.00    +0.000 OA
ATOM     17  C   UNL     1       2.742  14.607  18.363  0.00  0.00    +0.000 C 
ATOM     18  C   UNL     1       2.221  13.213  17.847  0.00  0.00    +0.000 C 
ENDROOT
BRANCH  15  19
ATOM     19  C   UNL     1       5.095  15.885  20.169  0.00  0.00    +0.000 A 
ATOM     20  C   UNL     1       6.104  14.915  20.344  0.00  0.00    +0.000 A 
ATOM     21  C   UNL     1       7.371  15.090  19.785  0.00  0.00    +0.000 A 
ATOM     22  C   UNL     1       7.634  16.246  19.048  0.00  0.00    +0.000 A 
ATOM     23  C   UNL     1       6.627  17.199  18.846  0.00  0.00    +0.000 A 
ATOM     24  C   UNL     1       5.357  17.020  19.402  0.00  0.00    +0.000 A 
BRANCH  22  25
ATOM     25  C   UNL     1       8.943  16.469  18.403  0.00  0.00    +0.000 C 
ATOM     26  O   UNL     1       9.818  17.162  18.895  0.00  0.00    +0.000 OA
BRANCH  25  27
ATOM     27  O   UNL     1       9.098  15.775  17.254  0.00  0.00    +0.000 OA
ATOM     28  H   UNL     1       9.938  15.322  17.170  0.00  0.00    +0.000 HD
ENDBRANCH  25  27
ENDBRANCH  22  25
ENDBRANCH  15  19
BRANCH   3  29
ATOM     29  O   UNL     1       1.898   6.792  19.987  0.00  0.00    +0.000 OA
BRANCH  29  30
ATOM     30  C   UNL     1       3.025   6.113  19.419  0.00  0.00    +0.000 C 
BRANCH  30  31
ATOM     31  C   UNL     1       2.548   4.848  18.663  0.00  0.00    +0.000 C 
BRANCH  31  32
ATOM     32  N   UNL     1       3.182   3.600  19.142  0.00  0.00    +0.000 NA
ATOM     33  C   UNL     1       4.638   3.714  19.223  0.00  0.00    +0.000 C 
ATOM     34  C   UNL     1       2.650   3.208  20.452  0.00  0.00    +0.000 C 
ENDBRANCH  31  32
ENDBRANCH  30  31
ENDBRANCH  29  30
ENDBRANCH   3  29
TORSDOF 7
ENDMDL
MODEL 9
REMARK VINA RESULT:      -6.5      6.762      8.517
REMARK  Name = 
REMARK  10 active torsions:
REMARK  status: ('A' for Active; 'I' for Inactive)
REMARK    1  A    between atoms: C_1  and  C_2
REMARK    2  A    between atoms: C_3  and  O_4
REMARK    3  A    between atoms: O_4  and  C_5
REMARK    4  A    between atoms: C_5  and  C_6
REMARK    5  A    between atoms: C_6  and  N_7
REMARK    6  A    between atoms: N_7  and  C_8
REMARK    7  A    between atoms: N_7  and  C_9
REMARK    8  A    between atoms: C_21  and  C_23
REMARK    9  A    between atoms: C_26  and  C_27
REMARK   10  A    between atoms: C_27  and  O_29
REMARK                            x       y       z     vdW  Elec       q    Type
REMARK                         _______ _______ _______ _____ _____    ______ ____
ROOT
ATOM      1  C   UNL     1       0.827  11.347  21.637  0.00  0.00    +0.000 C 
ATOM      2  C   UNL     1       1.208  12.048  20.357  0.00  0.00    +0.000 A 
ATOM      3  C   UNL     1       0.826  11.545  19.121  0.00  0.00    +0.000 A 
ATOM      4  C   UNL     1       1.221  12.224  17.958  0.00  0.00    +0.000 A 
ATOM      5  C   UNL     1       2.106  13.339  18.009  0.00  0.00    +0.000 A 
ATOM      6  C   UNL     1       2.574  13.819  19.234  0.00  0.00    +0.000 A 
ATOM      7  C   UNL     1       3.718  14.760  19.460  0.00  0.00    +0.000 A 
ATOM      8  C   UNL     1       4.018  14.961  20.756  0.00  0.00    +0.000 A 
ATOM      9  C   UNL     1       3.063  14.751  21.845  0.00  0.00    +0.000 A 
ATOM     10  O   UNL     1       3.102  15.419  22.871  0.00  0.00    +0.000 OA
ATOM     11  O   UNL     1       2.218  13.711  21.668  0.00  0.00    +0.000 OA
ATOM     12  C   UNL     1       2.024  13.191  20.376  0.00  0.00    +0.000 A 
ATOM     13  C   UNL     1       5.367  15.190  21.312  0.00  0.00    +0.000 C 
ATOM     14  N   UNL     1       6.397  14.976  20.318  0.00  0.00    +0.000 N 
ATOM     15  C   UNL     1       7.637  14.722  20.918  0.00  0.00    +0.000 C 
ATOM     16  O   UNL     1       7.779  14.779  22.143  0.00  0.00    +0.000 OA
ATOM     17  C   UNL     1       6.137  15.624  19.024  0.00  0.00    +0.000 C 
ATOM     18  C   UNL     1       4.727  15.252  18.429  0.00  0.00    +0.000 C 
ENDROOT
BRANCH  15  19
ATOM     19  C   UNL     1       8.814  14.230  20.174  0.00  0.00    +0.000 A 
ATOM     20  C   UNL     1       8.877  12.844  19.918  0.00  0.00    +0.000 A 
ATOM     21  C   UNL     1       9.818  12.321  19.032  0.00  0.00    +0.000 A 
ATOM     22  C   UNL     1      10.710  13.189  18.397  0.00  0.00    +0.000 A 
ATOM     23  C   UNL     1      10.632  14.570  18.625  0.00  0.00    +0.000 A 
ATOM     24  C   UNL     1       9.685  15.093  19.509  0.00  0.00    +0.000 A 
BRANCH  22  25
ATOM     25  C   UNL     1      11.703  12.698  17.422  0.00  0.00    +0.000 C 
ATOM     26  O   UNL     1      12.102  13.369  16.484  0.00  0.00    +0.000 OA
BRANCH  25  27
ATOM     27  O   UNL     1      12.172  11.465  17.711  0.00  0.00    +0.000 OA
ATOM     28  H   UNL     1      12.653  11.403  18.538  0.00  0.00    +0.000 HD
ENDBRANCH  25  27
ENDBRANCH  22  25
ENDBRANCH  15  19
BRANCH   3  29
ATOM     29  O   UNL     1       0.007  10.443  19.151  0.00  0.00    +0.000 OA
BRANCH  29  30
ATOM     30  C   UNL     1      -0.831  10.274  18.001  0.00  0.00    +0.000 C 
BRANCH  30  31
ATOM     31  C   UNL     1      -2.251  10.811  18.305  0.00  0.00    +0.000 C 
BRANCH  31  32
ATOM     32  N   UNL     1      -3.234  10.522  17.237  0.00  0.00    +0.000 NA
ATOM     33  C   UNL     1      -4.375  11.437  17.273  0.00  0.00    +0.000 C 
ATOM     34  C   UNL     1      -2.605  10.579  15.914  0.00  0.00    +0.000 C 
ENDBRANCH  31  32
ENDBRANCH  30  31
ENDBRANCH  29  30
ENDBRANCH   3  29
TORSDOF 7
ENDMDL
