MODEL 1
REMARK VINA RESULT:      -7.6      0.000      0.000
REMARK  Name = 
REMARK  9 active torsions:
REMARK  status: ('A' for Active; 'I' for Inactive)
REMARK    1  A    between atoms: C_1  and  C_2
REMARK    2  A    between atoms: C_2  and  C_3
REMARK    3  A    between atoms: C_3  and  C_4
REMARK    4  A    between atoms: C_4  and  N_5
REMARK    5  A    between atoms: C_6  and  C_7
REMARK    6  A    between atoms: N_11  and  C_12
REMARK    7  A    between atoms: N_11  and  C_14
REMARK    8  A    between atoms: C_12  and  C_13
REMARK    9  A    between atoms: C_14  and  C_15
REMARK                            x       y       z     vdW  Elec       q    Type
REMARK                         _______ _______ _______ _____ _____    ______ ____
ROOT
ATOM      1  N   UNL     1       3.280   5.343  17.563  0.00  0.00    +0.000 N 
ATOM      2  C   UNL     1       3.457   6.671  17.942  0.00  0.00    +0.000 A 
ATOM      3  N   UNL     1       4.615   7.113  17.475  0.00  0.00    +0.000 NA
ATOM      4  C   UNL     1       5.219   6.054  16.848  0.00  0.00    +0.000 A 
ATOM      5  C   UNL     1       6.453   5.996  16.181  0.00  0.00    +0.000 A 
ATOM      6  C   UNL     1       6.872   4.776  15.634  0.00  0.00    +0.000 A 
ATOM      7  C   UNL     1       6.076   3.636  15.749  0.00  0.00    +0.000 A 
ATOM      8  C   UNL     1       4.833   3.683  16.389  0.00  0.00    +0.000 A 
ATOM      9  C   UNL     1       4.428   4.916  16.923  0.00  0.00    +0.000 A 
ENDROOT
BRANCH   2  10
ATOM     10  C   UNL     1       2.470   7.525  18.617  0.00  0.00    +0.000 A 
ATOM     11  C   UNL     1       1.819   8.594  18.008  0.00  0.00    +0.000 A 
ATOM     12  C   UNL     1       1.084   9.500  18.778  0.00  0.00    +0.000 A 
ATOM     13  C   UNL     1       0.918   9.293  20.144  0.00  0.00    +0.000 A 
ATOM     14  N   UNL     1       0.251  10.199  20.950  0.00  0.00    +0.000 N 
ATOM     15  N   UNL     1       1.426   8.178  20.715  0.00  0.00    +0.000 NA
ATOM     16  C   UNL     1       2.190   7.341  19.963  0.00  0.00    +0.000 A 
BRANCH  14  17
ATOM     17  C   UNL     1       0.104  11.614  20.624  0.00  0.00    +0.000 C 
ATOM     18  C   UNL     1      -1.192  11.894  19.870  0.00  0.00    +0.000 C 
ENDBRANCH  14  17
BRANCH  14  19
ATOM     19  C   UNL     1      -0.575   9.630  22.015  0.00  0.00    +0.000 C 
ATOM     20  C   UNL     1      -0.829  10.628  23.132  0.00  0.00    +0.000 C 
ENDBRANCH  14  19
ENDBRANCH   2  10
BRANCH   1  21
ATOM     21  C   UNL     1       2.080   4.534  17.708  0.00  0.00    +0.000 C 
BRANCH  21  22
ATOM     22  C   UNL     1       2.140   3.543  18.872  0.00  0.00    +0.000 C 
BRANCH  22  24
ATOM     23  C   UNL     1       1.397   3.150  21.236  0.00  0.00    +0.000 C 
ATOM     24  C   UNL     1       1.076   3.848  19.924  0.00  0.00    +0.000 C 
ENDBRANCH  22  24
ENDBRANCH  21  22
ENDBRANCH   1  21
TORSDOF 6
ENDMDL
MODEL 2
REMARK VINA RESULT:      -7.2      0.723      1.101
REMARK  Name = 
REMARK  9 active torsions:
REMARK  status: ('A' for Active; 'I' for Inactive)
REMARK    1  A    between atoms: C_1  and  C_2
REMARK    2  A    between atoms: C_2  and  C_3
REMARK    3  A    between atoms: C_3  and  C_4
REMARK    4  A    between atoms: C_4  and  N_5
REMARK    5  A    between atoms: C_6  and  C_7
REMARK    6  A    between atoms: N_11  and  C_12
REMARK    7  A    between atoms: N_11  and  C_14
REMARK    8  A    between atoms: C_12  and  C_13
REMARK    9  A    between atoms: C_14  and  C_15
REMARK                            x       y       z     vdW  Elec       q    Type
REMARK                         _______ _______ _______ _____ _____    ______ ____
ROOT
ATOM      1  N   UNL     1       3.384   5.380  17.458  0.00  0.00    +0.000 N 
ATOM      2  C   UNL     1       3.537   6.711  17.835  0.00  0.00    +0.000 A 
ATOM      3  N   UNL     1       4.701   7.165  17.396  0.00  0.00    +0.000 NA
ATOM      4  C   UNL     1       5.333   6.110  16.789  0.00  0.00    +0.000 A 
ATOM      5  C   UNL     1       6.584   6.064  16.154  0.00  0.00    +0.000 A 
ATOM      6  C   UNL     1       7.029   4.846  15.623  0.00  0.00    +0.000 A 
ATOM      7  C   UNL     1       6.244   3.698  15.722  0.00  0.00    +0.000 A 
ATOM      8  C   UNL     1       4.984   3.734  16.330  0.00  0.00    +0.000 A 
ATOM      9  C   UNL     1       4.552   4.963  16.849  0.00  0.00    +0.000 A 
ENDROOT
BRANCH   2  10
ATOM     10  C   UNL     1       2.523   7.557  18.482  0.00  0.00    +0.000 A 
ATOM     11  C   UNL     1       1.891   8.629  17.859  0.00  0.00    +0.000 A 
ATOM     12  C   UNL     1       1.126   9.527  18.609  0.00  0.00    +0.000 A 
ATOM     13  C   UNL     1       0.912   9.308  19.967  0.00  0.00    +0.000 A 
ATOM     14  N   UNL     1       0.214  10.205  20.756  0.00  0.00    +0.000 N 
ATOM     15  N   UNL     1       1.403   8.190  20.547  0.00  0.00    +0.000 NA
ATOM     16  C   UNL     1       2.196   7.361  19.816  0.00  0.00    +0.000 A 
BRANCH  14  17
ATOM     17  C   UNL     1       0.074  11.622  20.436  0.00  0.00    +0.000 C 
ATOM     18  C   UNL     1       1.338  12.410  20.765  0.00  0.00    +0.000 C 
ENDBRANCH  14  17
BRANCH  14  19
ATOM     19  C   UNL     1      -0.648   9.625  21.786  0.00  0.00    +0.000 C 
ATOM     20  C   UNL     1      -0.366  10.211  23.160  0.00  0.00    +0.000 C 
ENDBRANCH  14  19
ENDBRANCH   2  10
BRANCH   1  21
ATOM     21  C   UNL     1       2.189   4.559  17.575  0.00  0.00    +0.000 C 
BRANCH  21  22
ATOM     22  C   UNL     1       2.209   3.608  18.774  0.00  0.00    +0.000 C 
BRANCH  22  24
ATOM     23  C   UNL     1       3.518   1.471  18.653  0.00  0.00    +0.000 C 
ATOM     24  C   UNL     1       2.194   2.147  18.332  0.00  0.00    +0.000 C 
ENDBRANCH  22  24
ENDBRANCH  21  22
ENDBRANCH   1  21
TORSDOF 6
ENDMDL
MODEL 3
REMARK VINA RESULT:      -6.7      0.869      1.766
REMARK  Name = 
REMARK  9 active torsions:
REMARK  status: ('A' for Active; 'I' for Inactive)
REMARK    1  A    between atoms: C_1  and  C_2
REMARK    2  A    between atoms: C_2  and  C_3
REMARK    3  A    between atoms: C_3  and  C_4
REMARK    4  A    between atoms: C_4  and  N_5
REMARK    5  A    between atoms: C_6  and  C_7
REMARK    6  A    between atoms: N_11  and  C_12
REMARK    7  A    between atoms: N_11  and  C_14
REMARK    8  A    between atoms: C_12  and  C_13
REMARK    9  A    between atoms: C_14  and  C_15
REMARK                            x       y       z     vdW  Elec       q    Type
REMARK                         _______ _______ _______ _____ _____    ______ ____
ROOT
ATOM      1  N   UNL     1       3.828   5.150  17.859  0.00  0.00    +0.000 N 
ATOM      2  C   UNL     1       3.720   6.537  17.802  0.00  0.00    +0.000 A 
ATOM      3  N   UNL     1       4.348   6.985  16.726  0.00  0.00    +0.000 NA
ATOM      4  C   UNL     1       4.919   5.897  16.118  0.00  0.00    +0.000 A 
ATOM      5  C   UNL     1       5.683   5.828  14.943  0.00  0.00    +0.000 A 
ATOM      6  C   UNL     1       6.184   4.586  14.532  0.00  0.00    +0.000 A 
ATOM      7  C   UNL     1       5.928   3.435  15.277  0.00  0.00    +0.000 A 
ATOM      8  C   UNL     1       5.148   3.483  16.437  0.00  0.00    +0.000 A 
ATOM      9  C   UNL     1       4.649   4.734  16.828  0.00  0.00    +0.000 A 
ENDROOT
BRANCH   2  10
ATOM     10  C   UNL     1       2.913   7.386  18.690  0.00  0.00    +0.000 A 
ATOM     11  C   UNL     1       2.662   7.096  20.027  0.00  0.00    +0.000 A 
ATOM     12  C   UNL     1       1.695   7.818  20.733  0.00  0.00    +0.000 A 
ATOM     13  C   UNL     1       1.040   8.891  20.136  0.00  0.00    +0.000 A 
ATOM     14  N   UNL     1       0.033   9.589  20.779  0.00  0.00    +0.000 N 
ATOM     15  N   UNL     1       1.384   9.268  18.885  0.00  0.00    +0.000 NA
ATOM     16  C   UNL     1       2.282   8.517  18.192  0.00  0.00    +0.000 A 
BRANCH  14  17
ATOM     17  C   UNL     1      -0.777   9.029  21.857  0.00  0.00    +0.000 C 
ATOM     18  C   UNL     1      -0.428   9.639  23.210  0.00  0.00    +0.000 C 
ENDBRANCH  14  17
BRANCH  14  19
ATOM     19  C   UNL     1      -0.001  11.033  20.549  0.00  0.00    +0.000 C 
ATOM     20  C   UNL     1      -1.343  11.491  20.002  0.00  0.00    +0.000 C 
ENDBRANCH  14  19
ENDBRANCH   2  10
BRANCH   1  21
ATOM     21  C   UNL     1       3.139   4.245  18.766  0.00  0.00    +0.000 C 
BRANCH  21  22
ATOM     22  C   UNL     1       1.717   3.893  18.326  0.00  0.00    +0.000 C 
BRANCH  22  24
ATOM     23  C   UNL     1       1.622   3.537  20.807  0.00  0.00    +0.000 C 
ATOM     24  C   UNL     1       0.813   3.607  19.522  0.00  0.00    +0.000 C 
ENDBRANCH  22  24
ENDBRANCH  21  22
ENDBRANCH   1  21
TORSDOF 6
ENDMDL
MODEL 4
REMARK VINA RESULT:      -6.6      1.624      7.897
REMARK  Name = 
REMARK  9 active torsions:
REMARK  status: ('A' for Active; 'I' for Inactive)
REMARK    1  A    between atoms: C_1  and  C_2
REMARK    2  A    between atoms: C_2  and  C_3
REMARK    3  A    between atoms: C_3  and  C_4
REMARK    4  A    between atoms: C_4  and  N_5
REMARK    5  A    between atoms: C_6  and  C_7
REMARK    6  A    between atoms: N_11  and  C_12
REMARK    7  A    between atoms: N_11  and  C_14
REMARK    8  A    between atoms: C_12  and  C_13
REMARK    9  A    between atoms: C_14  and  C_15
REMARK                            x       y       z     vdW  Elec       q    Type
REMARK                         _______ _______ _______ _____ _____    ______ ____
ROOT
ATOM      1  N   UNL     1       0.553   9.760  19.904  0.00  0.00    +0.000 N 
ATOM      2  C   UNL     1       1.083   8.664  20.579  0.00  0.00    +0.000 A 
ATOM      3  N   UNL     1       0.647   8.662  21.830  0.00  0.00    +0.000 NA
ATOM      4  C   UNL     1      -0.113   9.792  21.986  0.00  0.00    +0.000 A 
ATOM      5  C   UNL     1      -0.807  10.254  23.115  0.00  0.00    +0.000 A 
ATOM      6  C   UNL     1      -1.503  11.467  23.034  0.00  0.00    +0.000 A 
ATOM      7  C   UNL     1      -1.508  12.205  21.851  0.00  0.00    +0.000 A 
ATOM      8  C   UNL     1      -0.841  11.747  20.710  0.00  0.00    +0.000 A 
ATOM      9  C   UNL     1      -0.157  10.527  20.808  0.00  0.00    +0.000 A 
ENDROOT
BRANCH   2  10
ATOM     10  C   UNL     1       1.875   7.575  19.989  0.00  0.00    +0.000 A 
ATOM     11  C   UNL     1       2.584   7.686  18.797  0.00  0.00    +0.000 A 
ATOM     12  C   UNL     1       3.108   6.546  18.182  0.00  0.00    +0.000 A 
ATOM     13  C   UNL     1       3.007   5.302  18.799  0.00  0.00    +0.000 A 
ATOM     14  N   UNL     1       3.456   4.141  18.194  0.00  0.00    +0.000 N 
ATOM     15  N   UNL     1       2.447   5.211  20.025  0.00  0.00    +0.000 NA
ATOM     16  C   UNL     1       1.888   6.320  20.580  0.00  0.00    +0.000 A 
BRANCH  14  17
ATOM     17  C   UNL     1       3.601   3.988  16.749  0.00  0.00    +0.000 C 
ATOM     18  C   UNL     1       5.055   4.101  16.305  0.00  0.00    +0.000 C 
ENDBRANCH  14  17
BRANCH  14  19
ATOM     19  C   UNL     1       4.078   3.153  19.074  0.00  0.00    +0.000 C 
ATOM     20  C   UNL     1       3.591   1.744  18.782  0.00  0.00    +0.000 C 
ENDBRANCH  14  19
ENDBRANCH   2  10
BRANCH   1  21
ATOM     21  C   UNL     1       0.626  10.041  18.479  0.00  0.00    +0.000 C 
BRANCH  21  22
ATOM     22  C   UNL     1      -0.495   9.392  17.664  0.00  0.00    +0.000 C 
BRANCH  22  24
ATOM     23  C   UNL     1      -2.971   9.799  17.689  0.00  0.00    +0.000 C 
ATOM     24  C   UNL     1      -1.610  10.387  17.350  0.00  0.00    +0.000 C 
ENDBRANCH  22  24
ENDBRANCH  21  22
ENDBRANCH   1  21
TORSDOF 6
ENDMDL
MODEL 5
REMARK VINA RESULT:      -6.6      0.986      1.804
REMARK  Name = 
REMARK  9 active torsions:
REMARK  status: ('A' for Active; 'I' for Inactive)
REMARK    1  A    between atoms: C_1  and  C_2
REMARK    2  A    between atoms: C_2  and  C_3
REMARK    3  A    between atoms: C_3  and  C_4
REMARK    4  A    between atoms: C_4  and  N_5
REMARK    5  A    between atoms: C_6  and  C_7
REMARK    6  A    between atoms: N_11  and  C_12
REMARK    7  A    between atoms: N_11  and  C_14
REMARK    8  A    between atoms: C_12  and  C_13
REMARK    9  A    between atoms: C_14  and  C_15
REMARK                            x       y       z     vdW  Elec       q    Type
REMARK                         _______ _______ _______ _____ _____    ______ ____
ROOT
ATOM      1  N   UNL     1       3.111   5.454  17.840  0.00  0.00    +0.000 N 
ATOM      2  C   UNL     1       3.395   6.817  17.865  0.00  0.00    +0.000 A 
ATOM      3  N   UNL     1       4.431   7.067  17.081  0.00  0.00    +0.000 NA
ATOM      4  C   UNL     1       4.862   5.859  16.597  0.00  0.00    +0.000 A 
ATOM      5  C   UNL     1       5.920   5.574  15.719  0.00  0.00    +0.000 A 
ATOM      6  C   UNL     1       6.184   4.239  15.386  0.00  0.00    +0.000 A 
ATOM      7  C   UNL     1       5.408   3.208  15.917  0.00  0.00    +0.000 A 
ATOM      8  C   UNL     1       4.336   3.478  16.774  0.00  0.00    +0.000 A 
ATOM      9  C   UNL     1       4.083   4.821  17.089  0.00  0.00    +0.000 A 
ENDROOT
BRANCH   2  10
ATOM     10  C   UNL     1       2.596   7.862  18.521  0.00  0.00    +0.000 A 
ATOM     11  C   UNL     1       2.243   7.842  19.867  0.00  0.00    +0.000 A 
ATOM     12  C   UNL     1       1.287   8.737  20.356  0.00  0.00    +0.000 A 
ATOM     13  C   UNL     1       0.746   9.716  19.527  0.00  0.00    +0.000 A 
ATOM     14  N   UNL     1      -0.247  10.578  19.956  0.00  0.00    +0.000 N 
ATOM     15  N   UNL     1       1.193   9.832  18.257  0.00  0.00    +0.000 NA
ATOM     16  C   UNL     1       2.077   8.914  17.780  0.00  0.00    +0.000 A 
BRANCH  14  17
ATOM     17  C   UNL     1      -1.159  10.276  21.055  0.00  0.00    +0.000 C 
ATOM     18  C   UNL     1      -0.766  11.000  22.338  0.00  0.00    +0.000 C 
ENDBRANCH  14  17
BRANCH  14  19
ATOM     19  C   UNL     1      -0.166  11.952  19.463  0.00  0.00    +0.000 C 
ATOM     20  C   UNL     1      -1.366  12.323  18.608  0.00  0.00    +0.000 C 
ENDBRANCH  14  19
ENDBRANCH   2  10
BRANCH   1  21
ATOM     21  C   UNL     1       1.954   4.780  18.409  0.00  0.00    +0.000 C 
BRANCH  21  22
ATOM     22  C   UNL     1       2.173   4.277  19.838  0.00  0.00    +0.000 C 
BRANCH  22  24
ATOM     23  C   UNL     1       1.432   2.663  21.609  0.00  0.00    +0.000 C 
ATOM     24  C   UNL     1       1.134   3.232  20.231  0.00  0.00    +0.000 C 
ENDBRANCH  22  24
ENDBRANCH  21  22
ENDBRANCH   1  21
TORSDOF 6
ENDMDL
MODEL 6
REMARK VINA RESULT:      -6.6      1.873      4.105
REMARK  Name = 
REMARK  9 active torsions:
REMARK  status: ('A' for Active; 'I' for Inactive)
REMARK    1  A    between atoms: C_1  and  C_2
REMARK    2  A    between atoms: C_2  and  C_3
REMARK    3  A    between atoms: C_3  and  C_4
REMARK    4  A    between atoms: C_4  and  N_5
REMARK    5  A    between atoms: C_6  and  C_7
REMARK    6  A    between atoms: N_11  and  C_12
REMARK    7  A    between atoms: N_11  and  C_14
REMARK    8  A    between atoms: C_12  and  C_13
REMARK    9  A    between atoms: C_14  and  C_15
REMARK                            x       y       z     vdW  Elec       q    Type
REMARK                         _______ _______ _______ _____ _____    ______ ____
ROOT
ATOM      1  N   UNL     1       3.496   5.858  19.061  0.00  0.00    +0.000 N 
ATOM      2  C   UNL     1       2.368   6.515  19.544  0.00  0.00    +0.000 A 
ATOM      3  N   UNL     1       1.773   5.760  20.455  0.00  0.00    +0.000 NA
ATOM      4  C   UNL     1       2.478   4.586  20.518  0.00  0.00    +0.000 A 
ATOM      5  C   UNL     1       2.268   3.460  21.330  0.00  0.00    +0.000 A 
ATOM      6  C   UNL     1       3.120   2.357  21.192  0.00  0.00    +0.000 A 
ATOM      7  C   UNL     1       4.163   2.376  20.265  0.00  0.00    +0.000 A 
ATOM      8  C   UNL     1       4.400   3.499  19.467  0.00  0.00    +0.000 A 
ATOM      9  C   UNL     1       3.541   4.597  19.624  0.00  0.00    +0.000 A 
ENDROOT
BRANCH   2  10
ATOM     10  C   UNL     1       1.959   7.891  19.231  0.00  0.00    +0.000 A 
ATOM     11  C   UNL     1       2.242   8.533  18.029  0.00  0.00    +0.000 A 
ATOM     12  C   UNL     1       2.035   9.910  17.901  0.00  0.00    +0.000 A 
ATOM     13  C   UNL     1       1.458  10.636  18.939  0.00  0.00    +0.000 A 
ATOM     14  N   UNL     1       1.295  12.008  18.876  0.00  0.00    +0.000 N 
ATOM     15  N   UNL     1       1.047   9.991  20.054  0.00  0.00    +0.000 NA
ATOM     16  C   UNL     1       1.313   8.664  20.185  0.00  0.00    +0.000 A 
BRANCH  14  17
ATOM     17  C   UNL     1       2.103  12.879  18.028  0.00  0.00    +0.000 C 
ATOM     18  C   UNL     1       2.975  13.826  18.847  0.00  0.00    +0.000 C 
ENDBRANCH  14  17
BRANCH  14  19
ATOM     19  C   UNL     1       0.069  12.541  19.469  0.00  0.00    +0.000 C 
ATOM     20  C   UNL     1      -1.084  12.551  18.479  0.00  0.00    +0.000 C 
ENDBRANCH  14  19
ENDBRANCH   2  10
BRANCH   1  21
ATOM     21  C   UNL     1       4.530   6.397  18.191  0.00  0.00    +0.000 C 
BRANCH  21  22
ATOM     22  C   UNL     1       4.505   5.822  16.773  0.00  0.00    +0.000 C 
BRANCH  22  24
ATOM     23  C   UNL     1       5.799   4.005  15.626  0.00  0.00    +0.000 C 
ATOM     24  C   UNL     1       5.888   5.346  16.336  0.00  0.00    +0.000 C 
ENDBRANCH  22  24
ENDBRANCH  21  22
ENDBRANCH   1  21
TORSDOF 6
ENDMDL
MODEL 7
REMARK VINA RESULT:      -6.5      1.750      3.971
REMARK  Name = 
REMARK  9 active torsions:
REMARK  status: ('A' for Active; 'I' for Inactive)
REMARK    1  A    between atoms: C_1  and  C_2
REMARK    2  A    between atoms: C_2  and  C_3
REMARK    3  A    between atoms: C_3  and  C_4
REMARK    4  A    between atoms: C_4  and  N_5
REMARK    5  A    between atoms: C_6  and  C_7
REMARK    6  A    between atoms: N_11  and  C_12
REMARK    7  A    between atoms: N_11  and  C_14
REMARK    8  A    between atoms: C_12  and  C_13
REMARK    9  A    between atoms: C_14  and  C_15
REMARK                            x       y       z     vdW  Elec       q    Type
REMARK                         _______ _______ _______ _____ _____    ______ ____
ROOT
ATOM      1  N   UNL     1       3.545   5.590  18.118  0.00  0.00    +0.000 N 
ATOM      2  C   UNL     1       2.385   6.193  18.595  0.00  0.00    +0.000 A 
ATOM      3  N   UNL     1       1.533   5.260  18.993  0.00  0.00    +0.000 NA
ATOM      4  C   UNL     1       2.113   4.050  18.713  0.00  0.00    +0.000 A 
ATOM      5  C   UNL     1       1.631   2.752  18.946  0.00  0.00    +0.000 A 
ATOM      6  C   UNL     1       2.407   1.658  18.544  0.00  0.00    +0.000 A 
ATOM      7  C   UNL     1       3.641   1.852  17.923  0.00  0.00    +0.000 A 
ATOM      8  C   UNL     1       4.147   3.137  17.707  0.00  0.00    +0.000 A 
ATOM      9  C   UNL     1       3.359   4.221  18.123  0.00  0.00    +0.000 A 
ENDROOT
BRANCH   2  10
ATOM     10  C   UNL     1       2.167   7.633  18.790  0.00  0.00    +0.000 A 
ATOM     11  C   UNL     1       1.634   8.190  19.948  0.00  0.00    +0.000 A 
ATOM     12  C   UNL     1       1.234   9.530  19.964  0.00  0.00    +0.000 A 
ATOM     13  C   UNL     1       1.447  10.343  18.855  0.00  0.00    +0.000 A 
ATOM     14  N   UNL     1       1.009  11.655  18.809  0.00  0.00    +0.000 N 
ATOM     15  N   UNL     1       2.096   9.845  17.780  0.00  0.00    +0.000 NA
ATOM     16  C   UNL     1       2.423   8.525  17.758  0.00  0.00    +0.000 A 
BRANCH  14  17
ATOM     17  C   UNL     1      -0.095  12.166  19.615  0.00  0.00    +0.000 C 
ATOM     18  C   UNL     1      -1.451  11.872  18.981  0.00  0.00    +0.000 C 
ENDBRANCH  14  17
BRANCH  14  19
ATOM     19  C   UNL     1       1.891  12.608  18.137  0.00  0.00    +0.000 C 
ATOM     20  C   UNL     1       2.562  13.553  19.119  0.00  0.00    +0.000 C 
ENDBRANCH  14  19
ENDBRANCH   2  10
BRANCH   1  21
ATOM     21  C   UNL     1       4.796   6.239  17.755  0.00  0.00    +0.000 C 
BRANCH  21  22
ATOM     22  C   UNL     1       4.986   6.414  16.247  0.00  0.00    +0.000 C 
BRANCH  22  24
ATOM     23  C   UNL     1       5.603   4.574  14.657  0.00  0.00    +0.000 C 
ATOM     24  C   UNL     1       6.116   5.535  15.718  0.00  0.00    +0.000 C 
ENDBRANCH  22  24
ENDBRANCH  21  22
ENDBRANCH   1  21
TORSDOF 6
ENDMDL
MODEL 8
REMARK VINA RESULT:      -6.5      0.954      1.040
REMARK  Name = 
REMARK  9 active torsions:
REMARK  status: ('A' for Active; 'I' for Inactive)
REMARK    1  A    between atoms: C_1  and  C_2
REMARK    2  A    between atoms: C_2  and  C_3
REMARK    3  A    between atoms: C_3  and  C_4
REMARK    4  A    between atoms: C_4  and  N_5
REMARK    5  A    between atoms: C_6  and  C_7
REMARK    6  A    between atoms: N_11  and  C_12
REMARK    7  A    between atoms: N_11  and  C_14
REMARK    8  A    between atoms: C_12  and  C_13
REMARK    9  A    between atoms: C_14  and  C_15
REMARK                            x       y       z     vdW  Elec       q    Type
REMARK                         _______ _______ _______ _____ _____    ______ ____
ROOT
ATOM      1  N   UNL     1       4.345   5.860  18.373  0.00  0.00    +0.000 N 
ATOM      2  C   UNL     1       3.660   6.940  17.824  0.00  0.00    +0.000 A 
ATOM      3  N   UNL     1       4.011   7.089  16.556  0.00  0.00    +0.000 NA
ATOM      4  C   UNL     1       4.973   6.146  16.299  0.00  0.00    +0.000 A 
ATOM      5  C   UNL     1       5.664   5.876  15.107  0.00  0.00    +0.000 A 
ATOM      6  C   UNL     1       6.632   4.864  15.099  0.00  0.00    +0.000 A 
ATOM      7  C   UNL     1       6.906   4.133  16.256  0.00  0.00    +0.000 A 
ATOM      8  C   UNL     1       6.208   4.374  17.445  0.00  0.00    +0.000 A 
ATOM      9  C   UNL     1       5.238   5.386  17.431  0.00  0.00    +0.000 A 
ENDROOT
BRANCH   2  10
ATOM     10  C   UNL     1       2.593   7.717  18.471  0.00  0.00    +0.000 A 
ATOM     11  C   UNL     1       1.903   8.757  17.855  0.00  0.00    +0.000 A 
ATOM     12  C   UNL     1       1.080   9.599  18.608  0.00  0.00    +0.000 A 
ATOM     13  C   UNL     1       0.869   9.352  19.962  0.00  0.00    +0.000 A 
ATOM     14  N   UNL     1       0.114  10.198  20.755  0.00  0.00    +0.000 N 
ATOM     15  N   UNL     1       1.421   8.259  20.533  0.00  0.00    +0.000 NA
ATOM     16  C   UNL     1       2.267   7.487  19.800  0.00  0.00    +0.000 A 
BRANCH  14  17
ATOM     17  C   UNL     1      -0.108  11.608  20.449  0.00  0.00    +0.000 C 
ATOM     18  C   UNL     1      -1.537  11.875  19.989  0.00  0.00    +0.000 C 
ENDBRANCH  14  17
BRANCH  14  19
ATOM     19  C   UNL     1      -0.720   9.556  21.771  0.00  0.00    +0.000 C 
ATOM     20  C   UNL     1      -0.396  10.054  23.170  0.00  0.00    +0.000 C 
ENDBRANCH  14  19
ENDBRANCH   2  10
BRANCH   1  21
ATOM     21  C   UNL     1       4.126   5.240  19.671  0.00  0.00    +0.000 C 
BRANCH  21  22
ATOM     22  C   UNL     1       3.173   4.044  19.632  0.00  0.00    +0.000 C 
BRANCH  22  24
ATOM     23  C   UNL     1       1.230   2.900  20.732  0.00  0.00    +0.000 C 
ATOM     24  C   UNL     1       2.253   4.019  20.849  0.00  0.00    +0.000 C 
ENDBRANCH  22  24
ENDBRANCH  21  22
ENDBRANCH   1  21
TORSDOF 6
ENDMDL
MODEL 9
REMARK VINA RESULT:      -6.5      1.851      4.057
REMARK  Name = 
REMARK  9 active torsions:
REMARK  status: ('A' for Active; 'I' for Inactive)
REMARK    1  A    between atoms: C_1  and  C_2
REMARK    2  A    between atoms: C_2  and  C_3
REMARK    3  A    between atoms: C_3  and  C_4
REMARK    4  A    between atoms: C_4  and  N_5
REMARK    5  A    between atoms: C_6  and  C_7
REMARK    6  A    between atoms: N_11  and  C_12
REMARK    7  A    between atoms: N_11  and  C_14
REMARK    8  A    between atoms: C_12  and  C_13
REMARK    9  A    between atoms: C_14  and  C_15
REMARK                            x       y       z     vdW  Elec       q    Type
REMARK                         _______ _______ _______ _____ _____    ______ ____
ROOT
ATOM      1  N   UNL     1       3.463   5.658  17.907  0.00  0.00    +0.000 N 
ATOM      2  C   UNL     1       2.412   6.251  18.600  0.00  0.00    +0.000 A 
ATOM      3  N   UNL     1       1.700   5.315  19.210  0.00  0.00    +0.000 NA
ATOM      4  C   UNL     1       2.251   4.109  18.861  0.00  0.00    +0.000 A 
ATOM      5  C   UNL     1       1.878   2.812  19.244  0.00  0.00    +0.000 A 
ATOM      6  C   UNL     1       2.590   1.721  18.728  0.00  0.00    +0.000 A 
ATOM      7  C   UNL     1       3.653   1.919  17.848  0.00  0.00    +0.000 A 
ATOM      8  C   UNL     1       4.053   3.207  17.475  0.00  0.00    +0.000 A 
ATOM      9  C   UNL     1       3.333   4.286  18.008  0.00  0.00    +0.000 A 
ENDROOT
BRANCH   2  10
ATOM     10  C   UNL     1       2.187   7.693  18.779  0.00  0.00    +0.000 A 
ATOM     11  C   UNL     1       1.608   8.256  19.912  0.00  0.00    +0.000 A 
ATOM     12  C   UNL     1       1.209   9.595  19.906  0.00  0.00    +0.000 A 
ATOM     13  C   UNL     1       1.468  10.404  18.803  0.00  0.00    +0.000 A 
ATOM     14  N   UNL     1       1.033  11.715  18.733  0.00  0.00    +0.000 N 
ATOM     15  N   UNL     1       2.159   9.900  17.757  0.00  0.00    +0.000 NA
ATOM     16  C   UNL     1       2.485   8.579  17.754  0.00  0.00    +0.000 A 
BRANCH  14  17
ATOM     17  C   UNL     1      -0.103  12.231  19.491  0.00  0.00    +0.000 C 
ATOM     18  C   UNL     1      -1.415  12.084  18.727  0.00  0.00    +0.000 C 
ENDBRANCH  14  17
BRANCH  14  19
ATOM     19  C   UNL     1       1.943  12.664  18.092  0.00  0.00    +0.000 C 
ATOM     20  C   UNL     1       1.869  14.042  18.729  0.00  0.00    +0.000 C 
ENDBRANCH  14  19
ENDBRANCH   2  10
BRANCH   1  21
ATOM     21  C   UNL     1       4.582   6.324  17.257  0.00  0.00    +0.000 C 
BRANCH  21  22
ATOM     22  C   UNL     1       5.900   6.207  18.024  0.00  0.00    +0.000 C 
BRANCH  22  24
ATOM     23  C   UNL     1       7.729   7.875  17.615  0.00  0.00    +0.000 C 
ATOM     24  C   UNL     1       7.095   6.575  17.148  0.00  0.00    +0.000 C 
ENDBRANCH  22  24
ENDBRANCH  21  22
ENDBRANCH   1  21
TORSDOF 6
ENDMDL
