MODEL 1
REMARK VINA RESULT:      -7.3      0.000      0.000
REMARK  Name = 
REMARK  10 active torsions:
REMARK  status: ('A' for Active; 'I' for Inactive)
REMARK    1  A    between atoms: C_1  and  N_2
REMARK    2  A    between atoms: N_2  and  C_3
REMARK    3  A    between atoms: C_6  and  C_7
REMARK    4  A    between atoms: C_8  and  C_9
REMARK    5  A    between atoms: C_12  and  O_13
REMARK    6  A    between atoms: O_13  and  C_14
REMARK    7  A    between atoms: C_14  and  C_15
REMARK    8  A    between atoms: C_15  and  C_16
REMARK    9  A    between atoms: C_15  and  C_18
REMARK   10  A    between atoms: C_16  and  O_17
REMARK                            x       y       z     vdW  Elec       q    Type
REMARK                         _______ _______ _______ _____ _____    ______ ____
ROOT
ATOM      1  C   UNL     1       7.376   7.379  17.880  0.00  0.00    +0.000 A 
ATOM      2  C   UNL     1       6.205   7.353  17.119  0.00  0.00    +0.000 A 
ATOM      3  C   UNL     1       5.390   6.222  17.116  0.00  0.00    +0.000 A 
ATOM      4  C   UNL     1       5.729   5.099  17.871  0.00  0.00    +0.000 A 
ATOM      5  C   UNL     1       6.902   5.124  18.633  0.00  0.00    +0.000 A 
ATOM      6  C   UNL     1       7.726   6.261  18.641  0.00  0.00    +0.000 A 
ENDROOT
BRANCH   1   8
ATOM      7  C   UNL     1       8.768   9.068  18.963  0.00  0.00    +0.000 C 
ATOM      8  C   UNL     1       8.186   8.596  17.849  0.00  0.00    +0.000 C 
BRANCH   7  12
ATOM      9  C   UNL     1      10.697  12.925  19.133  0.00  0.00    +0.000 A 
ATOM     10  C   UNL     1      10.288  12.349  17.925  0.00  0.00    +0.000 A 
ATOM     11  C   UNL     1       9.631  11.114  17.889  0.00  0.00    +0.000 A 
ATOM     12  C   UNL     1       9.400  10.393  19.065  0.00  0.00    +0.000 A 
ATOM     13  C   UNL     1       9.803  10.961  20.277  0.00  0.00    +0.000 A 
ATOM     14  C   UNL     1      10.458  12.202  20.307  0.00  0.00    +0.000 A 
BRANCH   9  16
ATOM     15  C   UNL     1      11.156  15.076  18.049  0.00  0.00    +0.000 C 
ATOM     16  N   UNL     1      11.437  14.113  19.099  0.00  0.00    +0.000 N 
ATOM     17  H   UNL     1      12.433  13.940  19.211  0.00  0.00    +0.000 HD
ENDBRANCH   9  16
ENDBRANCH   7  12
ENDBRANCH   1   8
BRANCH   4  18
ATOM     18  O   UNL     1       4.993   3.941  17.929  0.00  0.00    +0.000 OA
BRANCH  18  19
ATOM     19  C   UNL     1       4.006   3.795  16.899  0.00  0.00    +0.000 C 
BRANCH  19  20
ATOM     20  C   UNL     1       2.724   3.138  17.423  0.00  0.00    +0.000 C 
BRANCH  20  21
ATOM     21  C   UNL     1       1.811   4.174  18.063  0.00  0.00    +0.000 C 
ATOM     22  F   UNL     1       2.156   5.405  17.589  0.00  0.00    +0.000 F 
ENDBRANCH  20  21
BRANCH  20  23
ATOM     23  C   UNL     1       3.019   1.990  18.385  0.00  0.00    +0.000 C 
BRANCH  23  24
ATOM     24  O   UNL     1       4.178   1.259  18.015  0.00  0.00    +0.000 OA
ATOM     25  H   UNL     1       4.082   1.012  17.074  0.00  0.00    +0.000 HD
ENDBRANCH  23  24
ENDBRANCH  20  23
ENDBRANCH  19  20
ENDBRANCH  18  19
ENDBRANCH   4  18
TORSDOF 9
ENDMDL
MODEL 2
REMARK VINA RESULT:      -7.3      0.299      1.047
REMARK  Name = 
REMARK  10 active torsions:
REMARK  status: ('A' for Active; 'I' for Inactive)
REMARK    1  A    between atoms: C_1  and  N_2
REMARK    2  A    between atoms: N_2  and  C_3
REMARK    3  A    between atoms: C_6  and  C_7
REMARK    4  A    between atoms: C_8  and  C_9
REMARK    5  A    between atoms: C_12  and  O_13
REMARK    6  A    between atoms: O_13  and  C_14
REMARK    7  A    between atoms: C_14  and  C_15
REMARK    8  A    between atoms: C_15  and  C_16
REMARK    9  A    between atoms: C_15  and  C_18
REMARK   10  A    between atoms: C_16  and  O_17
REMARK                            x       y       z     vdW  Elec       q    Type
REMARK                         _______ _______ _______ _____ _____    ______ ____
ROOT
ATOM      1  C   UNL     1       7.347   7.478  17.833  0.00  0.00    +0.000 A 
ATOM      2  C   UNL     1       7.775   6.423  18.643  0.00  0.00    +0.000 A 
ATOM      3  C   UNL     1       7.021   5.254  18.736  0.00  0.00    +0.000 A 
ATOM      4  C   UNL     1       5.829   5.118  18.023  0.00  0.00    +0.000 A 
ATOM      5  C   UNL     1       5.400   6.174  17.212  0.00  0.00    +0.000 A 
ATOM      6  C   UNL     1       6.156   7.353  17.114  0.00  0.00    +0.000 A 
ENDROOT
BRANCH   1   8
ATOM      7  C   UNL     1       8.698   9.220  18.884  0.00  0.00    +0.000 C 
ATOM      8  C   UNL     1       8.185   8.675  17.769  0.00  0.00    +0.000 C 
BRANCH   7  12
ATOM      9  C   UNL     1      10.642  13.074  18.870  0.00  0.00    +0.000 A 
ATOM     10  C   UNL     1       9.819  12.651  17.820  0.00  0.00    +0.000 A 
ATOM     11  C   UNL     1       9.166  11.413  17.855  0.00  0.00    +0.000 A 
ATOM     12  C   UNL     1       9.352  10.538  18.930  0.00  0.00    +0.000 A 
ATOM     13  C   UNL     1      10.170  10.952  19.985  0.00  0.00    +0.000 A 
ATOM     14  C   UNL     1      10.819  12.196  19.946  0.00  0.00    +0.000 A 
BRANCH   9  16
ATOM     15  C   UNL     1      10.736  15.356  17.980  0.00  0.00    +0.000 C 
ATOM     16  N   UNL     1      11.346  14.276  18.735  0.00  0.00    +0.000 N 
ATOM     17  H   UNL     1      12.315  14.118  18.471  0.00  0.00    +0.000 HD
ENDBRANCH   9  16
ENDBRANCH   7  12
ENDBRANCH   1   8
BRANCH   4  18
ATOM     18  O   UNL     1       5.019   4.009  18.053  0.00  0.00    +0.000 OA
BRANCH  18  19
ATOM     19  C   UNL     1       4.107   3.891  16.953  0.00  0.00    +0.000 C 
BRANCH  19  20
ATOM     20  C   UNL     1       2.769   3.278  17.381  0.00  0.00    +0.000 C 
BRANCH  20  21
ATOM     21  C   UNL     1       1.947   4.283  18.176  0.00  0.00    +0.000 C 
ATOM     22  F   UNL     1       2.159   5.524  17.653  0.00  0.00    +0.000 F 
ENDBRANCH  20  21
BRANCH  20  23
ATOM     23  C   UNL     1       2.956   1.977  18.158  0.00  0.00    +0.000 C 
BRANCH  23  24
ATOM     24  O   UNL     1       4.216   1.376  17.908  0.00  0.00    +0.000 OA
ATOM     25  H   UNL     1       4.879   1.841  18.456  0.00  0.00    +0.000 HD
ENDBRANCH  23  24
ENDBRANCH  20  23
ENDBRANCH  19  20
ENDBRANCH  18  19
ENDBRANCH   4  18
TORSDOF 9
ENDMDL
MODEL 3
REMARK VINA RESULT:      -7.3      1.062      1.764
REMARK  Name = 
REMARK  10 active torsions:
REMARK  status: ('A' for Active; 'I' for Inactive)
REMARK    1  A    between atoms: C_1  and  N_2
REMARK    2  A    between atoms: N_2  and  C_3
REMARK    3  A    between atoms: C_6  and  C_7
REMARK    4  A    between atoms: C_8  and  C_9
REMARK    5  A    between atoms: C_12  and  O_13
REMARK    6  A    between atoms: O_13  and  C_14
REMARK    7  A    between atoms: C_14  and  C_15
REMARK    8  A    between atoms: C_15  and  C_16
REMARK    9  A    between atoms: C_15  and  C_18
REMARK   10  A    between atoms: C_16  and  O_17
REMARK                            x       y       z     vdW  Elec       q    Type
REMARK                         _______ _______ _______ _____ _____    ______ ____
ROOT
ATOM      1  C   UNL     1       7.415   7.537  17.755  0.00  0.00    +0.000 A 
ATOM      2  C   UNL     1       7.908   6.494  18.543  0.00  0.00    +0.000 A 
ATOM      3  C   UNL     1       7.273   5.253  18.548  0.00  0.00    +0.000 A 
ATOM      4  C   UNL     1       6.139   5.031  17.766  0.00  0.00    +0.000 A 
ATOM      5  C   UNL     1       5.645   6.075  16.977  0.00  0.00    +0.000 A 
ATOM      6  C   UNL     1       6.281   7.327  16.967  0.00  0.00    +0.000 A 
ENDROOT
BRANCH   1   8
ATOM      7  C   UNL     1       8.861   9.171  18.852  0.00  0.00    +0.000 C 
ATOM      8  C   UNL     1       8.128   8.813  17.785  0.00  0.00    +0.000 C 
BRANCH   7  12
ATOM      9  C   UNL     1      10.389  13.144  19.564  0.00  0.00    +0.000 A 
ATOM     10  C   UNL     1      10.017  12.291  20.609  0.00  0.00    +0.000 A 
ATOM     11  C   UNL     1       9.558  10.991  20.364  0.00  0.00    +0.000 A 
ATOM     12  C   UNL     1       9.416  10.519  19.056  0.00  0.00    +0.000 A 
ATOM     13  C   UNL     1       9.786  11.364  18.005  0.00  0.00    +0.000 A 
ATOM     14  C   UNL     1      10.250  12.664  18.257  0.00  0.00    +0.000 A 
BRANCH   9  16
ATOM     15  C   UNL     1      10.368  15.514  18.936  0.00  0.00    +0.000 C 
ATOM     16  N   UNL     1      10.746  14.464  19.865  0.00  0.00    +0.000 N 
ATOM     17  H   UNL     1      11.718  14.535  20.156  0.00  0.00    +0.000 HD
ENDBRANCH   9  16
ENDBRANCH   7  12
ENDBRANCH   1   8
BRANCH   4  18
ATOM     18  O   UNL     1       5.445   3.846  17.707  0.00  0.00    +0.000 OA
BRANCH  18  19
ATOM     19  C   UNL     1       4.041   3.976  17.452  0.00  0.00    +0.000 C 
BRANCH  19  20
ATOM     20  C   UNL     1       3.217   2.963  18.255  0.00  0.00    +0.000 C 
BRANCH  20  21
ATOM     21  C   UNL     1       1.744   3.350  18.259  0.00  0.00    +0.000 C 
ATOM     22  F   UNL     1       1.016   2.277  18.680  0.00  0.00    +0.000 F 
ENDBRANCH  20  21
BRANCH  20  23
ATOM     23  C   UNL     1       3.747   2.788  19.676  0.00  0.00    +0.000 C 
BRANCH  23  24
ATOM     24  O   UNL     1       4.937   2.017  19.716  0.00  0.00    +0.000 OA
ATOM     25  H   UNL     1       4.744   1.203  20.223  0.00  0.00    +0.000 HD
ENDBRANCH  23  24
ENDBRANCH  20  23
ENDBRANCH  19  20
ENDBRANCH  18  19
ENDBRANCH   4  18
TORSDOF 9
ENDMDL
MODEL 4
REMARK VINA RESULT:      -7.2      1.163      1.536
REMARK  Name = 
REMARK  10 active torsions:
REMARK  status: ('A' for Active; 'I' for Inactive)
REMARK    1  A    between atoms: C_1  and  N_2
REMARK    2  A    between atoms: N_2  and  C_3
REMARK    3  A    between atoms: C_6  and  C_7
REMARK    4  A    between atoms: C_8  and  C_9
REMARK    5  A    between atoms: C_12  and  O_13
REMARK    6  A    between atoms: O_13  and  C_14
REMARK    7  A    between atoms: C_14  and  C_15
REMARK    8  A    between atoms: C_15  and  C_16
REMARK    9  A    between atoms: C_15  and  C_18
REMARK   10  A    between atoms: C_16  and  O_17
REMARK                            x       y       z     vdW  Elec       q    Type
REMARK                         _______ _______ _______ _____ _____    ______ ____
ROOT
ATOM      1  C   UNL     1       7.314   7.502  17.693  0.00  0.00    +0.000 A 
ATOM      2  C   UNL     1       7.791   6.400  18.407  0.00  0.00    +0.000 A 
ATOM      3  C   UNL     1       7.111   5.184  18.366  0.00  0.00    +0.000 A 
ATOM      4  C   UNL     1       5.944   5.047  17.612  0.00  0.00    +0.000 A 
ATOM      5  C   UNL     1       5.466   6.150  16.897  0.00  0.00    +0.000 A 
ATOM      6  C   UNL     1       6.148   7.376  16.934  0.00  0.00    +0.000 A 
ENDROOT
BRANCH   1   8
ATOM      7  C   UNL     1       8.775   9.066  18.869  0.00  0.00    +0.000 C 
ATOM      8  C   UNL     1       8.075   8.748  17.768  0.00  0.00    +0.000 C 
BRANCH   7  12
ATOM      9  C   UNL     1      10.625  12.919  19.465  0.00  0.00    +0.000 A 
ATOM     10  C   UNL     1      10.420  12.381  18.190  0.00  0.00    +0.000 A 
ATOM     11  C   UNL     1       9.785  11.146  18.010  0.00  0.00    +0.000 A 
ATOM     12  C   UNL     1       9.373  10.389  19.111  0.00  0.00    +0.000 A 
ATOM     13  C   UNL     1       9.572  10.919  20.390  0.00  0.00    +0.000 A 
ATOM     14  C   UNL     1      10.205  12.159  20.563  0.00  0.00    +0.000 A 
BRANCH   9  16
ATOM     15  C   UNL     1      10.996  15.231  18.737  0.00  0.00    +0.000 C 
ATOM     16  N   UNL     1      11.353  14.109  19.587  0.00  0.00    +0.000 N 
ATOM     17  H   UNL     1      12.355  13.938  19.602  0.00  0.00    +0.000 HD
ENDBRANCH   9  16
ENDBRANCH   7  12
ENDBRANCH   1   8
BRANCH   4  18
ATOM     18  O   UNL     1       5.205   3.893  17.513  0.00  0.00    +0.000 OA
BRANCH  18  19
ATOM     19  C   UNL     1       3.783   4.076  17.553  0.00  0.00    +0.000 C 
BRANCH  19  20
ATOM     20  C   UNL     1       3.163   3.471  18.818  0.00  0.00    +0.000 C 
BRANCH  20  21
ATOM     21  C   UNL     1       3.165   4.483  19.955  0.00  0.00    +0.000 C 
ATOM     22  F   UNL     1       2.453   3.965  20.996  0.00  0.00    +0.000 F 
ENDBRANCH  20  21
BRANCH  20  23
ATOM     23  C   UNL     1       3.853   2.173  19.231  0.00  0.00    +0.000 C 
BRANCH  23  24
ATOM     24  O   UNL     1       5.093   2.404  19.880  0.00  0.00    +0.000 OA
ATOM     25  H   UNL     1       5.584   3.065  19.353  0.00  0.00    +0.000 HD
ENDBRANCH  23  24
ENDBRANCH  20  23
ENDBRANCH  19  20
ENDBRANCH  18  19
ENDBRANCH   4  18
TORSDOF 9
ENDMDL
MODEL 5
REMARK VINA RESULT:      -7.2      0.574      1.146
REMARK  Name = 
REMARK  10 active torsions:
REMARK  status: ('A' for Active; 'I' for Inactive)
REMARK    1  A    between atoms: C_1  and  N_2
REMARK    2  A    between atoms: N_2  and  C_3
REMARK    3  A    between atoms: C_6  and  C_7
REMARK    4  A    between atoms: C_8  and  C_9
REMARK    5  A    between atoms: C_12  and  O_13
REMARK    6  A    between atoms: O_13  and  C_14
REMARK    7  A    between atoms: C_14  and  C_15
REMARK    8  A    between atoms: C_15  and  C_16
REMARK    9  A    between atoms: C_15  and  C_18
REMARK   10  A    between atoms: C_16  and  O_17
REMARK                            x       y       z     vdW  Elec       q    Type
REMARK                         _______ _______ _______ _____ _____    ______ ____
ROOT
ATOM      1  C   UNL     1       7.487   7.529  17.885  0.00  0.00    +0.000 A 
ATOM      2  C   UNL     1       6.322   7.463  17.116  0.00  0.00    +0.000 A 
ATOM      3  C   UNL     1       5.528   6.317  17.134  0.00  0.00    +0.000 A 
ATOM      4  C   UNL     1       5.882   5.219  17.920  0.00  0.00    +0.000 A 
ATOM      5  C   UNL     1       7.049   5.285  18.690  0.00  0.00    +0.000 A 
ATOM      6  C   UNL     1       7.851   6.437  18.676  0.00  0.00    +0.000 A 
ENDROOT
BRANCH   1   8
ATOM      7  C   UNL     1       8.830   9.275  18.940  0.00  0.00    +0.000 C 
ATOM      8  C   UNL     1       8.273   8.761  17.832  0.00  0.00    +0.000 C 
BRANCH   7  12
ATOM      9  C   UNL     1      10.543  13.221  19.290  0.00  0.00    +0.000 A 
ATOM     10  C   UNL     1      10.475  12.340  20.375  0.00  0.00    +0.000 A 
ATOM     11  C   UNL     1       9.950  11.049  20.237  0.00  0.00    +0.000 A 
ATOM     12  C   UNL     1       9.435  10.615  19.012  0.00  0.00    +0.000 A 
ATOM     13  C   UNL     1       9.500  11.487  17.921  0.00  0.00    +0.000 A 
ATOM     14  C   UNL     1      10.032  12.778  18.064  0.00  0.00    +0.000 A 
BRANCH   9  16
ATOM     15  C   UNL     1      10.733  15.530  18.488  0.00  0.00    +0.000 C 
ATOM     16  N   UNL     1      10.987  14.530  19.510  0.00  0.00    +0.000 N 
ATOM     17  H   UNL     1      11.946  14.552  19.845  0.00  0.00    +0.000 HD
ENDBRANCH   9  16
ENDBRANCH   7  12
ENDBRANCH   1   8
BRANCH   4  18
ATOM     18  O   UNL     1       5.167   4.049  18.000  0.00  0.00    +0.000 OA
BRANCH  18  19
ATOM     19  C   UNL     1       4.368   3.745  16.849  0.00  0.00    +0.000 C 
BRANCH  19  20
ATOM     20  C   UNL     1       2.919   3.418  17.229  0.00  0.00    +0.000 C 
BRANCH  20  21
ATOM     21  C   UNL     1       2.298   4.565  18.015  0.00  0.00    +0.000 C 
ATOM     22  F   UNL     1       2.213   4.195  19.325  0.00  0.00    +0.000 F 
ENDBRANCH  20  21
BRANCH  20  23
ATOM     23  C   UNL     1       2.807   2.100  17.990  0.00  0.00    +0.000 C 
BRANCH  23  24
ATOM     24  O   UNL     1       4.056   1.435  18.103  0.00  0.00    +0.000 OA
ATOM     25  H   UNL     1       4.279   1.387  19.054  0.00  0.00    +0.000 HD
ENDBRANCH  23  24
ENDBRANCH  20  23
ENDBRANCH  19  20
ENDBRANCH  18  19
ENDBRANCH   4  18
TORSDOF 9
ENDMDL
MODEL 6
REMARK VINA RESULT:      -7.1      1.599      2.063
REMARK  Name = 
REMARK  10 active torsions:
REMARK  status: ('A' for Active; 'I' for Inactive)
REMARK    1  A    between atoms: C_1  and  N_2
REMARK    2  A    between atoms: N_2  and  C_3
REMARK    3  A    between atoms: C_6  and  C_7
REMARK    4  A    between atoms: C_8  and  C_9
REMARK    5  A    between atoms: C_12  and  O_13
REMARK    6  A    between atoms: O_13  and  C_14
REMARK    7  A    between atoms: C_14  and  C_15
REMARK    8  A    between atoms: C_15  and  C_16
REMARK    9  A    between atoms: C_15  and  C_18
REMARK   10  A    between atoms: C_16  and  O_17
REMARK                            x       y       z     vdW  Elec       q    Type
REMARK                         _______ _______ _______ _____ _____    ______ ____
ROOT
ATOM      1  C   UNL     1       7.505   7.431  17.922  0.00  0.00    +0.000 A 
ATOM      2  C   UNL     1       6.307   7.109  17.279  0.00  0.00    +0.000 A 
ATOM      3  C   UNL     1       5.631   5.931  17.595  0.00  0.00    +0.000 A 
ATOM      4  C   UNL     1       6.138   5.057  18.558  0.00  0.00    +0.000 A 
ATOM      5  C   UNL     1       7.338   5.379  19.202  0.00  0.00    +0.000 A 
ATOM      6  C   UNL     1       8.021   6.565  18.889  0.00  0.00    +0.000 A 
ENDROOT
BRANCH   1   8
ATOM      7  C   UNL     1       8.738   9.463  18.485  0.00  0.00    +0.000 C 
ATOM      8  C   UNL     1       8.163   8.684  17.554  0.00  0.00    +0.000 C 
BRANCH   7  12
ATOM      9  C   UNL     1      10.038  13.488  17.627  0.00  0.00    +0.000 A 
ATOM     10  C   UNL     1       8.703  13.091  17.487  0.00  0.00    +0.000 A 
ATOM     11  C   UNL     1       8.289  11.792  17.804  0.00  0.00    +0.000 A 
ATOM     12  C   UNL     1       9.213  10.833  18.233  0.00  0.00    +0.000 A 
ATOM     13  C   UNL     1      10.548  11.221  18.378  0.00  0.00    +0.000 A 
ATOM     14  C   UNL     1      10.956  12.526  18.062  0.00  0.00    +0.000 A 
BRANCH   9  16
ATOM     15  C   UNL     1      11.811  15.142  17.262  0.00  0.00    +0.000 C 
ATOM     16  N   UNL     1      10.409  14.769  17.201  0.00  0.00    +0.000 N 
ATOM     17  H   UNL     1       9.800  15.486  17.586  0.00  0.00    +0.000 HD
ENDBRANCH   9  16
ENDBRANCH   7  12
ENDBRANCH   1   8
BRANCH   4  18
ATOM     18  O   UNL     1       5.547   3.875  18.934  0.00  0.00    +0.000 OA
BRANCH  18  19
ATOM     19  C   UNL     1       4.178   3.726  18.534  0.00  0.00    +0.000 C 
BRANCH  19  20
ATOM     20  C   UNL     1       3.218   3.837  19.724  0.00  0.00    +0.000 C 
BRANCH  20  21
ATOM     21  C   UNL     1       2.332   2.602  19.817  0.00  0.00    +0.000 C 
ATOM     22  F   UNL     1       1.030   3.005  19.830  0.00  0.00    +0.000 F 
ENDBRANCH  20  21
BRANCH  20  23
ATOM     23  C   UNL     1       2.385   5.114  19.674  0.00  0.00    +0.000 C 
BRANCH  23  24
ATOM     24  O   UNL     1       3.110   6.249  20.121  0.00  0.00    +0.000 OA
ATOM     25  H   UNL     1       2.988   6.957  19.457  0.00  0.00    +0.000 HD
ENDBRANCH  23  24
ENDBRANCH  20  23
ENDBRANCH  19  20
ENDBRANCH  18  19
ENDBRANCH   4  18
TORSDOF 9
ENDMDL
MODEL 7
REMARK VINA RESULT:      -7.1      0.854      1.587
REMARK  Name = 
REMARK  10 active torsions:
REMARK  status: ('A' for Active; 'I' for Inactive)
REMARK    1  A    between atoms: C_1  and  N_2
REMARK    2  A    between atoms: N_2  and  C_3
REMARK    3  A    between atoms: C_6  and  C_7
REMARK    4  A    between atoms: C_8  and  C_9
REMARK    5  A    between atoms: C_12  and  O_13
REMARK    6  A    between atoms: O_13  and  C_14
REMARK    7  A    between atoms: C_14  and  C_15
REMARK    8  A    between atoms: C_15  and  C_16
REMARK    9  A    between atoms: C_15  and  C_18
REMARK   10  A    between atoms: C_16  and  O_17
REMARK                            x       y       z     vdW  Elec       q    Type
REMARK                         _______ _______ _______ _____ _____    ______ ____
ROOT
ATOM      1  C   UNL     1       7.863   7.346  18.203  0.00  0.00    +0.000 A 
ATOM      2  C   UNL     1       7.960   6.175  18.958  0.00  0.00    +0.000 A 
ATOM      3  C   UNL     1       7.268   5.027  18.572  0.00  0.00    +0.000 A 
ATOM      4  C   UNL     1       6.470   5.030  17.427  0.00  0.00    +0.000 A 
ATOM      5  C   UNL     1       6.372   6.203  16.671  0.00  0.00    +0.000 A 
ATOM      6  C   UNL     1       7.068   7.360  17.055  0.00  0.00    +0.000 A 
ENDROOT
BRANCH   1   8
ATOM      7  C   UNL     1       8.362   9.737  18.160  0.00  0.00    +0.000 C 
ATOM      8  C   UNL     1       8.618   8.515  18.653  0.00  0.00    +0.000 C 
BRANCH   7  12
ATOM      9  C   UNL     1      10.865  13.157  18.970  0.00  0.00    +0.000 A 
ATOM     10  C   UNL     1      10.975  11.966  19.696  0.00  0.00    +0.000 A 
ATOM     11  C   UNL     1      10.181  10.852  19.397  0.00  0.00    +0.000 A 
ATOM     12  C   UNL     1       9.218  10.912  18.385  0.00  0.00    +0.000 A 
ATOM     13  C   UNL     1       9.102  12.098  17.654  0.00  0.00    +0.000 A 
ATOM     14  C   UNL     1       9.903  13.210  17.955  0.00  0.00    +0.000 A 
BRANCH   9  16
ATOM     15  C   UNL     1      11.709  15.408  18.484  0.00  0.00    +0.000 C 
ATOM     16  N   UNL     1      11.614  14.267  19.379  0.00  0.00    +0.000 N 
ATOM     17  H   UNL     1      12.518  13.995  19.756  0.00  0.00    +0.000 HD
ENDBRANCH   9  16
ENDBRANCH   7  12
ENDBRANCH   1   8
BRANCH   4  18
ATOM     18  O   UNL     1       5.750   3.952  16.970  0.00  0.00    +0.000 OA
BRANCH  18  19
ATOM     19  C   UNL     1       4.470   4.270  16.408  0.00  0.00    +0.000 C 
BRANCH  19  20
ATOM     20  C   UNL     1       3.319   3.731  17.264  0.00  0.00    +0.000 C 
BRANCH  20  21
ATOM     21  C   UNL     1       2.490   4.875  17.833  0.00  0.00    +0.000 C 
ATOM     22  F   UNL     1       1.183   4.662  17.512  0.00  0.00    +0.000 F 
ENDBRANCH  20  21
BRANCH  20  23
ATOM     23  C   UNL     1       3.811   2.801  18.369  0.00  0.00    +0.000 C 
BRANCH  23  24
ATOM     24  O   UNL     1       4.173   1.520  17.876  0.00  0.00    +0.000 OA
ATOM     25  H   UNL     1       3.569   0.866  18.281  0.00  0.00    +0.000 HD
ENDBRANCH  23  24
ENDBRANCH  20  23
ENDBRANCH  19  20
ENDBRANCH  18  19
ENDBRANCH   4  18
TORSDOF 9
ENDMDL
MODEL 8
REMARK VINA RESULT:      -7.1      1.235      1.564
REMARK  Name = 
REMARK  10 active torsions:
REMARK  status: ('A' for Active; 'I' for Inactive)
REMARK    1  A    between atoms: C_1  and  N_2
REMARK    2  A    between atoms: N_2  and  C_3
REMARK    3  A    between atoms: C_6  and  C_7
REMARK    4  A    between atoms: C_8  and  C_9
REMARK    5  A    between atoms: C_12  and  O_13
REMARK    6  A    between atoms: O_13  and  C_14
REMARK    7  A    between atoms: C_14  and  C_15
REMARK    8  A    between atoms: C_15  and  C_16
REMARK    9  A    between atoms: C_15  and  C_18
REMARK   10  A    between atoms: C_16  and  O_17
REMARK                            x       y       z     vdW  Elec       q    Type
REMARK                         _______ _______ _______ _____ _____    ______ ____
ROOT
ATOM      1  C   UNL     1       7.070   7.105  17.502  0.00  0.00    +0.000 A 
ATOM      2  C   UNL     1       5.766   7.131  17.002  0.00  0.00    +0.000 A 
ATOM      3  C   UNL     1       5.003   5.965  16.962  0.00  0.00    +0.000 A 
ATOM      4  C   UNL     1       5.527   4.756  17.421  0.00  0.00    +0.000 A 
ATOM      5  C   UNL     1       6.833   4.730  17.922  0.00  0.00    +0.000 A 
ATOM      6  C   UNL     1       7.606   5.901  17.965  0.00  0.00    +0.000 A 
ENDROOT
BRANCH   1   8
ATOM      7  C   UNL     1       8.431   8.781  18.645  0.00  0.00    +0.000 C 
ATOM      8  C   UNL     1       7.819   8.361  17.526  0.00  0.00    +0.000 C 
BRANCH   7  12
ATOM      9  C   UNL     1      10.075  12.718  19.295  0.00  0.00    +0.000 A 
ATOM     10  C   UNL     1      10.240  11.680  20.219  0.00  0.00    +0.000 A 
ATOM     11  C   UNL     1       9.732  10.398  19.978  0.00  0.00    +0.000 A 
ATOM     12  C   UNL     1       9.003  10.126  18.816  0.00  0.00    +0.000 A 
ATOM     13  C   UNL     1       8.834  11.156  17.886  0.00  0.00    +0.000 A 
ATOM     14  C   UNL     1       9.350  12.438  18.131  0.00  0.00    +0.000 A 
BRANCH   9  16
ATOM     15  C   UNL     1      11.939  14.292  19.549  0.00  0.00    +0.000 C 
ATOM     16  N   UNL     1      10.518  14.001  19.635  0.00  0.00    +0.000 N 
ATOM     17  H   UNL     1      10.110  14.322  20.509  0.00  0.00    +0.000 HD
ENDBRANCH   9  16
ENDBRANCH   7  12
ENDBRANCH   1   8
BRANCH   4  18
ATOM     18  O   UNL     1       4.854   3.558  17.419  0.00  0.00    +0.000 OA
BRANCH  18  19
ATOM     19  C   UNL     1       3.431   3.660  17.274  0.00  0.00    +0.000 C 
BRANCH  19  20
ATOM     20  C   UNL     1       2.698   2.542  18.025  0.00  0.00    +0.000 C 
BRANCH  20  21
ATOM     21  C   UNL     1       1.919   3.108  19.205  0.00  0.00    +0.000 C 
ATOM     22  F   UNL     1       1.392   2.070  19.913  0.00  0.00    +0.000 F 
ENDBRANCH  20  21
BRANCH  20  23
ATOM     23  C   UNL     1       3.645   1.431  18.469  0.00  0.00    +0.000 C 
BRANCH  23  24
ATOM     24  O   UNL     1       4.535   1.856  19.490  0.00  0.00    +0.000 OA
ATOM     25  H   UNL     1       4.711   1.086  20.067  0.00  0.00    +0.000 HD
ENDBRANCH  23  24
ENDBRANCH  20  23
ENDBRANCH  19  20
ENDBRANCH  18  19
ENDBRANCH   4  18
TORSDOF 9
ENDMDL
MODEL 9
REMARK VINA RESULT:      -7.1      1.030      1.479
REMARK  Name = 
REMARK  10 active torsions:
REMARK  status: ('A' for Active; 'I' for Inactive)
REMARK    1  A    between atoms: C_1  and  N_2
REMARK    2  A    between atoms: N_2  and  C_3
REMARK    3  A    between atoms: C_6  and  C_7
REMARK    4  A    between atoms: C_8  and  C_9
REMARK    5  A    between atoms: C_12  and  O_13
REMARK    6  A    between atoms: O_13  and  C_14
REMARK    7  A    between atoms: C_14  and  C_15
REMARK    8  A    between atoms: C_15  and  C_16
REMARK    9  A    between atoms: C_15  and  C_18
REMARK   10  A    between atoms: C_16  and  O_17
REMARK                            x       y       z     vdW  Elec       q    Type
REMARK                         _______ _______ _______ _____ _____    ______ ____
ROOT
ATOM      1  C   UNL     1       7.434   7.578  17.838  0.00  0.00    +0.000 A 
ATOM      2  C   UNL     1       7.897   6.525  18.632  0.00  0.00    +0.000 A 
ATOM      3  C   UNL     1       7.209   5.312  18.666  0.00  0.00    +0.000 A 
ATOM      4  C   UNL     1       6.051   5.130  17.909  0.00  0.00    +0.000 A 
ATOM      5  C   UNL     1       5.587   6.184  17.115  0.00  0.00    +0.000 A 
ATOM      6  C   UNL     1       6.276   7.406  17.076  0.00  0.00    +0.000 A 
ENDROOT
BRANCH   1   8
ATOM      7  C   UNL     1       8.880   9.218  18.926  0.00  0.00    +0.000 C 
ATOM      8  C   UNL     1       8.202   8.822  17.837  0.00  0.00    +0.000 C 
BRANCH   7  12
ATOM      9  C   UNL     1      10.736  13.099  19.268  0.00  0.00    +0.000 A 
ATOM     10  C   UNL     1      10.489  12.498  18.029  0.00  0.00    +0.000 A 
ATOM     11  C   UNL     1       9.853  11.255  17.932  0.00  0.00    +0.000 A 
ATOM     12  C   UNL     1       9.481  10.552  19.082  0.00  0.00    +0.000 A 
ATOM     13  C   UNL     1       9.722  11.145  20.325  0.00  0.00    +0.000 A 
ATOM     14  C   UNL     1      10.357  12.393  20.415  0.00  0.00    +0.000 A 
BRANCH   9  16
ATOM     15  C   UNL     1      10.909  15.466  18.650  0.00  0.00    +0.000 C 
ATOM     16  N   UNL     1      11.464  14.295  19.306  0.00  0.00    +0.000 N 
ATOM     17  H   UNL     1      12.443  14.148  19.074  0.00  0.00    +0.000 HD
ENDBRANCH   9  16
ENDBRANCH   7  12
ENDBRANCH   1   8
BRANCH   4  18
ATOM     18  O   UNL     1       5.307   3.976  17.881  0.00  0.00    +0.000 OA
BRANCH  18  19
ATOM     19  C   UNL     1       4.485   3.753  19.035  0.00  0.00    +0.000 C 
BRANCH  19  20
ATOM     20  C   UNL     1       2.992   3.883  18.708  0.00  0.00    +0.000 C 
BRANCH  20  21
ATOM     21  C   UNL     1       2.143   3.433  19.889  0.00  0.00    +0.000 C 
ATOM     22  F   UNL     1       0.870   3.884  19.702  0.00  0.00    +0.000 F 
ENDBRANCH  20  21
BRANCH  20  23
ATOM     23  C   UNL     1       2.615   3.130  17.436  0.00  0.00    +0.000 C 
BRANCH  23  24
ATOM     24  O   UNL     1       2.341   1.759  17.681  0.00  0.00    +0.000 OA
ATOM     25  H   UNL     1       1.533   1.713  18.230  0.00  0.00    +0.000 HD
ENDBRANCH  23  24
ENDBRANCH  20  23
ENDBRANCH  19  20
ENDBRANCH  18  19
ENDBRANCH   4  18
TORSDOF 9
ENDMDL
