MODEL 1
REMARK VINA RESULT:      -7.7      0.000      0.000
REMARK  Name = 
REMARK  7 active torsions:
REMARK  status: ('A' for Active; 'I' for Inactive)
REMARK    1  A    between atoms: C_1  and  C_2
REMARK    2  A    between atoms: C_5  and  C_6
REMARK    3  A    between atoms: C_6  and  O_8
REMARK    4  A    between atoms: C_10  and  N_11
REMARK    5  A    between atoms: C_12  and  C_14
REMARK    6  A    between atoms: C_14  and  C_15
REMARK    7  A    between atoms: C_15  and  C_16
REMARK                            x       y       z     vdW  Elec       q    Type
REMARK                         _______ _______ _______ _____ _____    ______ ____
ROOT
ATOM      1  N   UNL     1       5.093   4.645  17.799  0.00  0.00    +0.000 N 
ATOM      2  C   UNL     1       6.446   4.733  18.099  0.00  0.00    +0.000 C 
ATOM      3  O   UNL     1       6.924   4.923  19.215  0.00  0.00    +0.000 OA
ATOM      4  H   UNL     1       4.856   4.480  16.829  0.00  0.00    +0.000 HD
ENDROOT
BRANCH   1  11
ATOM      5  C   UNL     1       3.603   7.173  17.829  0.00  0.00    +0.000 C 
ATOM      6  C   UNL     1       3.272   6.003  18.715  0.00  0.00    +0.000 A 
ATOM      7  C   UNL     1       2.209   6.162  19.624  0.00  0.00    +0.000 A 
ATOM      8  C   UNL     1       1.863   5.142  20.507  0.00  0.00    +0.000 A 
ATOM      9  C   UNL     1       2.560   3.932  20.498  0.00  0.00    +0.000 A 
ATOM     10  C   UNL     1       3.614   3.765  19.586  0.00  0.00    +0.000 A 
ATOM     11  C   UNL     1       3.995   4.789  18.698  0.00  0.00    +0.000 A 
BRANCH   9  12
ATOM     12  C   UNL     1       2.129   2.905  21.498  0.00  0.00    +0.000 C 
ATOM     13  O   UNL     1       0.951   2.729  21.770  0.00  0.00    +0.000 OA
BRANCH  12  14
ATOM     14  O   UNL     1       3.096   2.174  22.088  0.00  0.00    +0.000 OA
ATOM     15  H   UNL     1       3.974   2.574  22.181  0.00  0.00    +0.000 HD
ENDBRANCH  12  14
ENDBRANCH   9  12
ENDBRANCH   1  11
BRANCH   2  16
ATOM     16  C   UNL     1       7.376   4.546  16.906  0.00  0.00    +0.000 C 
BRANCH  16  17
ATOM     17  C   UNL     1       7.088   5.513  15.757  0.00  0.00    +0.000 C 
BRANCH  17  18
ATOM     18  C   UNL     1       6.826   4.899  14.393  0.00  0.00    +0.000 A 
ATOM     19  C   UNL     1       7.657   5.082  13.279  0.00  0.00    +0.000 A 
ATOM     20  C   UNL     1       7.403   4.409  12.078  0.00  0.00    +0.000 A 
ATOM     21  C   UNL     1       6.308   3.556  11.967  0.00  0.00    +0.000 A 
ATOM     22  C   UNL     1       5.442   3.406  13.045  0.00  0.00    +0.000 A 
ATOM     23  C   UNL     1       5.694   4.079  14.244  0.00  0.00    +0.000 A 
ENDBRANCH  17  18
ENDBRANCH  16  17
ENDBRANCH   2  16
TORSDOF 6
ENDMDL
MODEL 2
REMARK VINA RESULT:      -7.4      4.870      6.577
REMARK  Name = 
REMARK  7 active torsions:
REMARK  status: ('A' for Active; 'I' for Inactive)
REMARK    1  A    between atoms: C_1  and  C_2
REMARK    2  A    between atoms: C_5  and  C_6
REMARK    3  A    between atoms: C_6  and  O_8
REMARK    4  A    between atoms: C_10  and  N_11
REMARK    5  A    between atoms: C_12  and  C_14
REMARK    6  A    between atoms: C_14  and  C_15
REMARK    7  A    between atoms: C_15  and  C_16
REMARK                            x       y       z     vdW  Elec       q    Type
REMARK                         _______ _______ _______ _____ _____    ______ ____
ROOT
ATOM      1  N   UNL     1       6.416   7.289  17.041  0.00  0.00    +0.000 N 
ATOM      2  C   UNL     1       7.514   7.482  17.870  0.00  0.00    +0.000 C 
ATOM      3  O   UNL     1       7.984   6.650  18.644  0.00  0.00    +0.000 OA
ATOM      4  H   UNL     1       6.153   8.070  16.454  0.00  0.00    +0.000 HD
ENDROOT
BRANCH   1  11
ATOM      5  C   UNL     1       7.331   5.044  15.387  0.00  0.00    +0.000 C 
ATOM      6  C   UNL     1       6.034   5.041  16.149  0.00  0.00    +0.000 A 
ATOM      7  C   UNL     1       5.214   3.903  16.023  0.00  0.00    +0.000 A 
ATOM      8  C   UNL     1       3.980   3.834  16.663  0.00  0.00    +0.000 A 
ATOM      9  C   UNL     1       3.536   4.894  17.458  0.00  0.00    +0.000 A 
ATOM     10  C   UNL     1       4.356   6.025  17.597  0.00  0.00    +0.000 A 
ATOM     11  C   UNL     1       5.598   6.126  16.942  0.00  0.00    +0.000 A 
BRANCH   9  12
ATOM     12  C   UNL     1       2.188   4.737  18.089  0.00  0.00    +0.000 C 
ATOM     13  O   UNL     1       1.258   4.211  17.495  0.00  0.00    +0.000 OA
BRANCH  12  14
ATOM     14  O   UNL     1       2.038   5.198  19.347  0.00  0.00    +0.000 OA
ATOM     15  H   UNL     1       1.958   6.155  19.472  0.00  0.00    +0.000 HD
ENDBRANCH  12  14
ENDBRANCH   9  12
ENDBRANCH   1  11
BRANCH   2  16
ATOM     16  C   UNL     1       8.170   8.852  17.749  0.00  0.00    +0.000 C 
BRANCH  16  17
ATOM     17  C   UNL     1       8.957   9.257  18.997  0.00  0.00    +0.000 C 
BRANCH  17  18
ATOM     18  C   UNL     1       9.465  10.687  19.052  0.00  0.00    +0.000 A 
ATOM     19  C   UNL     1      10.039  11.270  20.191  0.00  0.00    +0.000 A 
ATOM     20  C   UNL     1      10.570  12.565  20.141  0.00  0.00    +0.000 A 
ATOM     21  C   UNL     1      10.522  13.301  18.959  0.00  0.00    +0.000 A 
ATOM     22  C   UNL     1       9.905  12.758  17.836  0.00  0.00    +0.000 A 
ATOM     23  C   UNL     1       9.374  11.467  17.886  0.00  0.00    +0.000 A 
ENDBRANCH  17  18
ENDBRANCH  16  17
ENDBRANCH   2  16
TORSDOF 6
ENDMDL
MODEL 3
REMARK VINA RESULT:      -7.4      0.548      1.332
REMARK  Name = 
REMARK  7 active torsions:
REMARK  status: ('A' for Active; 'I' for Inactive)
REMARK    1  A    between atoms: C_1  and  C_2
REMARK    2  A    between atoms: C_5  and  C_6
REMARK    3  A    between atoms: C_6  and  O_8
REMARK    4  A    between atoms: C_10  and  N_11
REMARK    5  A    between atoms: C_12  and  C_14
REMARK    6  A    between atoms: C_14  and  C_15
REMARK    7  A    between atoms: C_15  and  C_16
REMARK                            x       y       z     vdW  Elec       q    Type
REMARK                         _______ _______ _______ _____ _____    ______ ____
ROOT
ATOM      1  N   UNL     1       4.848   5.136  17.885  0.00  0.00    +0.000 N 
ATOM      2  C   UNL     1       6.159   4.834  18.232  0.00  0.00    +0.000 C 
ATOM      3  O   UNL     1       6.563   4.587  19.366  0.00  0.00    +0.000 OA
ATOM      4  H   UNL     1       4.671   5.311  16.904  0.00  0.00    +0.000 HD
ENDROOT
BRANCH   1  11
ATOM      5  C   UNL     1       3.435   7.704  18.036  0.00  0.00    +0.000 C 
ATOM      6  C   UNL     1       3.041   6.489  18.833  0.00  0.00    +0.000 A 
ATOM      7  C   UNL     1       1.954   6.622  19.716  0.00  0.00    +0.000 A 
ATOM      8  C   UNL     1       1.548   5.559  20.519  0.00  0.00    +0.000 A 
ATOM      9  C   UNL     1       2.208   4.329  20.451  0.00  0.00    +0.000 A 
ATOM     10  C   UNL     1       3.286   4.189  19.562  0.00  0.00    +0.000 A 
ATOM     11  C   UNL     1       3.727   5.256  18.756  0.00  0.00    +0.000 A 
BRANCH   9  12
ATOM     12  C   UNL     1       1.714   3.254  21.366  0.00  0.00    +0.000 C 
ATOM     13  O   UNL     1       2.383   2.854  22.307  0.00  0.00    +0.000 OA
BRANCH  12  14
ATOM     14  O   UNL     1       0.493   2.742  21.114  0.00  0.00    +0.000 OA
ATOM     15  H   UNL     1       0.003   3.089  20.354  0.00  0.00    +0.000 HD
ENDBRANCH  12  14
ENDBRANCH   9  12
ENDBRANCH   1  11
BRANCH   2  16
ATOM     16  C   UNL     1       7.135   4.795  17.062  0.00  0.00    +0.000 C 
BRANCH  16  17
ATOM     17  C   UNL     1       6.667   5.611  15.856  0.00  0.00    +0.000 C 
BRANCH  17  18
ATOM     18  C   UNL     1       6.715   4.924  14.503  0.00  0.00    +0.000 A 
ATOM     19  C   UNL     1       5.879   3.861  14.134  0.00  0.00    +0.000 A 
ATOM     20  C   UNL     1       5.917   3.338  12.836  0.00  0.00    +0.000 A 
ATOM     21  C   UNL     1       6.800   3.857  11.893  0.00  0.00    +0.000 A 
ATOM     22  C   UNL     1       7.677   4.874  12.258  0.00  0.00    +0.000 A 
ATOM     23  C   UNL     1       7.640   5.396  13.554  0.00  0.00    +0.000 A 
ENDBRANCH  17  18
ENDBRANCH  16  17
ENDBRANCH   2  16
TORSDOF 6
ENDMDL
MODEL 4
REMARK VINA RESULT:      -7.4      4.853      6.501
REMARK  Name = 
REMARK  7 active torsions:
REMARK  status: ('A' for Active; 'I' for Inactive)
REMARK    1  A    between atoms: C_1  and  C_2
REMARK    2  A    between atoms: C_5  and  C_6
REMARK    3  A    between atoms: C_6  and  O_8
REMARK    4  A    between atoms: C_10  and  N_11
REMARK    5  A    between atoms: C_12  and  C_14
REMARK    6  A    between atoms: C_14  and  C_15
REMARK    7  A    between atoms: C_15  and  C_16
REMARK                            x       y       z     vdW  Elec       q    Type
REMARK                         _______ _______ _______ _____ _____    ______ ____
ROOT
ATOM      1  N   UNL     1       6.408   7.299  17.016  0.00  0.00    +0.000 N 
ATOM      2  C   UNL     1       7.526   7.511  17.812  0.00  0.00    +0.000 C 
ATOM      3  O   UNL     1       7.985   6.718  18.632  0.00  0.00    +0.000 OA
ATOM      4  H   UNL     1       6.158   8.048  16.382  0.00  0.00    +0.000 HD
ENDROOT
BRANCH   1  11
ATOM      5  C   UNL     1       7.073   5.036  15.269  0.00  0.00    +0.000 C 
ATOM      6  C   UNL     1       5.868   5.064  16.171  0.00  0.00    +0.000 A 
ATOM      7  C   UNL     1       5.010   3.950  16.136  0.00  0.00    +0.000 A 
ATOM      8  C   UNL     1       3.852   3.912  16.910  0.00  0.00    +0.000 A 
ATOM      9  C   UNL     1       3.528   4.980  17.750  0.00  0.00    +0.000 A 
ATOM     10  C   UNL     1       4.389   6.089  17.797  0.00  0.00    +0.000 A 
ATOM     11  C   UNL     1       5.553   6.158  17.008  0.00  0.00    +0.000 A 
BRANCH   9  12
ATOM     12  C   UNL     1       2.256   4.858  18.527  0.00  0.00    +0.000 C 
ATOM     13  O   UNL     1       1.375   4.077  18.197  0.00  0.00    +0.000 OA
BRANCH  12  14
ATOM     14  O   UNL     1       2.117   5.644  19.613  0.00  0.00    +0.000 OA
ATOM     15  H   UNL     1       2.829   5.640  20.269  0.00  0.00    +0.000 HD
ENDBRANCH  12  14
ENDBRANCH   9  12
ENDBRANCH   1  11
BRANCH   2  16
ATOM     16  C   UNL     1       8.222   8.848  17.590  0.00  0.00    +0.000 C 
BRANCH  16  17
ATOM     17  C   UNL     1       8.833   9.431  18.865  0.00  0.00    +0.000 C 
BRANCH  17  18
ATOM     18  C   UNL     1       9.434  10.822  18.763  0.00  0.00    +0.000 A 
ATOM     19  C   UNL     1       8.966  11.816  17.892  0.00  0.00    +0.000 A 
ATOM     20  C   UNL     1       9.511  13.106  17.919  0.00  0.00    +0.000 A 
ATOM     21  C   UNL     1      10.540  13.417  18.804  0.00  0.00    +0.000 A 
ATOM     22  C   UNL     1      11.055  12.427  19.635  0.00  0.00    +0.000 A 
ATOM     23  C   UNL     1      10.513  11.139  19.608  0.00  0.00    +0.000 A 
ENDBRANCH  17  18
ENDBRANCH  16  17
ENDBRANCH   2  16
TORSDOF 6
ENDMDL
MODEL 5
REMARK VINA RESULT:      -7.4      4.136      7.998
REMARK  Name = 
REMARK  7 active torsions:
REMARK  status: ('A' for Active; 'I' for Inactive)
REMARK    1  A    between atoms: C_1  and  C_2
REMARK    2  A    between atoms: C_5  and  C_6
REMARK    3  A    between atoms: C_6  and  O_8
REMARK    4  A    between atoms: C_10  and  N_11
REMARK    5  A    between atoms: C_12  and  C_14
REMARK    6  A    between atoms: C_14  and  C_15
REMARK    7  A    between atoms: C_15  and  C_16
REMARK                            x       y       z     vdW  Elec       q    Type
REMARK                         _______ _______ _______ _____ _____    ______ ____
ROOT
ATOM      1  N   UNL     1       2.753   6.830  18.757  0.00  0.00    +0.000 N 
ATOM      2  C   UNL     1       2.327   8.073  18.306  0.00  0.00    +0.000 C 
ATOM      3  O   UNL     1       2.539   8.544  17.190  0.00  0.00    +0.000 OA
ATOM      4  H   UNL     1       2.493   6.581  19.703  0.00  0.00    +0.000 HD
ENDROOT
BRANCH   1  11
ATOM      5  C   UNL     1       1.506   4.318  17.894  0.00  0.00    +0.000 C 
ATOM      6  C   UNL     1       2.946   4.665  17.630  0.00  0.00    +0.000 A 
ATOM      7  C   UNL     1       3.729   3.705  16.960  0.00  0.00    +0.000 A 
ATOM      8  C   UNL     1       5.081   3.930  16.711  0.00  0.00    +0.000 A 
ATOM      9  C   UNL     1       5.684   5.124  17.111  0.00  0.00    +0.000 A 
ATOM     10  C   UNL     1       4.904   6.089  17.769  0.00  0.00    +0.000 A 
ATOM     11  C   UNL     1       3.541   5.875  18.050  0.00  0.00    +0.000 A 
BRANCH   9  12
ATOM     12  C   UNL     1       7.145   5.266  16.819  0.00  0.00    +0.000 C 
ATOM     13  O   UNL     1       7.944   4.384  17.097  0.00  0.00    +0.000 OA
BRANCH  12  14
ATOM     14  O   UNL     1       7.548   6.410  16.230  0.00  0.00    +0.000 OA
ATOM     15  H   UNL     1       8.399   6.405  15.767  0.00  0.00    +0.000 HD
ENDBRANCH  12  14
ENDBRANCH   9  12
ENDBRANCH   1  11
BRANCH   2  16
ATOM     16  C   UNL     1       1.506   8.869  19.314  0.00  0.00    +0.000 C 
BRANCH  16  17
ATOM     17  C   UNL     1       1.134  10.268  18.820  0.00  0.00    +0.000 C 
BRANCH  17  18
ATOM     18  C   UNL     1      -0.344  10.556  18.628  0.00  0.00    +0.000 A 
ATOM     19  C   UNL     1      -1.057  11.514  19.362  0.00  0.00    +0.000 A 
ATOM     20  C   UNL     1      -2.398  11.790  19.066  0.00  0.00    +0.000 A 
ATOM     21  C   UNL     1      -3.050  11.104  18.045  0.00  0.00    +0.000 A 
ATOM     22  C   UNL     1      -2.374  10.110  17.344  0.00  0.00    +0.000 A 
ATOM     23  C   UNL     1      -1.036   9.833  17.640  0.00  0.00    +0.000 A 
ENDBRANCH  17  18
ENDBRANCH  16  17
ENDBRANCH   2  16
TORSDOF 6
ENDMDL
MODEL 6
REMARK VINA RESULT:      -7.3      4.148      7.958
REMARK  Name = 
REMARK  7 active torsions:
REMARK  status: ('A' for Active; 'I' for Inactive)
REMARK    1  A    between atoms: C_1  and  C_2
REMARK    2  A    between atoms: C_5  and  C_6
REMARK    3  A    between atoms: C_6  and  O_8
REMARK    4  A    between atoms: C_10  and  N_11
REMARK    5  A    between atoms: C_12  and  C_14
REMARK    6  A    between atoms: C_14  and  C_15
REMARK    7  A    between atoms: C_15  and  C_16
REMARK                            x       y       z     vdW  Elec       q    Type
REMARK                         _______ _______ _______ _____ _____    ______ ____
ROOT
ATOM      1  N   UNL     1       2.656   6.799  18.709  0.00  0.00    +0.000 N 
ATOM      2  C   UNL     1       2.308   8.071  18.271  0.00  0.00    +0.000 C 
ATOM      3  O   UNL     1       2.592   8.558  17.179  0.00  0.00    +0.000 OA
ATOM      4  H   UNL     1       2.342   6.541  19.635  0.00  0.00    +0.000 HD
ENDROOT
BRANCH   1  11
ATOM      5  C   UNL     1       1.387   4.272  17.923  0.00  0.00    +0.000 C 
ATOM      6  C   UNL     1       2.825   4.607  17.630  0.00  0.00    +0.000 A 
ATOM      7  C   UNL     1       3.594   3.629  16.972  0.00  0.00    +0.000 A 
ATOM      8  C   UNL     1       4.942   3.843  16.697  0.00  0.00    +0.000 A 
ATOM      9  C   UNL     1       5.556   5.045  17.060  0.00  0.00    +0.000 A 
ATOM     10  C   UNL     1       4.789   6.027  17.707  0.00  0.00    +0.000 A 
ATOM     11  C   UNL     1       3.430   5.825  18.013  0.00  0.00    +0.000 A 
BRANCH   9  12
ATOM     12  C   UNL     1       7.012   5.174  16.743  0.00  0.00    +0.000 C 
ATOM     13  O   UNL     1       7.417   5.947  15.887  0.00  0.00    +0.000 OA
BRANCH  12  14
ATOM     14  O   UNL     1       7.868   4.403  17.444  0.00  0.00    +0.000 OA
ATOM     15  H   UNL     1       7.911   3.460  17.225  0.00  0.00    +0.000 HD
ENDBRANCH  12  14
ENDBRANCH   9  12
ENDBRANCH   1  11
BRANCH   2  16
ATOM     16  C   UNL     1       1.480   8.881  19.262  0.00  0.00    +0.000 C 
BRANCH  16  17
ATOM     17  C   UNL     1       1.122  10.278  18.751  0.00  0.00    +0.000 C 
BRANCH  17  18
ATOM     18  C   UNL     1      -0.343  10.544  18.454  0.00  0.00    +0.000 A 
ATOM     19  C   UNL     1      -1.092   9.830  17.507  0.00  0.00    +0.000 A 
ATOM     20  C   UNL     1      -2.463  10.069  17.352  0.00  0.00    +0.000 A 
ATOM     21  C   UNL     1      -3.102  11.032  18.128  0.00  0.00    +0.000 A 
ATOM     22  C   UNL     1      -2.363  11.788  19.032  0.00  0.00    +0.000 A 
ATOM     23  C   UNL     1      -0.994  11.552  19.186  0.00  0.00    +0.000 A 
ENDBRANCH  17  18
ENDBRANCH  16  17
ENDBRANCH   2  16
TORSDOF 6
ENDMDL
MODEL 7
REMARK VINA RESULT:      -7.3      4.707      6.200
REMARK  Name = 
REMARK  7 active torsions:
REMARK  status: ('A' for Active; 'I' for Inactive)
REMARK    1  A    between atoms: C_1  and  C_2
REMARK    2  A    between atoms: C_5  and  C_6
REMARK    3  A    between atoms: C_6  and  O_8
REMARK    4  A    between atoms: C_10  and  N_11
REMARK    5  A    between atoms: C_12  and  C_14
REMARK    6  A    between atoms: C_14  and  C_15
REMARK    7  A    between atoms: C_15  and  C_16
REMARK                            x       y       z     vdW  Elec       q    Type
REMARK                         _______ _______ _______ _____ _____    ______ ____
ROOT
ATOM      1  N   UNL     1       6.481   7.184  17.152  0.00  0.00    +0.000 N 
ATOM      2  C   UNL     1       7.613   7.558  17.865  0.00  0.00    +0.000 C 
ATOM      3  O   UNL     1       8.171   6.886  18.730  0.00  0.00    +0.000 OA
ATOM      4  H   UNL     1       6.142   7.846  16.465  0.00  0.00    +0.000 HD
ENDROOT
BRANCH   1  11
ATOM      5  C   UNL     1       6.540   5.197  14.993  0.00  0.00    +0.000 C 
ATOM      6  C   UNL     1       5.748   5.024  16.261  0.00  0.00    +0.000 A 
ATOM      7  C   UNL     1       4.974   3.855  16.385  0.00  0.00    +0.000 A 
ATOM      8  C   UNL     1       4.181   3.634  17.508  0.00  0.00    +0.000 A 
ATOM      9  C   UNL     1       4.150   4.570  18.545  0.00  0.00    +0.000 A 
ATOM     10  C   UNL     1       4.929   5.733  18.431  0.00  0.00    +0.000 A 
ATOM     11  C   UNL     1       5.722   5.986  17.296  0.00  0.00    +0.000 A 
BRANCH   9  12
ATOM     12  C   UNL     1       3.253   4.257  19.701  0.00  0.00    +0.000 C 
ATOM     13  O   UNL     1       2.855   3.121  19.916  0.00  0.00    +0.000 OA
BRANCH  12  14
ATOM     14  O   UNL     1       2.901   5.281  20.505  0.00  0.00    +0.000 OA
ATOM     15  H   UNL     1       2.704   5.082  21.432  0.00  0.00    +0.000 HD
ENDBRANCH  12  14
ENDBRANCH   9  12
ENDBRANCH   1  11
BRANCH   2  16
ATOM     16  C   UNL     1       8.187   8.917  17.483  0.00  0.00    +0.000 C 
BRANCH  16  17
ATOM     17  C   UNL     1       8.845   9.647  18.655  0.00  0.00    +0.000 C 
BRANCH  17  18
ATOM     18  C   UNL     1       9.546  10.956  18.340  0.00  0.00    +0.000 A 
ATOM     19  C   UNL     1      10.933  11.142  18.425  0.00  0.00    +0.000 A 
ATOM     20  C   UNL     1      11.518  12.351  18.030  0.00  0.00    +0.000 A 
ATOM     21  C   UNL     1      10.727  13.396  17.559  0.00  0.00    +0.000 A 
ATOM     22  C   UNL     1       9.344  13.249  17.522  0.00  0.00    +0.000 A 
ATOM     23  C   UNL     1       8.759  12.042  17.918  0.00  0.00    +0.000 A 
ENDBRANCH  17  18
ENDBRANCH  16  17
ENDBRANCH   2  16
TORSDOF 6
ENDMDL
MODEL 8
REMARK VINA RESULT:      -7.3      3.811      8.494
REMARK  Name = 
REMARK  7 active torsions:
REMARK  status: ('A' for Active; 'I' for Inactive)
REMARK    1  A    between atoms: C_1  and  C_2
REMARK    2  A    between atoms: C_5  and  C_6
REMARK    3  A    between atoms: C_6  and  O_8
REMARK    4  A    between atoms: C_10  and  N_11
REMARK    5  A    between atoms: C_12  and  C_14
REMARK    6  A    between atoms: C_14  and  C_15
REMARK    7  A    between atoms: C_15  and  C_16
REMARK                            x       y       z     vdW  Elec       q    Type
REMARK                         _______ _______ _______ _____ _____    ______ ____
ROOT
ATOM      1  N   UNL     1       3.088   6.069  19.780  0.00  0.00    +0.000 N 
ATOM      2  C   UNL     1       2.356   7.247  19.714  0.00  0.00    +0.000 C 
ATOM      3  O   UNL     1       2.099   7.877  18.690  0.00  0.00    +0.000 OA
ATOM      4  H   UNL     1       3.209   5.665  20.700  0.00  0.00    +0.000 HD
ENDROOT
BRANCH   1  11
ATOM      5  C   UNL     1       1.564   4.026  18.325  0.00  0.00    +0.000 C 
ATOM      6  C   UNL     1       2.986   4.393  17.996  0.00  0.00    +0.000 A 
ATOM      7  C   UNL     1       3.612   3.685  16.953  0.00  0.00    +0.000 A 
ATOM      8  C   UNL     1       4.938   3.935  16.611  0.00  0.00    +0.000 A 
ATOM      9  C   UNL     1       5.672   4.910  17.292  0.00  0.00    +0.000 A 
ATOM     10  C   UNL     1       5.048   5.627  18.325  0.00  0.00    +0.000 A 
ATOM     11  C   UNL     1       3.715   5.377  18.702  0.00  0.00    +0.000 A 
BRANCH   9  12
ATOM     12  C   UNL     1       7.095   5.093  16.868  0.00  0.00    +0.000 C 
ATOM     13  O   UNL     1       7.448   6.056  16.203  0.00  0.00    +0.000 OA
BRANCH  12  14
ATOM     14  O   UNL     1       7.980   4.151  17.253  0.00  0.00    +0.000 OA
ATOM     15  H   UNL     1       8.290   3.521  16.586  0.00  0.00    +0.000 HD
ENDBRANCH  12  14
ENDBRANCH   9  12
ENDBRANCH   1  11
BRANCH   2  16
ATOM     16  C   UNL     1       1.825   7.743  21.054  0.00  0.00    +0.000 C 
BRANCH  16  17
ATOM     17  C   UNL     1       0.312   7.963  21.061  0.00  0.00    +0.000 C 
BRANCH  17  18
ATOM     18  C   UNL     1      -0.177   9.349  21.443  0.00  0.00    +0.000 A 
ATOM     19  C   UNL     1      -0.281  10.419  20.542  0.00  0.00    +0.000 A 
ATOM     20  C   UNL     1      -0.828  11.643  20.945  0.00  0.00    +0.000 A 
ATOM     21  C   UNL     1      -1.265  11.822  22.255  0.00  0.00    +0.000 A 
ATOM     22  C   UNL     1      -1.117  10.790  23.176  0.00  0.00    +0.000 A 
ATOM     23  C   UNL     1      -0.570   9.568  22.775  0.00  0.00    +0.000 A 
ENDBRANCH  17  18
ENDBRANCH  16  17
ENDBRANCH   2  16
TORSDOF 6
ENDMDL
MODEL 9
REMARK VINA RESULT:      -7.2      4.558      6.146
REMARK  Name = 
REMARK  7 active torsions:
REMARK  status: ('A' for Active; 'I' for Inactive)
REMARK    1  A    between atoms: C_1  and  C_2
REMARK    2  A    between atoms: C_5  and  C_6
REMARK    3  A    between atoms: C_6  and  O_8
REMARK    4  A    between atoms: C_10  and  N_11
REMARK    5  A    between atoms: C_12  and  C_14
REMARK    6  A    between atoms: C_14  and  C_15
REMARK    7  A    between atoms: C_15  and  C_16
REMARK                            x       y       z     vdW  Elec       q    Type
REMARK                         _______ _______ _______ _____ _____    ______ ____
ROOT
ATOM      1  N   UNL     1       6.841   6.280  18.440  0.00  0.00    +0.000 N 
ATOM      2  C   UNL     1       7.096   7.414  17.678  0.00  0.00    +0.000 C 
ATOM      3  O   UNL     1       6.382   7.848  16.776  0.00  0.00    +0.000 OA
ATOM      4  H   UNL     1       7.524   6.054  19.152  0.00  0.00    +0.000 HD
ENDROOT
BRANCH   1  11
ATOM      5  C   UNL     1       6.812   4.374  16.208  0.00  0.00    +0.000 C 
ATOM      6  C   UNL     1       5.723   4.459  17.244  0.00  0.00    +0.000 A 
ATOM      7  C   UNL     1       4.625   3.592  17.098  0.00  0.00    +0.000 A 
ATOM      8  C   UNL     1       3.556   3.632  17.989  0.00  0.00    +0.000 A 
ATOM      9  C   UNL     1       3.561   4.530  19.059  0.00  0.00    +0.000 A 
ATOM     10  C   UNL     1       4.661   5.389  19.215  0.00  0.00    +0.000 A 
ATOM     11  C   UNL     1       5.742   5.381  18.315  0.00  0.00    +0.000 A 
BRANCH   9  12
ATOM     12  C   UNL     1       2.360   4.514  19.951  0.00  0.00    +0.000 C 
ATOM     13  O   UNL     1       1.358   3.874  19.668  0.00  0.00    +0.000 OA
BRANCH  12  14
ATOM     14  O   UNL     1       2.427   5.234  21.089  0.00  0.00    +0.000 OA
ATOM     15  H   UNL     1       2.131   6.156  21.060  0.00  0.00    +0.000 HD
ENDBRANCH  12  14
ENDBRANCH   9  12
ENDBRANCH   1  11
BRANCH   2  16
ATOM     16  C   UNL     1       8.371   8.160  18.052  0.00  0.00    +0.000 C 
BRANCH  16  17
ATOM     17  C   UNL     1       8.218   9.681  18.001  0.00  0.00    +0.000 C 
BRANCH  17  18
ATOM     18  C   UNL     1       9.336  10.503  18.618  0.00  0.00    +0.000 A 
ATOM     19  C   UNL     1      10.359  11.115  17.880  0.00  0.00    +0.000 A 
ATOM     20  C   UNL     1      11.303  11.935  18.509  0.00  0.00    +0.000 A 
ATOM     21  C   UNL     1      11.250  12.144  19.884  0.00  0.00    +0.000 A 
ATOM     22  C   UNL     1      10.276  11.499  20.640  0.00  0.00    +0.000 A 
ATOM     23  C   UNL     1       9.333  10.679  20.013  0.00  0.00    +0.000 A 
ENDBRANCH  17  18
ENDBRANCH  16  17
ENDBRANCH   2  16
TORSDOF 6
ENDMDL
