MODEL 1
REMARK VINA RESULT:      -7.0      0.000      0.000
REMARK  Name = 
REMARK  9 active torsions:
REMARK  status: ('A' for Active; 'I' for Inactive)
REMARK    1  A    between atoms: C_1  and  C_2
REMARK    2  A    between atoms: C_2  and  C_3
REMARK    3  A    between atoms: C_3  and  C_4
REMARK    4  A    between atoms: C_3  and  C_5
REMARK    5  A    between atoms: C_12  and  O_14
REMARK    6  A    between atoms: O_14  and  C_15
REMARK    7  A    between atoms: C_15  and  C_16
REMARK    8  A    between atoms: C_15  and  C_17
REMARK    9  A    between atoms: C_15  and  C_18
REMARK                            x       y       z     vdW  Elec       q    Type
REMARK                         _______ _______ _______ _____ _____    ______ ____
ROOT
ATOM      1  C   UNL     1       4.286   3.933  19.658  0.00  0.00    +0.000 C 
ATOM      2  C   UNL     1       4.351   2.379  19.788  0.00  0.00    +0.000 C 
ATOM      3  O   UNL     1       4.885   1.807  20.738  0.00  0.00    +0.000 OA
ATOM      4  N   UNL     1       3.580   1.634  18.917  0.00  0.00    +0.000 N 
ATOM      5  C   UNL     1       3.432   2.055  17.544  0.00  0.00    +0.000 C 
ATOM      6  C   UNL     1       3.218   3.557  17.412  0.00  0.00    +0.000 C 
ATOM      7  N   UNL     1       4.170   4.311  18.224  0.00  0.00    +0.000 N 
ATOM      8  C   UNL     1       4.773   5.408  17.637  0.00  0.00    +0.000 C 
ATOM      9  O   UNL     1       4.502   5.748  16.490  0.00  0.00    +0.000 OA
ATOM     10  H   UNL     1       3.647   0.638  19.095  0.00  0.00    +0.000 HD
ENDROOT
BRANCH   1  11
ATOM     11  C   UNL     1       3.076   4.463  20.497  0.00  0.00    +0.000 C 
ATOM     12  C   UNL     1       2.375   5.663  19.834  0.00  0.00    +0.000 C 
BRANCH  11  14
ATOM     13  C   UNL     1       0.714   3.415  20.116  0.00  0.00    +0.000 C 
ATOM     14  C   UNL     1       2.027   3.396  20.888  0.00  0.00    +0.000 C 
ENDBRANCH  11  14
ENDBRANCH   1  11
BRANCH   8  15
ATOM     15  O   UNL     1       5.676   6.051  18.417  0.00  0.00    +0.000 OA
BRANCH  15  16
ATOM     16  C   UNL     1       7.090   5.943  18.070  0.00  0.00    +0.000 C 
ATOM     17  C   UNL     1       7.594   7.214  17.371  0.00  0.00    +0.000 C 
ATOM     18  C   UNL     1       7.869   5.799  19.390  0.00  0.00    +0.000 C 
ATOM     19  C   UNL     1       7.363   4.675  17.241  0.00  0.00    +0.000 C 
ENDBRANCH  15  16
ENDBRANCH   8  15
TORSDOF 4
ENDMDL
MODEL 2
REMARK VINA RESULT:      -6.9      0.042      1.012
REMARK  Name = 
REMARK  9 active torsions:
REMARK  status: ('A' for Active; 'I' for Inactive)
REMARK    1  A    between atoms: C_1  and  C_2
REMARK    2  A    between atoms: C_2  and  C_3
REMARK    3  A    between atoms: C_3  and  C_4
REMARK    4  A    between atoms: C_3  and  C_5
REMARK    5  A    between atoms: C_12  and  O_14
REMARK    6  A    between atoms: O_14  and  C_15
REMARK    7  A    between atoms: C_15  and  C_16
REMARK    8  A    between atoms: C_15  and  C_17
REMARK    9  A    between atoms: C_15  and  C_18
REMARK                            x       y       z     vdW  Elec       q    Type
REMARK                         _______ _______ _______ _____ _____    ______ ____
ROOT
ATOM      1  C   UNL     1       4.293   3.953  19.655  0.00  0.00    +0.000 C 
ATOM      2  C   UNL     1       4.370   2.400  19.789  0.00  0.00    +0.000 C 
ATOM      3  O   UNL     1       4.912   1.835  20.738  0.00  0.00    +0.000 OA
ATOM      4  N   UNL     1       3.601   1.647  18.923  0.00  0.00    +0.000 N 
ATOM      5  C   UNL     1       3.443   2.063  17.550  0.00  0.00    +0.000 C 
ATOM      6  C   UNL     1       3.217   3.562  17.414  0.00  0.00    +0.000 C 
ATOM      7  N   UNL     1       4.168   4.326  18.221  0.00  0.00    +0.000 N 
ATOM      8  C   UNL     1       4.760   5.426  17.628  0.00  0.00    +0.000 C 
ATOM      9  O   UNL     1       4.481   5.760  16.481  0.00  0.00    +0.000 OA
ATOM     10  H   UNL     1       3.676   0.652  19.104  0.00  0.00    +0.000 HD
ENDROOT
BRANCH   1  11
ATOM     11  C   UNL     1       3.083   4.476  20.498  0.00  0.00    +0.000 C 
ATOM     12  C   UNL     1       2.383   5.683  19.846  0.00  0.00    +0.000 C 
BRANCH  11  14
ATOM     13  C   UNL     1       0.712   3.447  20.118  0.00  0.00    +0.000 C 
ATOM     14  C   UNL     1       2.033   3.406  20.877  0.00  0.00    +0.000 C 
ENDBRANCH  11  14
ENDBRANCH   1  11
BRANCH   8  15
ATOM     15  O   UNL     1       5.662   6.078  18.402  0.00  0.00    +0.000 OA
BRANCH  15  16
ATOM     16  C   UNL     1       7.081   5.897  18.111  0.00  0.00    +0.000 C 
ATOM     17  C   UNL     1       7.309   4.722  17.149  0.00  0.00    +0.000 C 
ATOM     18  C   UNL     1       7.565   7.176  17.406  0.00  0.00    +0.000 C 
ATOM     19  C   UNL     1       7.899   5.755  19.408  0.00  0.00    +0.000 C 
ENDBRANCH  15  16
ENDBRANCH   8  15
TORSDOF 4
ENDMDL
MODEL 3
REMARK VINA RESULT:      -6.8      1.026      1.678
REMARK  Name = 
REMARK  9 active torsions:
REMARK  status: ('A' for Active; 'I' for Inactive)
REMARK    1  A    between atoms: C_1  and  C_2
REMARK    2  A    between atoms: C_2  and  C_3
REMARK    3  A    between atoms: C_3  and  C_4
REMARK    4  A    between atoms: C_3  and  C_5
REMARK    5  A    between atoms: C_12  and  O_14
REMARK    6  A    between atoms: O_14  and  C_15
REMARK    7  A    between atoms: C_15  and  C_16
REMARK    8  A    between atoms: C_15  and  C_17
REMARK    9  A    between atoms: C_15  and  C_18
REMARK                            x       y       z     vdW  Elec       q    Type
REMARK                         _______ _______ _______ _____ _____    ______ ____
ROOT
ATOM      1  C   UNL     1       3.481   4.405  19.328  0.00  0.00    +0.000 C 
ATOM      2  C   UNL     1       3.210   2.969  19.880  0.00  0.00    +0.000 C 
ATOM      3  O   UNL     1       3.307   2.679  21.071  0.00  0.00    +0.000 OA
ATOM      4  N   UNL     1       2.621   2.059  19.023  0.00  0.00    +0.000 N 
ATOM      5  C   UNL     1       2.986   2.041  17.627  0.00  0.00    +0.000 C 
ATOM      6  C   UNL     1       3.109   3.439  17.035  0.00  0.00    +0.000 C 
ATOM      7  N   UNL     1       3.887   4.324  17.900  0.00  0.00    +0.000 N 
ATOM      8  C   UNL     1       4.837   5.126  17.294  0.00  0.00    +0.000 C 
ATOM      9  O   UNL     1       5.002   5.112  16.078  0.00  0.00    +0.000 OA
ATOM     10  H   UNL     1       2.441   1.167  19.470  0.00  0.00    +0.000 HD
ENDROOT
BRANCH   1  11
ATOM     11  C   UNL     1       2.193   5.273  19.517  0.00  0.00    +0.000 C 
ATOM     12  C   UNL     1       1.306   4.774  20.673  0.00  0.00    +0.000 C 
BRANCH  11  14
ATOM     13  C   UNL     1       2.378   7.622  18.390  0.00  0.00    +0.000 C 
ATOM     14  C   UNL     1       2.438   6.792  19.666  0.00  0.00    +0.000 C 
ENDBRANCH  11  14
ENDBRANCH   1  11
BRANCH   8  15
ATOM     15  O   UNL     1       5.558   5.900  18.142  0.00  0.00    +0.000 OA
BRANCH  15  16
ATOM     16  C   UNL     1       7.015   5.845  18.058  0.00  0.00    +0.000 C 
ATOM     17  C   UNL     1       7.588   7.128  17.439  0.00  0.00    +0.000 C 
ATOM     18  C   UNL     1       7.547   5.746  19.498  0.00  0.00    +0.000 C 
ATOM     19  C   UNL     1       7.481   4.581  17.312  0.00  0.00    +0.000 C 
ENDBRANCH  15  16
ENDBRANCH   8  15
TORSDOF 4
ENDMDL
MODEL 4
REMARK VINA RESULT:      -6.8      1.020      1.959
REMARK  Name = 
REMARK  9 active torsions:
REMARK  status: ('A' for Active; 'I' for Inactive)
REMARK    1  A    between atoms: C_1  and  C_2
REMARK    2  A    between atoms: C_2  and  C_3
REMARK    3  A    between atoms: C_3  and  C_4
REMARK    4  A    between atoms: C_3  and  C_5
REMARK    5  A    between atoms: C_12  and  O_14
REMARK    6  A    between atoms: O_14  and  C_15
REMARK    7  A    between atoms: C_15  and  C_16
REMARK    8  A    between atoms: C_15  and  C_17
REMARK    9  A    between atoms: C_15  and  C_18
REMARK                            x       y       z     vdW  Elec       q    Type
REMARK                         _______ _______ _______ _____ _____    ______ ____
ROOT
ATOM      1  C   UNL     1       3.487   4.391  19.352  0.00  0.00    +0.000 C 
ATOM      2  C   UNL     1       3.212   2.956  19.904  0.00  0.00    +0.000 C 
ATOM      3  O   UNL     1       3.313   2.665  21.095  0.00  0.00    +0.000 OA
ATOM      4  N   UNL     1       2.616   2.049  19.049  0.00  0.00    +0.000 N 
ATOM      5  C   UNL     1       2.975   2.031  17.652  0.00  0.00    +0.000 C 
ATOM      6  C   UNL     1       3.102   3.428  17.060  0.00  0.00    +0.000 C 
ATOM      7  N   UNL     1       3.887   4.309  17.922  0.00  0.00    +0.000 N 
ATOM      8  C   UNL     1       4.837   5.108  17.312  0.00  0.00    +0.000 C 
ATOM      9  O   UNL     1       4.997   5.094  16.096  0.00  0.00    +0.000 OA
ATOM     10  H   UNL     1       2.435   1.157  19.497  0.00  0.00    +0.000 HD
ENDROOT
BRANCH   1  11
ATOM     11  C   UNL     1       2.203   5.264  19.547  0.00  0.00    +0.000 C 
ATOM     12  C   UNL     1       1.331   4.782  20.721  0.00  0.00    +0.000 C 
BRANCH  11  14
ATOM     13  C   UNL     1       2.375   7.599  18.388  0.00  0.00    +0.000 C 
ATOM     14  C   UNL     1       2.453   6.785  19.673  0.00  0.00    +0.000 C 
ENDBRANCH  11  14
ENDBRANCH   1  11
BRANCH   8  15
ATOM     15  O   UNL     1       5.565   5.878  18.157  0.00  0.00    +0.000 OA
BRANCH  15  16
ATOM     16  C   UNL     1       7.020   5.773  18.109  0.00  0.00    +0.000 C 
ATOM     17  C   UNL     1       7.466   4.571  17.264  0.00  0.00    +0.000 C 
ATOM     18  C   UNL     1       7.542   7.045  17.418  0.00  0.00    +0.000 C 
ATOM     19  C   UNL     1       7.623   5.745  19.525  0.00  0.00    +0.000 C 
ENDBRANCH  15  16
ENDBRANCH   8  15
TORSDOF 4
ENDMDL
MODEL 5
REMARK VINA RESULT:      -6.7      0.061      1.032
REMARK  Name = 
REMARK  9 active torsions:
REMARK  status: ('A' for Active; 'I' for Inactive)
REMARK    1  A    between atoms: C_1  and  C_2
REMARK    2  A    between atoms: C_2  and  C_3
REMARK    3  A    between atoms: C_3  and  C_4
REMARK    4  A    between atoms: C_3  and  C_5
REMARK    5  A    between atoms: C_12  and  O_14
REMARK    6  A    between atoms: O_14  and  C_15
REMARK    7  A    between atoms: C_15  and  C_16
REMARK    8  A    between atoms: C_15  and  C_17
REMARK    9  A    between atoms: C_15  and  C_18
REMARK                            x       y       z     vdW  Elec       q    Type
REMARK                         _______ _______ _______ _____ _____    ______ ____
ROOT
ATOM      1  C   UNL     1       4.286   3.947  19.677  0.00  0.00    +0.000 C 
ATOM      2  C   UNL     1       4.378   2.393  19.796  0.00  0.00    +0.000 C 
ATOM      3  O   UNL     1       4.914   1.824  20.746  0.00  0.00    +0.000 OA
ATOM      4  N   UNL     1       3.629   1.641  18.913  0.00  0.00    +0.000 N 
ATOM      5  C   UNL     1       3.485   2.069  17.542  0.00  0.00    +0.000 C 
ATOM      6  C   UNL     1       3.244   3.567  17.419  0.00  0.00    +0.000 C 
ATOM      7  N   UNL     1       4.175   4.333  18.245  0.00  0.00    +0.000 N 
ATOM      8  C   UNL     1       4.763   5.446  17.671  0.00  0.00    +0.000 C 
ATOM      9  O   UNL     1       4.495   5.789  16.524  0.00  0.00    +0.000 OA
ATOM     10  H   UNL     1       3.713   0.645  19.084  0.00  0.00    +0.000 HD
ENDROOT
BRANCH   1  11
ATOM     11  C   UNL     1       3.059   4.448  20.510  0.00  0.00    +0.000 C 
ATOM     12  C   UNL     1       2.360   5.659  19.865  0.00  0.00    +0.000 C 
BRANCH  11  14
ATOM     13  C   UNL     1       0.699   3.411  20.084  0.00  0.00    +0.000 C 
ATOM     14  C   UNL     1       2.012   3.364  20.857  0.00  0.00    +0.000 C 
ENDBRANCH  11  14
ENDBRANCH   1  11
BRANCH   8  15
ATOM     15  O   UNL     1       5.647   6.099  18.464  0.00  0.00    +0.000 OA
BRANCH  15  16
ATOM     16  C   UNL     1       7.069   5.990  18.150  0.00  0.00    +0.000 C 
ATOM     17  C   UNL     1       7.902   5.735  19.415  0.00  0.00    +0.000 C 
ATOM     18  C   UNL     1       7.236   4.768  17.230  0.00  0.00    +0.000 C 
ATOM     19  C   UNL     1       7.561   7.220  17.366  0.00  0.00    +0.000 C 
ENDBRANCH  15  16
ENDBRANCH   8  15
TORSDOF 4
ENDMDL
MODEL 6
REMARK VINA RESULT:      -6.7      1.017      1.945
REMARK  Name = 
REMARK  9 active torsions:
REMARK  status: ('A' for Active; 'I' for Inactive)
REMARK    1  A    between atoms: C_1  and  C_2
REMARK    2  A    between atoms: C_2  and  C_3
REMARK    3  A    between atoms: C_3  and  C_4
REMARK    4  A    between atoms: C_3  and  C_5
REMARK    5  A    between atoms: C_12  and  O_14
REMARK    6  A    between atoms: O_14  and  C_15
REMARK    7  A    between atoms: C_15  and  C_16
REMARK    8  A    between atoms: C_15  and  C_17
REMARK    9  A    between atoms: C_15  and  C_18
REMARK                            x       y       z     vdW  Elec       q    Type
REMARK                         _______ _______ _______ _____ _____    ______ ____
ROOT
ATOM      1  C   UNL     1       3.484   4.370  19.394  0.00  0.00    +0.000 C 
ATOM      2  C   UNL     1       3.189   2.932  19.925  0.00  0.00    +0.000 C 
ATOM      3  O   UNL     1       3.256   2.631  21.116  0.00  0.00    +0.000 OA
ATOM      4  N   UNL     1       2.612   2.035  19.048  0.00  0.00    +0.000 N 
ATOM      5  C   UNL     1       3.009   2.027  17.660  0.00  0.00    +0.000 C 
ATOM      6  C   UNL     1       3.157   3.428  17.084  0.00  0.00    +0.000 C 
ATOM      7  N   UNL     1       3.922   4.299  17.974  0.00  0.00    +0.000 N 
ATOM      8  C   UNL     1       4.891   5.099  17.397  0.00  0.00    +0.000 C 
ATOM      9  O   UNL     1       5.084   5.094  16.185  0.00  0.00    +0.000 OA
ATOM     10  H   UNL     1       2.415   1.140  19.482  0.00  0.00    +0.000 HD
ENDROOT
BRANCH   1  11
ATOM     11  C   UNL     1       2.199   5.247  19.561  0.00  0.00    +0.000 C 
ATOM     12  C   UNL     1       1.320   4.792  20.741  0.00  0.00    +0.000 C 
BRANCH  11  14
ATOM     13  C   UNL     1       2.338   7.561  18.356  0.00  0.00    +0.000 C 
ATOM     14  C   UNL     1       2.448   6.770  19.654  0.00  0.00    +0.000 C 
ENDBRANCH  11  14
ENDBRANCH   1  11
BRANCH   8  15
ATOM     15  O   UNL     1       5.599   5.859  18.268  0.00  0.00    +0.000 OA
BRANCH  15  16
ATOM     16  C   UNL     1       7.056   5.852  18.166  0.00  0.00    +0.000 C 
ATOM     17  C   UNL     1       7.713   5.751  19.550  0.00  0.00    +0.000 C 
ATOM     18  C   UNL     1       7.447   4.592  17.373  0.00  0.00    +0.000 C 
ATOM     19  C   UNL     1       7.562   7.067  17.367  0.00  0.00    +0.000 C 
ENDBRANCH  15  16
ENDBRANCH   8  15
TORSDOF 4
ENDMDL
MODEL 7
REMARK VINA RESULT:      -6.6      2.541      5.571
REMARK  Name = 
REMARK  9 active torsions:
REMARK  status: ('A' for Active; 'I' for Inactive)
REMARK    1  A    between atoms: C_1  and  C_2
REMARK    2  A    between atoms: C_2  and  C_3
REMARK    3  A    between atoms: C_3  and  C_4
REMARK    4  A    between atoms: C_3  and  C_5
REMARK    5  A    between atoms: C_12  and  O_14
REMARK    6  A    between atoms: O_14  and  C_15
REMARK    7  A    between atoms: C_15  and  C_16
REMARK    8  A    between atoms: C_15  and  C_17
REMARK    9  A    between atoms: C_15  and  C_18
REMARK                            x       y       z     vdW  Elec       q    Type
REMARK                         _______ _______ _______ _____ _____    ______ ____
ROOT
ATOM      1  C   UNL     1       5.826   4.607  16.331  0.00  0.00    +0.000 C 
ATOM      2  C   UNL     1       7.242   4.930  16.904  0.00  0.00    +0.000 C 
ATOM      3  O   UNL     1       8.168   4.120  16.899  0.00  0.00    +0.000 OA
ATOM      4  N   UNL     1       7.516   6.246  17.219  0.00  0.00    +0.000 N 
ATOM      5  C   UNL     1       6.493   7.076  17.808  0.00  0.00    +0.000 C 
ATOM      6  C   UNL     1       5.131   6.879  17.156  0.00  0.00    +0.000 C 
ATOM      7  N   UNL     1       4.809   5.462  16.997  0.00  0.00    +0.000 N 
ATOM      8  C   UNL     1       3.530   5.062  17.339  0.00  0.00    +0.000 C 
ATOM      9  O   UNL     1       2.694   5.867  17.738  0.00  0.00    +0.000 OA
ATOM     10  H   UNL     1       8.468   6.376  17.544  0.00  0.00    +0.000 HD
ENDROOT
BRANCH   1  11
ATOM     11  C   UNL     1       5.844   4.826  14.782  0.00  0.00    +0.000 C 
ATOM     12  C   UNL     1       7.245   5.181  14.249  0.00  0.00    +0.000 C 
BRANCH  11  14
ATOM     13  C   UNL     1       5.873   3.420  12.580  0.00  0.00    +0.000 C 
ATOM     14  C   UNL     1       5.246   3.671  13.946  0.00  0.00    +0.000 C 
ENDBRANCH  11  14
ENDBRANCH   1  11
BRANCH   8  15
ATOM     15  O   UNL     1       3.292   3.734  17.212  0.00  0.00    +0.000 OA
BRANCH  15  16
ATOM     16  C   UNL     1       3.011   2.963  18.419  0.00  0.00    +0.000 C 
ATOM     17  C   UNL     1       1.501   2.839  18.665  0.00  0.00    +0.000 C 
ATOM     18  C   UNL     1       3.562   1.544  18.188  0.00  0.00    +0.000 C 
ATOM     19  C   UNL     1       3.754   3.546  19.636  0.00  0.00    +0.000 C 
ENDBRANCH  15  16
ENDBRANCH   8  15
TORSDOF 4
ENDMDL
MODEL 8
REMARK VINA RESULT:      -6.6      2.183      5.203
REMARK  Name = 
REMARK  9 active torsions:
REMARK  status: ('A' for Active; 'I' for Inactive)
REMARK    1  A    between atoms: C_1  and  C_2
REMARK    2  A    between atoms: C_2  and  C_3
REMARK    3  A    between atoms: C_3  and  C_4
REMARK    4  A    between atoms: C_3  and  C_5
REMARK    5  A    between atoms: C_12  and  O_14
REMARK    6  A    between atoms: O_14  and  C_15
REMARK    7  A    between atoms: C_15  and  C_16
REMARK    8  A    between atoms: C_15  and  C_17
REMARK    9  A    between atoms: C_15  and  C_18
REMARK                            x       y       z     vdW  Elec       q    Type
REMARK                         _______ _______ _______ _____ _____    ______ ____
ROOT
ATOM      1  C   UNL     1       5.795   4.478  17.617  0.00  0.00    +0.000 C 
ATOM      2  C   UNL     1       7.254   4.954  17.332  0.00  0.00    +0.000 C 
ATOM      3  O   UNL     1       8.224   4.197  17.364  0.00  0.00    +0.000 OA
ATOM      4  N   UNL     1       7.420   6.219  16.805  0.00  0.00    +0.000 N 
ATOM      5  C   UNL     1       6.576   7.303  17.250  0.00  0.00    +0.000 C 
ATOM      6  C   UNL     1       5.118   6.890  17.389  0.00  0.00    +0.000 C 
ATOM      7  N   UNL     1       4.982   5.623  18.105  0.00  0.00    +0.000 N 
ATOM      8  C   UNL     1       4.001   5.548  19.078  0.00  0.00    +0.000 C 
ATOM      9  O   UNL     1       3.262   6.499  19.313  0.00  0.00    +0.000 OA
ATOM     10  H   UNL     1       8.392   6.434  16.611  0.00  0.00    +0.000 HD
ENDROOT
BRANCH   1  11
ATOM     11  C   UNL     1       5.199   3.859  16.310  0.00  0.00    +0.000 C 
ATOM     12  C   UNL     1       3.687   3.585  16.419  0.00  0.00    +0.000 C 
BRANCH  11  14
ATOM     13  C   UNL     1       6.215   3.893  13.903  0.00  0.00    +0.000 C 
ATOM     14  C   UNL     1       5.493   4.648  15.013  0.00  0.00    +0.000 C 
ENDBRANCH  11  14
ENDBRANCH   1  11
BRANCH   8  15
ATOM     15  O   UNL     1       3.940   4.367  19.740  0.00  0.00    +0.000 OA
BRANCH  15  16
ATOM     16  C   UNL     1       2.630   3.759  19.949  0.00  0.00    +0.000 C 
ATOM     17  C   UNL     1       1.601   4.285  18.938  0.00  0.00    +0.000 C 
ATOM     18  C   UNL     1       2.789   2.248  19.706  0.00  0.00    +0.000 C 
ATOM     19  C   UNL     1       2.160   3.938  21.405  0.00  0.00    +0.000 C 
ENDBRANCH  15  16
ENDBRANCH   8  15
TORSDOF 4
ENDMDL
MODEL 9
REMARK VINA RESULT:      -6.6      1.726      2.364
REMARK  Name = 
REMARK  9 active torsions:
REMARK  status: ('A' for Active; 'I' for Inactive)
REMARK    1  A    between atoms: C_1  and  C_2
REMARK    2  A    between atoms: C_2  and  C_3
REMARK    3  A    between atoms: C_3  and  C_4
REMARK    4  A    between atoms: C_3  and  C_5
REMARK    5  A    between atoms: C_12  and  O_14
REMARK    6  A    between atoms: O_14  and  C_15
REMARK    7  A    between atoms: C_15  and  C_16
REMARK    8  A    between atoms: C_15  and  C_17
REMARK    9  A    between atoms: C_15  and  C_18
REMARK                            x       y       z     vdW  Elec       q    Type
REMARK                         _______ _______ _______ _____ _____    ______ ____
ROOT
ATOM      1  C   UNL     1       3.049   4.625  19.673  0.00  0.00    +0.000 C 
ATOM      2  C   UNL     1       2.179   3.653  20.530  0.00  0.00    +0.000 C 
ATOM      3  O   UNL     1       2.058   3.761  21.750  0.00  0.00    +0.000 OA
ATOM      4  N   UNL     1       1.340   2.787  19.856  0.00  0.00    +0.000 N 
ATOM      5  C   UNL     1       1.774   2.177  18.622  0.00  0.00    +0.000 C 
ATOM      6  C   UNL     1       2.497   3.155  17.707  0.00  0.00    +0.000 C 
ATOM      7  N   UNL     1       3.497   3.935  18.434  0.00  0.00    +0.000 N 
ATOM      8  C   UNL     1       4.734   4.092  17.835  0.00  0.00    +0.000 C 
ATOM      9  O   UNL     1       4.973   3.617  16.730  0.00  0.00    +0.000 OA
ATOM     10  H   UNL     1       0.781   2.222  20.485  0.00  0.00    +0.000 HD
ENDROOT
BRANCH   1  11
ATOM     11  C   UNL     1       2.213   5.907  19.352  0.00  0.00    +0.000 C 
ATOM     12  C   UNL     1       1.966   6.781  20.596  0.00  0.00    +0.000 C 
BRANCH  11  14
ATOM     13  C   UNL     1       2.268   8.222  18.143  0.00  0.00    +0.000 C 
ATOM     14  C   UNL     1       2.762   6.782  18.201  0.00  0.00    +0.000 C 
ENDBRANCH  11  14
ENDBRANCH   1  11
BRANCH   8  15
ATOM     15  O   UNL     1       5.639   4.789  18.565  0.00  0.00    +0.000 OA
BRANCH  15  16
ATOM     16  C   UNL     1       6.703   5.494  17.857  0.00  0.00    +0.000 C 
ATOM     17  C   UNL     1       6.150   6.676  17.047  0.00  0.00    +0.000 C 
ATOM     18  C   UNL     1       7.654   6.066  18.923  0.00  0.00    +0.000 C 
ATOM     19  C   UNL     1       7.526   4.526  16.986  0.00  0.00    +0.000 C 
ENDBRANCH  15  16
ENDBRANCH   8  15
TORSDOF 4
ENDMDL
