MODEL 1
REMARK VINA RESULT:      -8.0      0.000      0.000
REMARK  Name = 
REMARK  11 active torsions:
REMARK  status: ('A' for Active; 'I' for Inactive)
REMARK    1  A    between atoms: C_1  and  C_2
REMARK    2  A    between atoms: C_2  and  C_3
REMARK    3  A    between atoms: C_3  and  C_4
REMARK    4  A    between atoms: C_3  and  O_5
REMARK    5  A    between atoms: C_3  and  C_6
REMARK    6  A    between atoms: N_8  and  C_9
REMARK    7  A    between atoms: C_9  and  C_10
REMARK    8  A    between atoms: C_10  and  N_11
REMARK    9  A    between atoms: C_16  and  C_17
REMARK   10  A    between atoms: N_18  and  O_19
REMARK   11  A    between atoms: N_20  and  C_21
REMARK                            x       y       z     vdW  Elec       q    Type
REMARK                         _______ _______ _______ _____ _____    ______ ____
ROOT
ATOM      1  N   UNL     1       1.809   6.770  20.723  0.00  0.00    +0.000 N 
ATOM      2  C   UNL     1       1.775   7.812  19.853  0.00  0.00    +0.000 A 
ATOM      3  N   UNL     1       2.130   7.737  18.571  0.00  0.00    +0.000 NA
ATOM      4  O   UNL     1       1.936   9.002  18.049  0.00  0.00    +0.000 OA
ATOM      5  N   UNL     1       1.382   9.854  18.989  0.00  0.00    +0.000 NA
ATOM      6  C   UNL     1       1.305   9.132  20.121  0.00  0.00    +0.000 A 
ATOM      7  H   UNL     1       1.929   6.924  21.722  0.00  0.00    +0.000 HD
ENDROOT
BRANCH   6   8
ATOM      8  C   UNL     1       0.717   9.718  21.331  0.00  0.00    +0.000 C 
ATOM      9  N   UNL     1       1.232   9.345  22.464  0.00  0.00    +0.000 NA
ATOM     10  N   UNL     1      -0.349  10.555  21.026  0.00  0.00    +0.000 N 
ATOM     11  H   UNL     1      -0.645  10.556  20.053  0.00  0.00    +0.000 HD
BRANCH  10  12
ATOM     12  C   UNL     1      -0.772  11.699  21.732  0.00  0.00    +0.000 A 
ATOM     13  C   UNL     1      -0.015  12.876  21.787  0.00  0.00    +0.000 A 
ATOM     14  C   UNL     1      -0.411  13.952  22.583  0.00  0.00    +0.000 A 
ATOM     15  C   UNL     1      -1.580  13.861  23.331  0.00  0.00    +0.000 A 
ATOM     16  F   UNL     1      -1.917  14.883  24.127  0.00  0.00    +0.000 F 
ATOM     17  C   UNL     1      -2.370  12.717  23.260  0.00  0.00    +0.000 A 
ATOM     18 BR   UNL     1      -3.952  12.579  24.288  0.00  0.00    +0.000 Br
ATOM     19  C   UNL     1      -1.981  11.644  22.453  0.00  0.00    +0.000 A 
ENDBRANCH  10  12
BRANCH   9  20
ATOM     20  O   UNL     1       0.503   9.847  23.552  0.00  0.00    +0.000 OA
ATOM     21  H   UNL     1      -0.150   9.145  23.730  0.00  0.00    +0.000 HD
ENDBRANCH   9  20
ENDBRANCH   6   8
BRANCH   1  22
ATOM     22  C   UNL     1       1.773   5.388  20.248  0.00  0.00    +0.000 C 
BRANCH  22  23
ATOM     23  C   UNL     1       3.058   4.636  20.577  0.00  0.00    +0.000 C 
BRANCH  23  26
ATOM     24  C   UNL     1       5.506   4.587  17.965  0.00  0.00    +0.000 A 
ATOM     25  C   UNL     1       5.211   4.847  19.289  0.00  0.00    +0.000 A 
ATOM     26  N   UNL     1       3.902   4.504  19.410  0.00  0.00    +0.000 N 
ATOM     27  N   UNL     1       3.403   4.047  18.249  0.00  0.00    +0.000 NA
ATOM     28  N   UNL     1       4.377   4.098  17.351  0.00  0.00    +0.000 NA
BRANCH  24  29
ATOM     29  C   UNL     1       6.782   4.833  17.207  0.00  0.00    +0.000 C 
ATOM     30  C   UNL     1       6.661   4.349  15.751  0.00  0.00    +0.000 C 
BRANCH  29  32
ATOM     31  C   UNL     1       7.955   6.779  18.440  0.00  0.00    +0.000 C 
ATOM     32  C   UNL     1       7.160   6.334  17.214  0.00  0.00    +0.000 C 
ENDBRANCH  29  32
BRANCH  29  33
ATOM     33  O   UNL     1       7.866   4.097  17.802  0.00  0.00    +0.000 OA
ATOM     34  H   UNL     1       7.856   4.282  18.757  0.00  0.00    +0.000 HD
ENDBRANCH  29  33
ENDBRANCH  24  29
ENDBRANCH  23  26
ENDBRANCH  22  23
ENDBRANCH   1  22
TORSDOF 9
ENDMDL
MODEL 2
REMARK VINA RESULT:      -7.8      1.113      1.417
REMARK  Name = 
REMARK  11 active torsions:
REMARK  status: ('A' for Active; 'I' for Inactive)
REMARK    1  A    between atoms: C_1  and  C_2
REMARK    2  A    between atoms: C_2  and  C_3
REMARK    3  A    between atoms: C_3  and  C_4
REMARK    4  A    between atoms: C_3  and  O_5
REMARK    5  A    between atoms: C_3  and  C_6
REMARK    6  A    between atoms: N_8  and  C_9
REMARK    7  A    between atoms: C_9  and  C_10
REMARK    8  A    between atoms: C_10  and  N_11
REMARK    9  A    between atoms: C_16  and  C_17
REMARK   10  A    between atoms: N_18  and  O_19
REMARK   11  A    between atoms: N_20  and  C_21
REMARK                            x       y       z     vdW  Elec       q    Type
REMARK                         _______ _______ _______ _____ _____    ______ ____
ROOT
ATOM      1  N   UNL     1       1.834   6.581  20.768  0.00  0.00    +0.000 N 
ATOM      2  C   UNL     1       1.816   7.631  19.907  0.00  0.00    +0.000 A 
ATOM      3  N   UNL     1       2.141   7.555  18.617  0.00  0.00    +0.000 NA
ATOM      4  O   UNL     1       1.977   8.830  18.109  0.00  0.00    +0.000 OA
ATOM      5  N   UNL     1       1.470   9.691  19.067  0.00  0.00    +0.000 NA
ATOM      6  C   UNL     1       1.393   8.963  20.195  0.00  0.00    +0.000 A 
ATOM      7  H   UNL     1       1.979   6.724  21.766  0.00  0.00    +0.000 HD
ENDROOT
BRANCH   6   8
ATOM      8  C   UNL     1       0.850   9.558  21.421  0.00  0.00    +0.000 C 
ATOM      9  N   UNL     1       1.401   9.187  22.538  0.00  0.00    +0.000 NA
ATOM     10  N   UNL     1      -0.221  10.399  21.149  0.00  0.00    +0.000 N 
ATOM     11  H   UNL     1      -0.551  10.397  20.187  0.00  0.00    +0.000 HD
BRANCH  10  12
ATOM     12  C   UNL     1      -0.614  11.548  21.864  0.00  0.00    +0.000 A 
ATOM     13  C   UNL     1      -1.746  11.575  22.689  0.00  0.00    +0.000 A 
ATOM     14  C   UNL     1      -2.167  12.760  23.296  0.00  0.00    +0.000 A 
ATOM     15  C   UNL     1      -1.450  13.933  23.088  0.00  0.00    +0.000 A 
ATOM     16  F   UNL     1      -1.898  15.068  23.638  0.00  0.00    +0.000 F 
ATOM     17  C   UNL     1      -0.298  13.921  22.306  0.00  0.00    +0.000 A 
ATOM     18 BR   UNL     1       0.672  15.516  22.004  0.00  0.00    +0.000 Br
ATOM     19  C   UNL     1       0.132  12.733  21.708  0.00  0.00    +0.000 A 
ENDBRANCH  10  12
BRANCH   9  20
ATOM     20  O   UNL     1       0.712   9.698  23.648  0.00  0.00    +0.000 OA
ATOM     21  H   UNL     1       1.333   9.557  24.385  0.00  0.00    +0.000 HD
ENDBRANCH   9  20
ENDBRANCH   6   8
BRANCH   1  22
ATOM     22  C   UNL     1       1.744   5.205  20.284  0.00  0.00    +0.000 C 
BRANCH  22  23
ATOM     23  C   UNL     1       2.989   4.395  20.626  0.00  0.00    +0.000 C 
BRANCH  23  26
ATOM     24  C   UNL     1       5.467   4.481  18.043  0.00  0.00    +0.000 A 
ATOM     25  C   UNL     1       5.098   4.839  19.325  0.00  0.00    +0.000 A 
ATOM     26  N   UNL     1       3.870   4.280  19.486  0.00  0.00    +0.000 N 
ATOM     27  N   UNL     1       3.489   3.605  18.387  0.00  0.00    +0.000 NA
ATOM     28  N   UNL     1       4.459   3.725  17.492  0.00  0.00    +0.000 NA
BRANCH  24  29
ATOM     29  C   UNL     1       6.695   4.863  17.263  0.00  0.00    +0.000 C 
ATOM     30  C   UNL     1       6.612   4.347  15.815  0.00  0.00    +0.000 C 
BRANCH  29  32
ATOM     31  C   UNL     1       7.904   6.914  18.270  0.00  0.00    +0.000 C 
ATOM     32  C   UNL     1       6.895   6.397  17.245  0.00  0.00    +0.000 C 
ENDBRANCH  29  32
BRANCH  29  33
ATOM     33  O   UNL     1       7.865   4.266  17.851  0.00  0.00    +0.000 OA
ATOM     34  H   UNL     1       7.568   3.525  18.406  0.00  0.00    +0.000 HD
ENDBRANCH  29  33
ENDBRANCH  24  29
ENDBRANCH  23  26
ENDBRANCH  22  23
ENDBRANCH   1  22
TORSDOF 9
ENDMDL
MODEL 3
REMARK VINA RESULT:      -7.8      1.062      1.516
REMARK  Name = 
REMARK  11 active torsions:
REMARK  status: ('A' for Active; 'I' for Inactive)
REMARK    1  A    between atoms: C_1  and  C_2
REMARK    2  A    between atoms: C_2  and  C_3
REMARK    3  A    between atoms: C_3  and  C_4
REMARK    4  A    between atoms: C_3  and  O_5
REMARK    5  A    between atoms: C_3  and  C_6
REMARK    6  A    between atoms: N_8  and  C_9
REMARK    7  A    between atoms: C_9  and  C_10
REMARK    8  A    between atoms: C_10  and  N_11
REMARK    9  A    between atoms: C_16  and  C_17
REMARK   10  A    between atoms: N_18  and  O_19
REMARK   11  A    between atoms: N_20  and  C_21
REMARK                            x       y       z     vdW  Elec       q    Type
REMARK                         _______ _______ _______ _____ _____    ______ ____
ROOT
ATOM      1  N   UNL     1       1.870   7.191  20.362  0.00  0.00    +0.000 N 
ATOM      2  C   UNL     1       1.721   8.278  19.561  0.00  0.00    +0.000 A 
ATOM      3  N   UNL     1       2.019   8.306  18.263  0.00  0.00    +0.000 NA
ATOM      4  O   UNL     1       1.712   9.581  17.830  0.00  0.00    +0.000 OA
ATOM      5  N   UNL     1       1.144  10.333  18.844  0.00  0.00    +0.000 NA
ATOM      6  C   UNL     1       1.171   9.541  19.932  0.00  0.00    +0.000 A 
ATOM      7  H   UNL     1       2.024   7.295  21.363  0.00  0.00    +0.000 HD
ENDROOT
BRANCH   6   8
ATOM      8  C   UNL     1       0.601  10.010  21.199  0.00  0.00    +0.000 C 
ATOM      9  N   UNL     1       1.159   9.564  22.285  0.00  0.00    +0.000 NA
ATOM     10  N   UNL     1      -0.498  10.834  20.991  0.00  0.00    +0.000 N 
ATOM     11  H   UNL     1      -0.822  10.903  20.029  0.00  0.00    +0.000 HD
BRANCH  10  12
ATOM     12  C   UNL     1      -0.935  11.904  21.798  0.00  0.00    +0.000 A 
ATOM     13  C   UNL     1      -0.186  13.075  21.970  0.00  0.00    +0.000 A 
ATOM     14  C   UNL     1      -0.597  14.069  22.860  0.00  0.00    +0.000 A 
ATOM     15  C   UNL     1      -1.771  13.901  23.586  0.00  0.00    +0.000 A 
ATOM     16  F   UNL     1      -2.121  14.841  24.472  0.00  0.00    +0.000 F 
ATOM     17  C   UNL     1      -2.553  12.764  23.400  0.00  0.00    +0.000 A 
ATOM     18 BR   UNL     1      -4.142  12.520  24.396  0.00  0.00    +0.000 Br
ATOM     19  C   UNL     1      -2.149  11.774  22.499  0.00  0.00    +0.000 A 
ENDBRANCH  10  12
BRANCH   9  20
ATOM     20  O   UNL     1       0.446   9.954  23.428  0.00  0.00    +0.000 OA
ATOM     21  H   UNL     1      -0.443  10.154  23.083  0.00  0.00    +0.000 HD
ENDBRANCH   9  20
ENDBRANCH   6   8
BRANCH   1  22
ATOM     22  C   UNL     1       1.909   5.841  19.804  0.00  0.00    +0.000 C 
BRANCH  22  23
ATOM     23  C   UNL     1       3.052   5.015  20.383  0.00  0.00    +0.000 C 
BRANCH  23  26
ATOM     24  C   UNL     1       5.633   5.385  17.930  0.00  0.00    +0.000 A 
ATOM     25  C   UNL     1       4.485   5.891  18.508  0.00  0.00    +0.000 A 
ATOM     26  N   UNL     1       4.195   5.007  19.498  0.00  0.00    +0.000 N 
ATOM     27  N   UNL     1       5.101   4.015  19.554  0.00  0.00    +0.000 NA
ATOM     28  N   UNL     1       5.987   4.233  18.592  0.00  0.00    +0.000 NA
BRANCH  24  29
ATOM     29  C   UNL     1       6.399   5.885  16.735  0.00  0.00    +0.000 C 
ATOM     30  C   UNL     1       7.480   6.896  17.155  0.00  0.00    +0.000 C 
BRANCH  29  32
ATOM     31  C   UNL     1       6.148   4.018  14.963  0.00  0.00    +0.000 C 
ATOM     32  C   UNL     1       7.064   4.718  15.966  0.00  0.00    +0.000 C 
ENDBRANCH  29  32
BRANCH  29  33
ATOM     33  O   UNL     1       5.516   6.570  15.828  0.00  0.00    +0.000 OA
ATOM     34  H   UNL     1       5.837   7.484  15.742  0.00  0.00    +0.000 HD
ENDBRANCH  29  33
ENDBRANCH  24  29
ENDBRANCH  23  26
ENDBRANCH  22  23
ENDBRANCH   1  22
TORSDOF 9
ENDMDL
MODEL 4
REMARK VINA RESULT:      -7.7      1.005      1.389
REMARK  Name = 
REMARK  11 active torsions:
REMARK  status: ('A' for Active; 'I' for Inactive)
REMARK    1  A    between atoms: C_1  and  C_2
REMARK    2  A    between atoms: C_2  and  C_3
REMARK    3  A    between atoms: C_3  and  C_4
REMARK    4  A    between atoms: C_3  and  O_5
REMARK    5  A    between atoms: C_3  and  C_6
REMARK    6  A    between atoms: N_8  and  C_9
REMARK    7  A    between atoms: C_9  and  C_10
REMARK    8  A    between atoms: C_10  and  N_11
REMARK    9  A    between atoms: C_16  and  C_17
REMARK   10  A    between atoms: N_18  and  O_19
REMARK   11  A    between atoms: N_20  and  C_21
REMARK                            x       y       z     vdW  Elec       q    Type
REMARK                         _______ _______ _______ _____ _____    ______ ____
ROOT
ATOM      1  N   UNL     1       1.711   6.969  20.880  0.00  0.00    +0.000 N 
ATOM      2  C   UNL     1       1.663   8.024  20.026  0.00  0.00    +0.000 A 
ATOM      3  N   UNL     1       2.038   7.978  18.748  0.00  0.00    +0.000 NA
ATOM      4  O   UNL     1       1.820   9.245  18.243  0.00  0.00    +0.000 OA
ATOM      5  N   UNL     1       1.230  10.068  19.187  0.00  0.00    +0.000 NA
ATOM      6  C   UNL     1       1.154   9.327  20.307  0.00  0.00    +0.000 A 
ATOM      7  H   UNL     1       1.811   7.111  21.883  0.00  0.00    +0.000 HD
ENDROOT
BRANCH   6   8
ATOM      8  C   UNL     1       0.534   9.879  21.516  0.00  0.00    +0.000 C 
ATOM      9  N   UNL     1       1.024   9.481  22.652  0.00  0.00    +0.000 NA
ATOM     10  N   UNL     1      -0.531  10.716  21.207  0.00  0.00    +0.000 N 
ATOM     11  H   UNL     1      -0.804  10.739  20.227  0.00  0.00    +0.000 HD
BRANCH  10  12
ATOM     12  C   UNL     1      -0.979  11.839  21.931  0.00  0.00    +0.000 A 
ATOM     13  C   UNL     1      -0.239  13.025  22.019  0.00  0.00    +0.000 A 
ATOM     14  C   UNL     1      -0.661  14.079  22.833  0.00  0.00    +0.000 A 
ATOM     15  C   UNL     1      -1.838  13.956  23.563  0.00  0.00    +0.000 A 
ATOM     16  F   UNL     1      -2.199  14.956  24.375  0.00  0.00    +0.000 F 
ATOM     17  C   UNL     1      -2.611  12.803  23.458  0.00  0.00    +0.000 A 
ATOM     18 BR   UNL     1      -4.204  12.622  24.461  0.00  0.00    +0.000 Br
ATOM     19  C   UNL     1      -2.196  11.752  22.633  0.00  0.00    +0.000 A 
ENDBRANCH  10  12
BRANCH   9  20
ATOM     20  O   UNL     1       0.265   9.950  23.734  0.00  0.00    +0.000 OA
ATOM     21  H   UNL     1      -0.456  10.446  23.306  0.00  0.00    +0.000 HD
ENDBRANCH   9  20
ENDBRANCH   6   8
BRANCH   1  22
ATOM     22  C   UNL     1       1.717   5.594  20.383  0.00  0.00    +0.000 C 
BRANCH  22  23
ATOM     23  C   UNL     1       3.101   4.961  20.470  0.00  0.00    +0.000 C 
BRANCH  23  26
ATOM     24  C   UNL     1       4.897   4.914  17.373  0.00  0.00    +0.000 A 
ATOM     25  C   UNL     1       4.849   5.316  18.693  0.00  0.00    +0.000 A 
ATOM     26  N   UNL     1       3.684   4.793  19.158  0.00  0.00    +0.000 N 
ATOM     27  N   UNL     1       3.042   4.096  18.204  0.00  0.00    +0.000 NA
ATOM     28  N   UNL     1       3.774   4.168  17.101  0.00  0.00    +0.000 NA
BRANCH  24  29
ATOM     29  C   UNL     1       5.912   5.243  16.312  0.00  0.00    +0.000 C 
ATOM     30  C   UNL     1       7.257   4.555  16.604  0.00  0.00    +0.000 C 
BRANCH  29  32
ATOM     31  C   UNL     1       6.506   4.251  14.000  0.00  0.00    +0.000 C 
ATOM     32  C   UNL     1       5.416   4.817  14.909  0.00  0.00    +0.000 C 
ENDBRANCH  29  32
BRANCH  29  33
ATOM     33  O   UNL     1       6.164   6.659  16.286  0.00  0.00    +0.000 OA
ATOM     34  H   UNL     1       6.865   6.819  15.631  0.00  0.00    +0.000 HD
ENDBRANCH  29  33
ENDBRANCH  24  29
ENDBRANCH  23  26
ENDBRANCH  22  23
ENDBRANCH   1  22
TORSDOF 9
ENDMDL
MODEL 5
REMARK VINA RESULT:      -7.7      5.333     10.016
REMARK  Name = 
REMARK  11 active torsions:
REMARK  status: ('A' for Active; 'I' for Inactive)
REMARK    1  A    between atoms: C_1  and  C_2
REMARK    2  A    between atoms: C_2  and  C_3
REMARK    3  A    between atoms: C_3  and  C_4
REMARK    4  A    between atoms: C_3  and  O_5
REMARK    5  A    between atoms: C_3  and  C_6
REMARK    6  A    between atoms: N_8  and  C_9
REMARK    7  A    between atoms: C_9  and  C_10
REMARK    8  A    between atoms: C_10  and  N_11
REMARK    9  A    between atoms: C_16  and  C_17
REMARK   10  A    between atoms: N_18  and  O_19
REMARK   11  A    between atoms: N_20  and  C_21
REMARK                            x       y       z     vdW  Elec       q    Type
REMARK                         _______ _______ _______ _____ _____    ______ ____
ROOT
ATOM      1  N   UNL     1       2.191   7.011  20.438  0.00  0.00    +0.000 N 
ATOM      2  C   UNL     1       2.397   5.675  20.303  0.00  0.00    +0.000 A 
ATOM      3  N   UNL     1       1.957   4.753  21.159  0.00  0.00    +0.000 NA
ATOM      4  O   UNL     1       2.368   3.537  20.650  0.00  0.00    +0.000 OA
ATOM      5  N   UNL     1       3.001   3.690  19.428  0.00  0.00    +0.000 NA
ATOM      6  C   UNL     1       3.049   5.018  19.218  0.00  0.00    +0.000 A 
ATOM      7  H   UNL     1       2.840   7.685  20.036  0.00  0.00    +0.000 HD
ENDROOT
BRANCH   6   8
ATOM      8  C   UNL     1       3.626   5.547  17.977  0.00  0.00    +0.000 C 
ATOM      9  N   UNL     1       3.548   6.833  17.805  0.00  0.00    +0.000 NA
ATOM     10  N   UNL     1       4.119   4.531  17.169  0.00  0.00    +0.000 N 
ATOM     11  H   UNL     1       3.916   3.583  17.478  0.00  0.00    +0.000 HD
BRANCH  10  12
ATOM     12  C   UNL     1       5.204   4.597  16.272  0.00  0.00    +0.000 A 
ATOM     13  C   UNL     1       6.398   5.262  16.578  0.00  0.00    +0.000 A 
ATOM     14  C   UNL     1       7.411   5.401  15.627  0.00  0.00    +0.000 A 
ATOM     15  C   UNL     1       7.239   4.865  14.356  0.00  0.00    +0.000 A 
ATOM     16  F   UNL     1       8.199   5.052  13.442  0.00  0.00    +0.000 F 
ATOM     17  C   UNL     1       6.078   4.162  14.042  0.00  0.00    +0.000 A 
ATOM     18 BR   UNL     1       5.829   3.446  12.310  0.00  0.00    +0.000 Br
ATOM     19  C   UNL     1       5.069   4.012  14.999  0.00  0.00    +0.000 A 
ENDBRANCH  10  12
BRANCH   9  20
ATOM     20  O   UNL     1       3.992   7.210  16.529  0.00  0.00    +0.000 OA
ATOM     21  H   UNL     1       4.540   7.996  16.703  0.00  0.00    +0.000 HD
ENDBRANCH   9  20
ENDBRANCH   6   8
BRANCH   1  22
ATOM     22  C   UNL     1       1.086   7.527  21.244  0.00  0.00    +0.000 C 
BRANCH  22  23
ATOM     23  C   UNL     1       1.066   9.051  21.278  0.00  0.00    +0.000 C 
BRANCH  23  26
ATOM     24  C   UNL     1      -0.732  10.562  18.575  0.00  0.00    +0.000 A 
ATOM     25  C   UNL     1      -0.586  10.398  19.939  0.00  0.00    +0.000 A 
ATOM     26  N   UNL     1       0.503   9.596  20.063  0.00  0.00    +0.000 N 
ATOM     27  N   UNL     1       1.022   9.281  18.863  0.00  0.00    +0.000 NA
ATOM     28  N   UNL     1       0.269   9.863  17.941  0.00  0.00    +0.000 NA
BRANCH  24  29
ATOM     29  C   UNL     1      -1.804  11.290  17.811  0.00  0.00    +0.000 C 
ATOM     30  C   UNL     1      -2.303  10.448  16.623  0.00  0.00    +0.000 C 
BRANCH  29  32
ATOM     31  C   UNL     1      -4.371  11.336  18.115  0.00  0.00    +0.000 C 
ATOM     32  C   UNL     1      -3.004  11.641  18.724  0.00  0.00    +0.000 C 
ENDBRANCH  29  32
BRANCH  29  33
ATOM     33  O   UNL     1      -1.284  12.515  17.266  0.00  0.00    +0.000 OA
ATOM     34  H   UNL     1      -1.471  13.223  17.905  0.00  0.00    +0.000 HD
ENDBRANCH  29  33
ENDBRANCH  24  29
ENDBRANCH  23  26
ENDBRANCH  22  23
ENDBRANCH   1  22
TORSDOF 9
ENDMDL
MODEL 6
REMARK VINA RESULT:      -7.6      2.596      4.008
REMARK  Name = 
REMARK  11 active torsions:
REMARK  status: ('A' for Active; 'I' for Inactive)
REMARK    1  A    between atoms: C_1  and  C_2
REMARK    2  A    between atoms: C_2  and  C_3
REMARK    3  A    between atoms: C_3  and  C_4
REMARK    4  A    between atoms: C_3  and  O_5
REMARK    5  A    between atoms: C_3  and  C_6
REMARK    6  A    between atoms: N_8  and  C_9
REMARK    7  A    between atoms: C_9  and  C_10
REMARK    8  A    between atoms: C_10  and  N_11
REMARK    9  A    between atoms: C_16  and  C_17
REMARK   10  A    between atoms: N_18  and  O_19
REMARK   11  A    between atoms: N_20  and  C_21
REMARK                            x       y       z     vdW  Elec       q    Type
REMARK                         _______ _______ _______ _____ _____    ______ ____
ROOT
ATOM      1  N   UNL     1       1.778   3.372  18.454  0.00  0.00    +0.000 N 
ATOM      2  C   UNL     1       1.880   3.548  19.797  0.00  0.00    +0.000 A 
ATOM      3  N   UNL     1       1.906   2.558  20.688  0.00  0.00    +0.000 NA
ATOM      4  O   UNL     1       2.029   3.164  21.924  0.00  0.00    +0.000 OA
ATOM      5  N   UNL     1       2.160   4.536  21.801  0.00  0.00    +0.000 NA
ATOM      6  C   UNL     1       2.041   4.788  20.484  0.00  0.00    +0.000 A 
ATOM      7  H   UNL     1       1.368   4.090  17.860  0.00  0.00    +0.000 HD
ENDROOT
BRANCH   6   8
ATOM      8  C   UNL     1       2.174   6.159  19.981  0.00  0.00    +0.000 C 
ATOM      9  N   UNL     1       2.693   6.294  18.797  0.00  0.00    +0.000 NA
ATOM     10  N   UNL     1       1.748   7.090  20.919  0.00  0.00    +0.000 N 
ATOM     11  H   UNL     1       1.522   6.720  21.839  0.00  0.00    +0.000 HD
BRANCH  10  12
ATOM     12  C   UNL     1       1.166   8.351  20.676  0.00  0.00    +0.000 A 
ATOM     13  C   UNL     1       1.370   9.060  19.485  0.00  0.00    +0.000 A 
ATOM     14  C   UNL     1       0.866  10.352  19.320  0.00  0.00    +0.000 A 
ATOM     15  C   UNL     1       0.143  10.945  20.349  0.00  0.00    +0.000 A 
ATOM     16  F   UNL     1      -0.288  12.203  20.192  0.00  0.00    +0.000 F 
ATOM     17  C   UNL     1      -0.108  10.243  21.525  0.00  0.00    +0.000 A 
ATOM     18 BR   UNL     1      -1.076  11.050  22.935  0.00  0.00    +0.000 Br
ATOM     19  C   UNL     1       0.385   8.944  21.686  0.00  0.00    +0.000 A 
ENDBRANCH  10  12
BRANCH   9  20
ATOM     20  O   UNL     1       2.910   7.642  18.480  0.00  0.00    +0.000 OA
ATOM     21  H   UNL     1       3.513   7.946  19.182  0.00  0.00    +0.000 HD
ENDBRANCH   9  20
ENDBRANCH   6   8
BRANCH   1  22
ATOM     22  C   UNL     1       2.165   2.109  17.826  0.00  0.00    +0.000 C 
BRANCH  22  23
ATOM     23  C   UNL     1       3.609   1.734  18.137  0.00  0.00    +0.000 C 
BRANCH  23  26
ATOM     24  C   UNL     1       5.697   4.598  17.635  0.00  0.00    +0.000 A 
ATOM     25  C   UNL     1       4.819   3.680  17.094  0.00  0.00    +0.000 A 
ATOM     26  N   UNL     1       4.463   2.900  18.148  0.00  0.00    +0.000 N 
ATOM     27  N   UNL     1       5.064   3.301  19.282  0.00  0.00    +0.000 NA
ATOM     28  N   UNL     1       5.829   4.341  18.979  0.00  0.00    +0.000 NA
BRANCH  24  29
ATOM     29  C   UNL     1       6.485   5.681  16.949  0.00  0.00    +0.000 C 
ATOM     30  C   UNL     1       5.551   6.685  16.249  0.00  0.00    +0.000 C 
BRANCH  29  32
ATOM     31  C   UNL     1       7.688   7.886  17.561  0.00  0.00    +0.000 C 
ATOM     32  C   UNL     1       7.387   6.440  17.953  0.00  0.00    +0.000 C 
ENDBRANCH  29  32
BRANCH  29  33
ATOM     33  O   UNL     1       7.329   5.115  15.930  0.00  0.00    +0.000 OA
ATOM     34  H   UNL     1       7.871   5.835  15.566  0.00  0.00    +0.000 HD
ENDBRANCH  29  33
ENDBRANCH  24  29
ENDBRANCH  23  26
ENDBRANCH  22  23
ENDBRANCH   1  22
TORSDOF 9
ENDMDL
MODEL 7
REMARK VINA RESULT:      -7.5      1.627      1.906
REMARK  Name = 
REMARK  11 active torsions:
REMARK  status: ('A' for Active; 'I' for Inactive)
REMARK    1  A    between atoms: C_1  and  C_2
REMARK    2  A    between atoms: C_2  and  C_3
REMARK    3  A    between atoms: C_3  and  C_4
REMARK    4  A    between atoms: C_3  and  O_5
REMARK    5  A    between atoms: C_3  and  C_6
REMARK    6  A    between atoms: N_8  and  C_9
REMARK    7  A    between atoms: C_9  and  C_10
REMARK    8  A    between atoms: C_10  and  N_11
REMARK    9  A    between atoms: C_16  and  C_17
REMARK   10  A    between atoms: N_18  and  O_19
REMARK   11  A    between atoms: N_20  and  C_21
REMARK                            x       y       z     vdW  Elec       q    Type
REMARK                         _______ _______ _______ _____ _____    ______ ____
ROOT
ATOM      1  N   UNL     1       1.986   5.988  20.276  0.00  0.00    +0.000 N 
ATOM      2  C   UNL     1       2.152   6.978  19.361  0.00  0.00    +0.000 A 
ATOM      3  N   UNL     1       2.631   6.796  18.131  0.00  0.00    +0.000 NA
ATOM      4  O   UNL     1       2.626   8.042  17.534  0.00  0.00    +0.000 OA
ATOM      5  N   UNL     1       2.066   8.996  18.366  0.00  0.00    +0.000 NA
ATOM      6  C   UNL     1       1.795   8.351  19.515  0.00  0.00    +0.000 A 
ATOM      7  H   UNL     1       2.014   6.187  21.274  0.00  0.00    +0.000 HD
ENDROOT
BRANCH   6   8
ATOM      8  C   UNL     1       1.146   9.059  20.623  0.00  0.00    +0.000 C 
ATOM      9  N   UNL     1       1.428   8.642  21.821  0.00  0.00    +0.000 NA
ATOM     10  N   UNL     1       0.283  10.046  20.163  0.00  0.00    +0.000 N 
ATOM     11  H   UNL     1       0.131  10.065  19.158  0.00  0.00    +0.000 HD
BRANCH  10  12
ATOM     12  C   UNL     1      -0.043  11.263  20.793  0.00  0.00    +0.000 A 
ATOM     13  C   UNL     1      -1.321  11.534  21.298  0.00  0.00    +0.000 A 
ATOM     14  C   UNL     1      -1.640  12.789  21.819  0.00  0.00    +0.000 A 
ATOM     15  C   UNL     1      -0.674  13.789  21.846  0.00  0.00    +0.000 A 
ATOM     16  F   UNL     1      -1.012  15.001  22.303  0.00  0.00    +0.000 F 
ATOM     17  C   UNL     1       0.616  13.530  21.389  0.00  0.00    +0.000 A 
ATOM     18 BR   UNL     1       1.930  14.889  21.406  0.00  0.00    +0.000 Br
ATOM     19  C   UNL     1       0.939  12.269  20.879  0.00  0.00    +0.000 A 
ENDBRANCH  10  12
BRANCH   9  20
ATOM     20  O   UNL     1       0.644   9.286  22.790  0.00  0.00    +0.000 OA
ATOM     21  H   UNL     1       0.410   8.569  23.405  0.00  0.00    +0.000 HD
ENDBRANCH   9  20
ENDBRANCH   6   8
BRANCH   1  22
ATOM     22  C   UNL     1       1.858   4.592  19.864  0.00  0.00    +0.000 C 
BRANCH  22  23
ATOM     23  C   UNL     1       3.119   3.789  20.161  0.00  0.00    +0.000 C 
BRANCH  23  26
ATOM     24  C   UNL     1       5.836   4.522  17.948  0.00  0.00    +0.000 A 
ATOM     25  C   UNL     1       5.336   4.542  19.235  0.00  0.00    +0.000 A 
ATOM     26  N   UNL     1       4.110   3.966  19.124  0.00  0.00    +0.000 N 
ATOM     27  N   UNL     1       3.854   3.594  17.857  0.00  0.00    +0.000 NA
ATOM     28  N   UNL     1       4.904   3.935  17.124  0.00  0.00    +0.000 NA
BRANCH  24  29
ATOM     29  C   UNL     1       7.127   5.085  17.418  0.00  0.00    +0.000 C 
ATOM     30  C   UNL     1       6.970   5.544  15.957  0.00  0.00    +0.000 C 
BRANCH  29  32
ATOM     31  C   UNL     1       7.616   7.621  17.546  0.00  0.00    +0.000 C 
ATOM     32  C   UNL     1       7.614   6.278  18.276  0.00  0.00    +0.000 C 
ENDBRANCH  29  32
BRANCH  29  33
ATOM     33  O   UNL     1       8.154   4.077  17.431  0.00  0.00    +0.000 OA
ATOM     34  H   UNL     1       9.012   4.533  17.441  0.00  0.00    +0.000 HD
ENDBRANCH  29  33
ENDBRANCH  24  29
ENDBRANCH  23  26
ENDBRANCH  22  23
ENDBRANCH   1  22
TORSDOF 9
ENDMDL
MODEL 8
REMARK VINA RESULT:      -7.5      2.818      4.113
REMARK  Name = 
REMARK  11 active torsions:
REMARK  status: ('A' for Active; 'I' for Inactive)
REMARK    1  A    between atoms: C_1  and  C_2
REMARK    2  A    between atoms: C_2  and  C_3
REMARK    3  A    between atoms: C_3  and  C_4
REMARK    4  A    between atoms: C_3  and  O_5
REMARK    5  A    between atoms: C_3  and  C_6
REMARK    6  A    between atoms: N_8  and  C_9
REMARK    7  A    between atoms: C_9  and  C_10
REMARK    8  A    between atoms: C_10  and  N_11
REMARK    9  A    between atoms: C_16  and  C_17
REMARK   10  A    between atoms: N_18  and  O_19
REMARK   11  A    between atoms: N_20  and  C_21
REMARK                            x       y       z     vdW  Elec       q    Type
REMARK                         _______ _______ _______ _____ _____    ______ ____
ROOT
ATOM      1  N   UNL     1       1.732   3.527  18.463  0.00  0.00    +0.000 N 
ATOM      2  C   UNL     1       1.841   3.667  19.809  0.00  0.00    +0.000 A 
ATOM      3  N   UNL     1       1.860   2.654  20.674  0.00  0.00    +0.000 NA
ATOM      4  O   UNL     1       1.993   3.225  21.925  0.00  0.00    +0.000 OA
ATOM      5  N   UNL     1       2.138   4.599  21.837  0.00  0.00    +0.000 NA
ATOM      6  C   UNL     1       2.016   4.887  20.528  0.00  0.00    +0.000 A 
ATOM      7  H   UNL     1       1.326   4.265  17.889  0.00  0.00    +0.000 HD
ENDROOT
BRANCH   6   8
ATOM      8  C   UNL     1       2.160   6.269  20.061  0.00  0.00    +0.000 C 
ATOM      9  N   UNL     1       2.645   6.429  18.866  0.00  0.00    +0.000 NA
ATOM     10  N   UNL     1       1.782   7.181  21.039  0.00  0.00    +0.000 N 
ATOM     11  H   UNL     1       1.577   6.787  21.954  0.00  0.00    +0.000 HD
BRANCH  10  12
ATOM     12  C   UNL     1       1.217   8.458  20.850  0.00  0.00    +0.000 A 
ATOM     13  C   UNL     1       1.296   9.470  21.815  0.00  0.00    +0.000 A 
ATOM     14  C   UNL     1       0.634  10.686  21.641  0.00  0.00    +0.000 A 
ATOM     15  C   UNL     1      -0.113  10.904  20.488  0.00  0.00    +0.000 A 
ATOM     16  F   UNL     1      -0.782  12.057  20.362  0.00  0.00    +0.000 F 
ATOM     17  C   UNL     1      -0.171   9.929  19.495  0.00  0.00    +0.000 A 
ATOM     18 BR   UNL     1      -1.199  10.212  17.933  0.00  0.00    +0.000 Br
ATOM     19  C   UNL     1       0.502   8.716  19.664  0.00  0.00    +0.000 A 
ENDBRANCH  10  12
BRANCH   9  20
ATOM     20  O   UNL     1       2.879   7.782  18.581  0.00  0.00    +0.000 OA
ATOM     21  H   UNL     1       3.781   7.784  18.215  0.00  0.00    +0.000 HD
ENDBRANCH   9  20
ENDBRANCH   6   8
BRANCH   1  22
ATOM     22  C   UNL     1       2.104   2.278  17.800  0.00  0.00    +0.000 C 
BRANCH  22  23
ATOM     23  C   UNL     1       3.528   1.853  18.138  0.00  0.00    +0.000 C 
BRANCH  23  26
ATOM     24  C   UNL     1       5.699   4.658  17.653  0.00  0.00    +0.000 A 
ATOM     25  C   UNL     1       4.770   3.790  17.116  0.00  0.00    +0.000 A 
ATOM     26  N   UNL     1       4.424   2.987  18.156  0.00  0.00    +0.000 N 
ATOM     27  N   UNL     1       5.078   3.329  19.280  0.00  0.00    +0.000 NA
ATOM     28  N   UNL     1       5.869   4.351  18.983  0.00  0.00    +0.000 NA
BRANCH  24  29
ATOM     29  C   UNL     1       6.501   5.736  16.975  0.00  0.00    +0.000 C 
ATOM     30  C   UNL     1       5.582   6.733  16.248  0.00  0.00    +0.000 C 
BRANCH  29  32
ATOM     31  C   UNL     1       7.744   7.925  17.564  0.00  0.00    +0.000 C 
ATOM     32  C   UNL     1       7.382   6.503  17.990  0.00  0.00    +0.000 C 
ENDBRANCH  29  32
BRANCH  29  33
ATOM     33  O   UNL     1       7.365   5.161  15.978  0.00  0.00    +0.000 OA
ATOM     34  H   UNL     1       7.167   4.211  15.931  0.00  0.00    +0.000 HD
ENDBRANCH  29  33
ENDBRANCH  24  29
ENDBRANCH  23  26
ENDBRANCH  22  23
ENDBRANCH   1  22
TORSDOF 9
ENDMDL
MODEL 9
REMARK VINA RESULT:      -7.4      2.715      4.201
REMARK  Name = 
REMARK  11 active torsions:
REMARK  status: ('A' for Active; 'I' for Inactive)
REMARK    1  A    between atoms: C_1  and  C_2
REMARK    2  A    between atoms: C_2  and  C_3
REMARK    3  A    between atoms: C_3  and  C_4
REMARK    4  A    between atoms: C_3  and  O_5
REMARK    5  A    between atoms: C_3  and  C_6
REMARK    6  A    between atoms: N_8  and  C_9
REMARK    7  A    between atoms: C_9  and  C_10
REMARK    8  A    between atoms: C_10  and  N_11
REMARK    9  A    between atoms: C_16  and  C_17
REMARK   10  A    between atoms: N_18  and  O_19
REMARK   11  A    between atoms: N_20  and  C_21
REMARK                            x       y       z     vdW  Elec       q    Type
REMARK                         _______ _______ _______ _____ _____    ______ ____
ROOT
ATOM      1  N   UNL     1       1.650   3.136  18.776  0.00  0.00    +0.000 N 
ATOM      2  C   UNL     1       1.858   3.426  20.086  0.00  0.00    +0.000 A 
ATOM      3  N   UNL     1       1.984   2.515  21.050  0.00  0.00    +0.000 NA
ATOM      4  O   UNL     1       2.193   3.224  22.217  0.00  0.00    +0.000 OA
ATOM      5  N   UNL     1       2.278   4.584  21.971  0.00  0.00    +0.000 NA
ATOM      6  C   UNL     1       2.042   4.722  20.654  0.00  0.00    +0.000 A 
ATOM      7  H   UNL     1       1.172   3.794  18.162  0.00  0.00    +0.000 HD
ENDROOT
BRANCH   6   8
ATOM      8  C   UNL     1       2.096   6.049  20.030  0.00  0.00    +0.000 C 
ATOM      9  N   UNL     1       2.423   6.085  18.773  0.00  0.00    +0.000 NA
ATOM     10  N   UNL     1       1.826   7.055  20.949  0.00  0.00    +0.000 N 
ATOM     11  H   UNL     1       1.748   6.759  21.918  0.00  0.00    +0.000 HD
BRANCH  10  12
ATOM     12  C   UNL     1       1.214   8.301  20.702  0.00  0.00    +0.000 A 
ATOM     13  C   UNL     1       1.395   9.008  19.507  0.00  0.00    +0.000 A 
ATOM     14  C   UNL     1       0.862  10.288  19.338  0.00  0.00    +0.000 A 
ATOM     15  C   UNL     1       0.133  10.871  20.369  0.00  0.00    +0.000 A 
ATOM     16  F   UNL     1      -0.326  12.117  20.208  0.00  0.00    +0.000 F 
ATOM     17  C   UNL     1      -0.095  10.169  21.550  0.00  0.00    +0.000 A 
ATOM     18 BR   UNL     1      -1.071  10.962  22.962  0.00  0.00    +0.000 Br
ATOM     19  C   UNL     1       0.427   8.883  21.714  0.00  0.00    +0.000 A 
ENDBRANCH  10  12
BRANCH   9  20
ATOM     20  O   UNL     1       2.589   7.402  18.321  0.00  0.00    +0.000 OA
ATOM     21  H   UNL     1       1.675   7.729  18.236  0.00  0.00    +0.000 HD
ENDBRANCH   9  20
ENDBRANCH   6   8
BRANCH   1  22
ATOM     22  C   UNL     1       2.016   1.833  18.222  0.00  0.00    +0.000 C 
BRANCH  22  23
ATOM     23  C   UNL     1       3.517   1.581  18.298  0.00  0.00    +0.000 C 
BRANCH  23  26
ATOM     24  C   UNL     1       5.230   4.620  17.491  0.00  0.00    +0.000 A 
ATOM     25  C   UNL     1       4.333   3.643  17.106  0.00  0.00    +0.000 A 
ATOM     26  N   UNL     1       4.263   2.814  18.180  0.00  0.00    +0.000 N 
ATOM     27  N   UNL     1       5.050   3.240  19.183  0.00  0.00    +0.000 NA
ATOM     28  N   UNL     1       5.654   4.346  18.770  0.00  0.00    +0.000 NA
BRANCH  24  29
ATOM     29  C   UNL     1       5.774   5.779  16.701  0.00  0.00    +0.000 C 
ATOM     30  C   UNL     1       7.237   6.069  17.085  0.00  0.00    +0.000 C 
BRANCH  29  32
ATOM     31  C   UNL     1       6.932   4.840  14.589  0.00  0.00    +0.000 C 
ATOM     32  C   UNL     1       5.692   5.510  15.179  0.00  0.00    +0.000 C 
ENDBRANCH  29  32
BRANCH  29  33
ATOM     33  O   UNL     1       5.023   6.973  16.986  0.00  0.00    +0.000 OA
ATOM     34  H   UNL     1       5.648   7.639  17.319  0.00  0.00    +0.000 HD
ENDBRANCH  29  33
ENDBRANCH  24  29
ENDBRANCH  23  26
ENDBRANCH  22  23
ENDBRANCH   1  22
TORSDOF 9
ENDMDL
