MODEL 1
REMARK VINA RESULT:      -9.1      0.000      0.000
REMARK  Name = 
REMARK  4 active torsions:
REMARK  status: ('A' for Active; 'I' for Inactive)
REMARK    1  A    between atoms: C_2  and  C_4
REMARK    2  A    between atoms: C_9  and  C_10
REMARK    3  A    between atoms: C_11  and  C_12
REMARK    4  A    between atoms: C_17  and  C_18
REMARK                            x       y       z     vdW  Elec       q    Type
REMARK                         _______ _______ _______ _____ _____    ______ ____
ROOT
ATOM      1  C   UNL     1       8.163   7.709  18.172  0.00  0.00    +0.000 C 
ATOM      2  C   UNL     1       7.836   9.002  18.009  0.00  0.00    +0.000 C 
ENDROOT
BRANCH   1   8
ATOM      3  C   UNL     1       4.103   3.296  18.400  0.00  0.00    +0.000 A 
ATOM      4  C   UNL     1       4.209   3.266  17.007  0.00  0.00    +0.000 A 
ATOM      5  C   UNL     1       5.066   4.148  16.338  0.00  0.00    +0.000 A 
ATOM      6  C   UNL     1       5.833   5.065  17.081  0.00  0.00    +0.000 A 
ATOM      7  C   UNL     1       6.775   6.069  16.729  0.00  0.00    +0.000 A 
ATOM      8  C   UNL     1       7.232   6.672  17.885  0.00  0.00    +0.000 A 
ATOM      9  N   UNL     1       6.568   6.064  18.932  0.00  0.00    +0.000 N 
ATOM     10  C   UNL     1       5.713   5.082  18.469  0.00  0.00    +0.000 A 
ATOM     11  C   UNL     1       4.846   4.215  19.159  0.00  0.00    +0.000 A 
ATOM     12  H   UNL     1       6.685   6.294  19.909  0.00  0.00    +0.000 HD
BRANCH   3  14
ATOM     13  N   UNL     1       2.666   1.362  18.417  0.00  0.00    +0.000 NA
ATOM     14  C   UNL     1       3.178   2.343  19.082  0.00  0.00    +0.000 C 
ATOM     15  N   UNL     1       2.867   2.515  20.401  0.00  0.00    +0.000 N 
ATOM     16  H   UNL     1       2.102   0.782  19.041  0.00  0.00    +0.000 HD
ATOM     17  H   UNL     1       2.018   2.061  20.716  0.00  0.00    +0.000 HD
ATOM     18  H   UNL     1       2.922   3.473  20.737  0.00  0.00    +0.000 HD
ENDBRANCH   3  14
ENDBRANCH   1   8
BRANCH   2  19
ATOM     19  C   UNL     1       8.747  10.057  18.318  0.00  0.00    +0.000 A 
ATOM     20  C   UNL     1       9.608  10.151  19.408  0.00  0.00    +0.000 A 
ATOM     21  C   UNL     1      10.350  11.354  19.292  0.00  0.00    +0.000 A 
ATOM     22  C   UNL     1      11.357  11.993  20.036  0.00  0.00    +0.000 A 
ATOM     23  C   UNL     1      11.853  13.226  19.579  0.00  0.00    +0.000 A 
ATOM     24  C   UNL     1      11.358  13.819  18.408  0.00  0.00    +0.000 A 
ATOM     25  C   UNL     1      10.357  13.186  17.652  0.00  0.00    +0.000 A 
ATOM     26  C   UNL     1       9.891  11.961  18.135  0.00  0.00    +0.000 A 
ATOM     27  O   UNL     1       8.934  11.189  17.549  0.00  0.00    +0.000 OA
BRANCH  24  28
ATOM     28  C   UNL     1      11.917  15.136  17.974  0.00  0.00    +0.000 C 
ATOM     29  N   UNL     1      12.054  15.472  16.731  0.00  0.00    +0.000 NA
ATOM     30  N   UNL     1      12.316  16.062  18.893  0.00  0.00    +0.000 N 
ATOM     31  H   UNL     1      11.685  14.756  16.100  0.00  0.00    +0.000 HD
ATOM     32  H   UNL     1      12.745  15.712  19.739  0.00  0.00    +0.000 HD
ATOM     33  H   UNL     1      12.862  16.797  18.449  0.00  0.00    +0.000 HD
ENDBRANCH  24  28
ENDBRANCH   2  19
TORSDOF 4
ENDMDL
MODEL 2
REMARK VINA RESULT:      -9.0      1.659     11.052
REMARK  Name = 
REMARK  4 active torsions:
REMARK  status: ('A' for Active; 'I' for Inactive)
REMARK    1  A    between atoms: C_2  and  C_4
REMARK    2  A    between atoms: C_9  and  C_10
REMARK    3  A    between atoms: C_11  and  C_12
REMARK    4  A    between atoms: C_17  and  C_18
REMARK                            x       y       z     vdW  Elec       q    Type
REMARK                         _______ _______ _______ _____ _____    ______ ____
ROOT
ATOM      1  C   UNL     1       7.987   9.108  18.123  0.00  0.00    +0.000 C 
ATOM      2  C   UNL     1       8.248   7.806  18.332  0.00  0.00    +0.000 C 
ENDROOT
BRANCH   1   8
ATOM      3  C   UNL     1      11.478  13.981  18.402  0.00  0.00    +0.000 A 
ATOM      4  C   UNL     1      12.009  13.408  19.560  0.00  0.00    +0.000 A 
ATOM      5  C   UNL     1      11.536  12.177  20.028  0.00  0.00    +0.000 A 
ATOM      6  C   UNL     1      10.523  11.508  19.315  0.00  0.00    +0.000 A 
ATOM      7  C   UNL     1       9.837  10.279  19.505  0.00  0.00    +0.000 A 
ATOM      8  C   UNL     1       8.931  10.114  18.475  0.00  0.00    +0.000 A 
ATOM      9  N   UNL     1       9.041  11.233  17.674  0.00  0.00    +0.000 N 
ATOM     10  C   UNL     1      10.005  12.095  18.162  0.00  0.00    +0.000 A 
ATOM     11  C   UNL     1      10.455  13.340  17.685  0.00  0.00    +0.000 A 
ATOM     12  H   UNL     1       8.500  11.408  16.839  0.00  0.00    +0.000 HD
BRANCH   3  14
ATOM     13  N   UNL     1      12.164  15.506  16.667  0.00  0.00    +0.000 NA
ATOM     14  C   UNL     1      12.004  15.297  17.932  0.00  0.00    +0.000 C 
ATOM     15  N   UNL     1      12.325  16.270  18.836  0.00  0.00    +0.000 N 
ATOM     16  H   UNL     1      12.482  16.466  16.517  0.00  0.00    +0.000 HD
ATOM     17  H   UNL     1      12.960  16.986  18.504  0.00  0.00    +0.000 HD
ATOM     18  H   UNL     1      12.594  15.933  19.756  0.00  0.00    +0.000 HD
ENDBRANCH   3  14
ENDBRANCH   1   8
BRANCH   2  19
ATOM     19  C   UNL     1       7.303   6.785  18.012  0.00  0.00    +0.000 A 
ATOM     20  C   UNL     1       6.786   6.461  16.760  0.00  0.00    +0.000 A 
ATOM     21  C   UNL     1       5.905   5.361  16.911  0.00  0.00    +0.000 A 
ATOM     22  C   UNL     1       5.110   4.581  16.052  0.00  0.00    +0.000 A 
ATOM     23  C   UNL     1       4.343   3.540  16.602  0.00  0.00    +0.000 A 
ATOM     24  C   UNL     1       4.357   3.278  17.980  0.00  0.00    +0.000 A 
ATOM     25  C   UNL     1       5.152   4.046  18.848  0.00  0.00    +0.000 A 
ATOM     26  C   UNL     1       5.903   5.069  18.264  0.00  0.00    +0.000 A 
ATOM     27  O   UNL     1       6.739   5.917  18.926  0.00  0.00    +0.000 OA
BRANCH  24  28
ATOM     28  C   UNL     1       3.515   2.164  18.513  0.00  0.00    +0.000 C 
ATOM     29  N   UNL     1       2.400   2.356  19.143  0.00  0.00    +0.000 NA
ATOM     30  N   UNL     1       3.896   0.864  18.351  0.00  0.00    +0.000 N 
ATOM     31  H   UNL     1       2.150   3.348  19.178  0.00  0.00    +0.000 HD
ATOM     32  H   UNL     1       4.886   0.667  18.402  0.00  0.00    +0.000 HD
ATOM     33  H   UNL     1       3.341   0.251  18.946  0.00  0.00    +0.000 HD
ENDBRANCH  24  28
ENDBRANCH   2  19
TORSDOF 4
ENDMDL
MODEL 3
REMARK VINA RESULT:      -9.0      1.895     10.906
REMARK  Name = 
REMARK  4 active torsions:
REMARK  status: ('A' for Active; 'I' for Inactive)
REMARK    1  A    between atoms: C_2  and  C_4
REMARK    2  A    between atoms: C_9  and  C_10
REMARK    3  A    between atoms: C_11  and  C_12
REMARK    4  A    between atoms: C_17  and  C_18
REMARK                            x       y       z     vdW  Elec       q    Type
REMARK                         _______ _______ _______ _____ _____    ______ ____
ROOT
ATOM      1  C   UNL     1       8.405   8.950  18.637  0.00  0.00    +0.000 C 
ATOM      2  C   UNL     1       7.691   8.737  17.519  0.00  0.00    +0.000 C 
ENDROOT
BRANCH   1   8
ATOM      3  C   UNL     1      11.140  14.257  18.027  0.00  0.00    +0.000 A 
ATOM      4  C   UNL     1      11.684  14.006  19.290  0.00  0.00    +0.000 A 
ATOM      5  C   UNL     1      11.368  12.831  19.981  0.00  0.00    +0.000 A 
ATOM      6  C   UNL     1      10.501  11.891  19.390  0.00  0.00    +0.000 A 
ATOM      7  C   UNL     1       9.989  10.632  19.803  0.00  0.00    +0.000 A 
ATOM      8  C   UNL     1       9.174  10.136  18.804  0.00  0.00    +0.000 A 
ATOM      9  N   UNL     1       9.166  11.083  17.800  0.00  0.00    +0.000 N 
ATOM     10  C   UNL     1       9.968  12.159  18.131  0.00  0.00    +0.000 A 
ATOM     11  C   UNL     1      10.260  13.342  17.427  0.00  0.00    +0.000 A 
ATOM     12  H   UNL     1       8.651  11.010  16.933  0.00  0.00    +0.000 HD
BRANCH   3  14
ATOM     13  N   UNL     1      12.333  16.344  17.859  0.00  0.00    +0.000 NA
ATOM     14  C   UNL     1      11.497  15.521  17.318  0.00  0.00    +0.000 C 
ATOM     15  N   UNL     1      10.933  15.811  16.108  0.00  0.00    +0.000 N 
ATOM     16  H   UNL     1      12.502  17.127  17.224  0.00  0.00    +0.000 HD
ATOM     17  H   UNL     1      10.950  16.787  15.836  0.00  0.00    +0.000 HD
ATOM     18  H   UNL     1      10.018  15.398  15.947  0.00  0.00    +0.000 HD
ENDBRANCH   3  14
ENDBRANCH   1   8
BRANCH   2  19
ATOM     19  C   UNL     1       6.937   7.541  17.321  0.00  0.00    +0.000 A 
ATOM     20  C   UNL     1       7.353   6.359  16.713  0.00  0.00    +0.000 A 
ATOM     21  C   UNL     1       6.285   5.427  16.767  0.00  0.00    +0.000 A 
ATOM     22  C   UNL     1       6.086   4.097  16.357  0.00  0.00    +0.000 A 
ATOM     23  C   UNL     1       4.837   3.498  16.594  0.00  0.00    +0.000 A 
ATOM     24  C   UNL     1       3.800   4.204  17.221  0.00  0.00    +0.000 A 
ATOM     25  C   UNL     1       3.989   5.532  17.642  0.00  0.00    +0.000 A 
ATOM     26  C   UNL     1       5.244   6.092  17.393  0.00  0.00    +0.000 A 
ATOM     27  O   UNL     1       5.630   7.355  17.727  0.00  0.00    +0.000 OA
BRANCH  24  28
ATOM     28  C   UNL     1       2.489   3.520  17.439  0.00  0.00    +0.000 C 
ATOM     29  N   UNL     1       1.349   4.129  17.354  0.00  0.00    +0.000 NA
ATOM     30  N   UNL     1       2.439   2.192  17.746  0.00  0.00    +0.000 N 
ATOM     31  H   UNL     1       1.460   5.105  17.068  0.00  0.00    +0.000 HD
ATOM     32  H   UNL     1       3.175   1.830  18.337  0.00  0.00    +0.000 HD
ATOM     33  H   UNL     1       1.509   1.933  18.072  0.00  0.00    +0.000 HD
ENDBRANCH  24  28
ENDBRANCH   2  19
TORSDOF 4
ENDMDL
MODEL 4
REMARK VINA RESULT:      -8.9      1.103      1.384
REMARK  Name = 
REMARK  4 active torsions:
REMARK  status: ('A' for Active; 'I' for Inactive)
REMARK    1  A    between atoms: C_2  and  C_4
REMARK    2  A    between atoms: C_9  and  C_10
REMARK    3  A    between atoms: C_11  and  C_12
REMARK    4  A    between atoms: C_17  and  C_18
REMARK                            x       y       z     vdW  Elec       q    Type
REMARK                         _______ _______ _______ _____ _____    ______ ____
ROOT
ATOM      1  C   UNL     1       7.635   8.379  17.314  0.00  0.00    +0.000 C 
ATOM      2  C   UNL     1       8.216   8.709  18.479  0.00  0.00    +0.000 C 
ENDROOT
BRANCH   1   8
ATOM      3  C   UNL     1       3.618   3.921  17.323  0.00  0.00    +0.000 A 
ATOM      4  C   UNL     1       4.617   3.157  16.713  0.00  0.00    +0.000 A 
ATOM      5  C   UNL     1       5.868   3.717  16.429  0.00  0.00    +0.000 A 
ATOM      6  C   UNL     1       6.121   5.059  16.772  0.00  0.00    +0.000 A 
ATOM      7  C   UNL     1       7.247   5.913  16.632  0.00  0.00    +0.000 A 
ATOM      8  C   UNL     1       6.934   7.150  17.161  0.00  0.00    +0.000 A 
ATOM      9  N   UNL     1       5.628   7.067  17.602  0.00  0.00    +0.000 N 
ATOM     10  C   UNL     1       5.112   5.805  17.379  0.00  0.00    +0.000 A 
ATOM     11  C   UNL     1       3.843   5.266  17.657  0.00  0.00    +0.000 A 
ATOM     12  H   UNL     1       5.110   7.820  18.034  0.00  0.00    +0.000 HD
BRANCH   3  14
ATOM     13  N   UNL     1       1.216   3.998  17.504  0.00  0.00    +0.000 NA
ATOM     14  C   UNL     1       2.294   3.294  17.610  0.00  0.00    +0.000 C 
ATOM     15  N   UNL     1       2.225   1.985  17.995  0.00  0.00    +0.000 N 
ATOM     16  H   UNL     1       0.402   3.408  17.686  0.00  0.00    +0.000 HD
ATOM     17  H   UNL     1       1.376   1.712  18.477  0.00  0.00    +0.000 HD
ATOM     18  H   UNL     1       3.051   1.628  18.468  0.00  0.00    +0.000 HD
ENDBRANCH   3  14
ENDBRANCH   1   8
BRANCH   2  19
ATOM     19  C   UNL     1       8.946   9.924  18.643  0.00  0.00    +0.000 A 
ATOM     20  C   UNL     1       9.698  10.329  19.743  0.00  0.00    +0.000 A 
ATOM     21  C   UNL     1      10.274  11.592  19.452  0.00  0.00    +0.000 A 
ATOM     22  C   UNL     1      11.123  12.491  20.122  0.00  0.00    +0.000 A 
ATOM     23  C   UNL     1      11.479  13.688  19.479  0.00  0.00    +0.000 A 
ATOM     24  C   UNL     1      11.001  13.994  18.197  0.00  0.00    +0.000 A 
ATOM     25  C   UNL     1      10.159  13.100  17.514  0.00  0.00    +0.000 A 
ATOM     26  C   UNL     1       9.829  11.919  18.183  0.00  0.00    +0.000 A 
ATOM     27  O   UNL     1       9.036  10.925  17.694  0.00  0.00    +0.000 OA
BRANCH  24  28
ATOM     28  C   UNL     1      11.406  15.286  17.563  0.00  0.00    +0.000 C 
ATOM     29  N   UNL     1      11.969  16.250  18.218  0.00  0.00    +0.000 NA
ATOM     30  N   UNL     1      11.194  15.507  16.233  0.00  0.00    +0.000 N 
ATOM     31  H   UNL     1      12.147  15.995  19.193  0.00  0.00    +0.000 HD
ATOM     32  H   UNL     1      10.350  15.121  15.834  0.00  0.00    +0.000 HD
ATOM     33  H   UNL     1      11.322  16.492  16.009  0.00  0.00    +0.000 HD
ENDBRANCH  24  28
ENDBRANCH   2  19
TORSDOF 4
ENDMDL
MODEL 5
REMARK VINA RESULT:      -8.6      7.320     10.263
REMARK  Name = 
REMARK  4 active torsions:
REMARK  status: ('A' for Active; 'I' for Inactive)
REMARK    1  A    between atoms: C_2  and  C_4
REMARK    2  A    between atoms: C_9  and  C_10
REMARK    3  A    between atoms: C_11  and  C_12
REMARK    4  A    between atoms: C_17  and  C_18
REMARK                            x       y       z     vdW  Elec       q    Type
REMARK                         _______ _______ _______ _____ _____    ______ ____
ROOT
ATOM      1  C   UNL     1       1.653   7.895  20.194  0.00  0.00    +0.000 C 
ATOM      2  C   UNL     1       2.054   8.071  18.925  0.00  0.00    +0.000 C 
ENDROOT
BRANCH   1   8
ATOM      3  C   UNL     1      -1.930  12.493  21.621  0.00  0.00    +0.000 A 
ATOM      4  C   UNL     1      -1.823  12.034  22.936  0.00  0.00    +0.000 A 
ATOM      5  C   UNL     1      -1.063  10.897  23.236  0.00  0.00    +0.000 A 
ATOM      6  C   UNL     1      -0.393  10.219  22.199  0.00  0.00    +0.000 A 
ATOM      7  C   UNL     1       0.439   9.069  22.156  0.00  0.00    +0.000 A 
ATOM      8  C   UNL     1       0.834   8.857  20.849  0.00  0.00    +0.000 A 
ATOM      9  N   UNL     1       0.237   9.848  20.095  0.00  0.00    +0.000 N 
ATOM     10  C   UNL     1      -0.512  10.691  20.893  0.00  0.00    +0.000 A 
ATOM     11  C   UNL     1      -1.285  11.821  20.569  0.00  0.00    +0.000 A 
ATOM     12  H   UNL     1       0.331   9.955  19.094  0.00  0.00    +0.000 HD
BRANCH   3  14
ATOM     13  N   UNL     1      -3.799  13.952  22.049  0.00  0.00    +0.000 NA
ATOM     14  C   UNL     1      -2.751  13.707  21.336  0.00  0.00    +0.000 C 
ATOM     15  N   UNL     1      -2.399  14.548  20.318  0.00  0.00    +0.000 N 
ATOM     16  H   UNL     1      -4.213  14.839  21.756  0.00  0.00    +0.000 HD
ATOM     17  H   UNL     1      -3.137  15.147  19.968  0.00  0.00    +0.000 HD
ATOM     18  H   UNL     1      -1.881  14.116  19.559  0.00  0.00    +0.000 HD
ENDBRANCH   3  14
ENDBRANCH   1   8
BRANCH   2  19
ATOM     19  C   UNL     1       2.899   7.131  18.261  0.00  0.00    +0.000 A 
ATOM     20  C   UNL     1       3.062   5.777  18.547  0.00  0.00    +0.000 A 
ATOM     21  C   UNL     1       3.976   5.228  17.612  0.00  0.00    +0.000 A 
ATOM     22  C   UNL     1       4.523   3.957  17.365  0.00  0.00    +0.000 A 
ATOM     23  C   UNL     1       5.435   3.810  16.306  0.00  0.00    +0.000 A 
ATOM     24  C   UNL     1       5.805   4.903  15.509  0.00  0.00    +0.000 A 
ATOM     25  C   UNL     1       5.259   6.177  15.742  0.00  0.00    +0.000 A 
ATOM     26  C   UNL     1       4.354   6.284  16.800  0.00  0.00    +0.000 A 
ATOM     27  O   UNL     1       3.712   7.423  17.183  0.00  0.00    +0.000 OA
BRANCH  24  28
ATOM     28  C   UNL     1       6.786   4.691  14.401  0.00  0.00    +0.000 C 
ATOM     29  N   UNL     1       7.833   5.432  14.230  0.00  0.00    +0.000 NA
ATOM     30  N   UNL     1       6.614   3.679  13.502  0.00  0.00    +0.000 N 
ATOM     31  H   UNL     1       7.928   6.132  14.970  0.00  0.00    +0.000 HD
ATOM     32  H   UNL     1       5.664   3.463  13.233  0.00  0.00    +0.000 HD
ATOM     33  H   UNL     1       7.232   3.801  12.702  0.00  0.00    +0.000 HD
ENDBRANCH  24  28
ENDBRANCH   2  19
TORSDOF 4
ENDMDL
MODEL 6
REMARK VINA RESULT:      -8.5      8.283      9.894
REMARK  Name = 
REMARK  4 active torsions:
REMARK  status: ('A' for Active; 'I' for Inactive)
REMARK    1  A    between atoms: C_2  and  C_4
REMARK    2  A    between atoms: C_9  and  C_10
REMARK    3  A    between atoms: C_11  and  C_12
REMARK    4  A    between atoms: C_17  and  C_18
REMARK                            x       y       z     vdW  Elec       q    Type
REMARK                         _______ _______ _______ _____ _____    ______ ____
ROOT
ATOM      1  C   UNL     1       1.132   8.594  20.833  0.00  0.00    +0.000 C 
ATOM      2  C   UNL     1       0.834   9.763  20.243  0.00  0.00    +0.000 C 
ENDROOT
BRANCH   1   8
ATOM      3  C   UNL     1       3.791   3.515  19.059  0.00  0.00    +0.000 A 
ATOM      4  C   UNL     1       4.128   4.217  17.899  0.00  0.00    +0.000 A 
ATOM      5  C   UNL     1       3.734   5.550  17.733  0.00  0.00    +0.000 A 
ATOM      6  C   UNL     1       3.000   6.188  18.752  0.00  0.00    +0.000 A 
ATOM      7  C   UNL     1       2.460   7.492  18.903  0.00  0.00    +0.000 A 
ATOM      8  C   UNL     1       1.832   7.572  20.131  0.00  0.00    +0.000 A 
ATOM      9  N   UNL     1       1.964   6.330  20.719  0.00  0.00    +0.000 N 
ATOM     10  C   UNL     1       2.673   5.471  19.901  0.00  0.00    +0.000 A 
ATOM     11  C   UNL     1       3.045   4.126  20.080  0.00  0.00    +0.000 A 
ATOM     12  H   UNL     1       1.599   6.072  21.626  0.00  0.00    +0.000 HD
BRANCH   3  14
ATOM     13  N   UNL     1       5.064   1.773  20.133  0.00  0.00    +0.000 NA
ATOM     14  C   UNL     1       4.226   2.094  19.203  0.00  0.00    +0.000 C 
ATOM     15  N   UNL     1       3.749   1.141  18.349  0.00  0.00    +0.000 N 
ATOM     16  H   UNL     1       5.215   0.762  20.123  0.00  0.00    +0.000 HD
ATOM     17  H   UNL     1       4.302   0.295  18.280  0.00  0.00    +0.000 HD
ATOM     18  H   UNL     1       3.475   1.480  17.431  0.00  0.00    +0.000 HD
ENDBRANCH   3  14
ENDBRANCH   1   8
BRANCH   2  19
ATOM     19  C   UNL     1       0.108  10.788  20.922  0.00  0.00    +0.000 A 
ATOM     20  C   UNL     1       0.165  12.163  20.706  0.00  0.00    +0.000 A 
ATOM     21  C   UNL     1      -0.750  12.794  21.586  0.00  0.00    +0.000 A 
ATOM     22  C   UNL     1      -1.159  14.115  21.838  0.00  0.00    +0.000 A 
ATOM     23  C   UNL     1      -2.125  14.345  22.832  0.00  0.00    +0.000 A 
ATOM     24  C   UNL     1      -2.673  13.285  23.571  0.00  0.00    +0.000 A 
ATOM     25  C   UNL     1      -2.277  11.959  23.324  0.00  0.00    +0.000 A 
ATOM     26  C   UNL     1      -1.318  11.770  22.326  0.00  0.00    +0.000 A 
ATOM     27  O   UNL     1      -0.810  10.570  21.931  0.00  0.00    +0.000 OA
BRANCH  24  28
ATOM     28  C   UNL     1      -3.690  13.588  24.623  0.00  0.00    +0.000 C 
ATOM     29  N   UNL     1      -4.553  12.720  25.045  0.00  0.00    +0.000 NA
ATOM     30  N   UNL     1      -3.752  14.825  25.197  0.00  0.00    +0.000 N 
ATOM     31  H   UNL     1      -4.413  11.803  24.613  0.00  0.00    +0.000 HD
ATOM     32  H   UNL     1      -3.555  15.616  24.601  0.00  0.00    +0.000 HD
ATOM     33  H   UNL     1      -4.618  14.933  25.723  0.00  0.00    +0.000 HD
ENDBRANCH  24  28
ENDBRANCH   2  19
TORSDOF 4
ENDMDL
MODEL 7
REMARK VINA RESULT:      -8.5      7.329     10.531
REMARK  Name = 
REMARK  4 active torsions:
REMARK  status: ('A' for Active; 'I' for Inactive)
REMARK    1  A    between atoms: C_2  and  C_4
REMARK    2  A    between atoms: C_9  and  C_10
REMARK    3  A    between atoms: C_11  and  C_12
REMARK    4  A    between atoms: C_17  and  C_18
REMARK                            x       y       z     vdW  Elec       q    Type
REMARK                         _______ _______ _______ _____ _____    ______ ____
ROOT
ATOM      1  C   UNL     1       1.421   8.168  20.427  0.00  0.00    +0.000 C 
ATOM      2  C   UNL     1       1.905   8.351  19.187  0.00  0.00    +0.000 C 
ENDROOT
BRANCH   1   8
ATOM      3  C   UNL     1      -0.871  13.359  22.380  0.00  0.00    +0.000 A 
ATOM      4  C   UNL     1      -1.637  12.576  23.248  0.00  0.00    +0.000 A 
ATOM      5  C   UNL     1      -1.526  11.180  23.235  0.00  0.00    +0.000 A 
ATOM      6  C   UNL     1      -0.625  10.566  22.344  0.00  0.00    +0.000 A 
ATOM      7  C   UNL     1      -0.273   9.215  22.080  0.00  0.00    +0.000 A 
ATOM      8  C   UNL     1       0.692   9.194  21.092  0.00  0.00    +0.000 A 
ATOM      9  N   UNL     1       0.917  10.509  20.737  0.00  0.00    +0.000 N 
ATOM     10  C   UNL     1       0.130  11.363  21.486  0.00  0.00    +0.000 A 
ATOM     11  C   UNL     1       0.021  12.765  21.472  0.00  0.00    +0.000 A 
ATOM     12  H   UNL     1       1.569  10.819  20.029  0.00  0.00    +0.000 HD
BRANCH   3  14
ATOM     13  N   UNL     1      -0.097  15.590  21.899  0.00  0.00    +0.000 NA
ATOM     14  C   UNL     1      -1.015  14.844  22.419  0.00  0.00    +0.000 C 
ATOM     15  N   UNL     1      -2.108  15.412  23.011  0.00  0.00    +0.000 N 
ATOM     16  H   UNL     1      -0.374  16.571  21.966  0.00  0.00    +0.000 HD
ATOM     17  H   UNL     1      -2.002  16.379  23.293  0.00  0.00    +0.000 HD
ATOM     18  H   UNL     1      -2.539  14.857  23.745  0.00  0.00    +0.000 HD
ENDBRANCH   3  14
ENDBRANCH   1   8
BRANCH   2  19
ATOM     19  C   UNL     1       2.663   7.344  18.516  0.00  0.00    +0.000 A 
ATOM     20  C   UNL     1       2.571   5.962  18.666  0.00  0.00    +0.000 A 
ATOM     21  C   UNL     1       3.491   5.352  17.776  0.00  0.00    +0.000 A 
ATOM     22  C   UNL     1       3.854   4.034  17.448  0.00  0.00    +0.000 A 
ATOM     23  C   UNL     1       4.852   3.830  16.481  0.00  0.00    +0.000 A 
ATOM     24  C   UNL     1       5.486   4.912  15.852  0.00  0.00    +0.000 A 
ATOM     25  C   UNL     1       5.127   6.234  16.166  0.00  0.00    +0.000 A 
ATOM     26  C   UNL     1       4.129   6.397  17.129  0.00  0.00    +0.000 A 
ATOM     27  O   UNL     1       3.636   7.589  17.567  0.00  0.00    +0.000 OA
BRANCH  24  28
ATOM     28  C   UNL     1       6.547   4.636  14.836  0.00  0.00    +0.000 C 
ATOM     29  N   UNL     1       7.640   5.325  14.748  0.00  0.00    +0.000 NA
ATOM     30  N   UNL     1       6.404   3.621  13.936  0.00  0.00    +0.000 N 
ATOM     31  H   UNL     1       7.705   6.031  15.486  0.00  0.00    +0.000 HD
ATOM     32  H   UNL     1       5.471   3.446  13.588  0.00  0.00    +0.000 HD
ATOM     33  H   UNL     1       7.094   3.701  13.191  0.00  0.00    +0.000 HD
ENDBRANCH  24  28
ENDBRANCH   2  19
TORSDOF 4
ENDMDL
MODEL 8
REMARK VINA RESULT:      -8.4      8.141     11.631
REMARK  Name = 
REMARK  4 active torsions:
REMARK  status: ('A' for Active; 'I' for Inactive)
REMARK    1  A    between atoms: C_2  and  C_4
REMARK    2  A    between atoms: C_9  and  C_10
REMARK    3  A    between atoms: C_11  and  C_12
REMARK    4  A    between atoms: C_17  and  C_18
REMARK                            x       y       z     vdW  Elec       q    Type
REMARK                         _______ _______ _______ _____ _____    ______ ____
ROOT
ATOM      1  C   UNL     1       0.961   8.945  21.029  0.00  0.00    +0.000 C 
ATOM      2  C   UNL     1       1.435   8.818  19.778  0.00  0.00    +0.000 C 
ENDROOT
BRANCH   1   8
ATOM      3  C   UNL     1      -2.546  13.099  23.571  0.00  0.00    +0.000 A 
ATOM      4  C   UNL     1      -1.775  14.030  22.871  0.00  0.00    +0.000 A 
ATOM      5  C   UNL     1      -0.716  13.611  22.056  0.00  0.00    +0.000 A 
ATOM      6  C   UNL     1      -0.438  12.236  21.934  0.00  0.00    +0.000 A 
ATOM      7  C   UNL     1       0.531  11.491  21.212  0.00  0.00    +0.000 A 
ATOM      8  C   UNL     1       0.331  10.146  21.460  0.00  0.00    +0.000 A 
ATOM      9  N   UNL     1      -0.731  10.064  22.338  0.00  0.00    +0.000 N 
ATOM     10  C   UNL     1      -1.218  11.322  22.640  0.00  0.00    +0.000 A 
ATOM     11  C   UNL     1      -2.274  11.724  23.478  0.00  0.00    +0.000 A 
ATOM     12  H   UNL     1      -1.112   9.207  22.714  0.00  0.00    +0.000 HD
BRANCH   3  14
ATOM     13  N   UNL     1      -4.630  12.776  24.737  0.00  0.00    +0.000 NA
ATOM     14  C   UNL     1      -3.665  13.580  24.434  0.00  0.00    +0.000 C 
ATOM     15  N   UNL     1      -3.675  14.868  24.890  0.00  0.00    +0.000 N 
ATOM     16  H   UNL     1      -5.281  13.246  25.369  0.00  0.00    +0.000 HD
ATOM     17  H   UNL     1      -4.577  15.225  25.180  0.00  0.00    +0.000 HD
ATOM     18  H   UNL     1      -3.181  15.537  24.306  0.00  0.00    +0.000 HD
ENDBRANCH   3  14
ENDBRANCH   1   8
BRANCH   2  19
ATOM     19  C   UNL     1       2.094   7.631  19.337  0.00  0.00    +0.000 A 
ATOM     20  C   UNL     1       2.778   7.427  18.141  0.00  0.00    +0.000 A 
ATOM     21  C   UNL     1       3.300   6.108  18.143  0.00  0.00    +0.000 A 
ATOM     22  C   UNL     1       4.072   5.329  17.263  0.00  0.00    +0.000 A 
ATOM     23  C   UNL     1       4.393   4.012  17.634  0.00  0.00    +0.000 A 
ATOM     24  C   UNL     1       3.953   3.473  18.852  0.00  0.00    +0.000 A 
ATOM     25  C   UNL     1       3.187   4.244  19.742  0.00  0.00    +0.000 A 
ATOM     26  C   UNL     1       2.891   5.549  19.341  0.00  0.00    +0.000 A 
ATOM     27  O   UNL     1       2.172   6.456  20.060  0.00  0.00    +0.000 OA
BRANCH  24  28
ATOM     28  C   UNL     1       4.318   2.063  19.191  0.00  0.00    +0.000 C 
ATOM     29  N   UNL     1       5.090   1.749  20.182  0.00  0.00    +0.000 NA
ATOM     30  N   UNL     1       3.838   1.022  18.451  0.00  0.00    +0.000 N 
ATOM     31  H   UNL     1       5.366   2.572  20.724  0.00  0.00    +0.000 HD
ATOM     32  H   UNL     1       3.739   1.174  17.457  0.00  0.00    +0.000 HD
ATOM     33  H   UNL     1       4.341   0.164  18.670  0.00  0.00    +0.000 HD
ENDBRANCH  24  28
ENDBRANCH   2  19
TORSDOF 4
ENDMDL
MODEL 9
REMARK VINA RESULT:      -8.3      7.452      9.198
REMARK  Name = 
REMARK  4 active torsions:
REMARK  status: ('A' for Active; 'I' for Inactive)
REMARK    1  A    between atoms: C_2  and  C_4
REMARK    2  A    between atoms: C_9  and  C_10
REMARK    3  A    between atoms: C_11  and  C_12
REMARK    4  A    between atoms: C_17  and  C_18
REMARK                            x       y       z     vdW  Elec       q    Type
REMARK                         _______ _______ _______ _____ _____    ______ ____
ROOT
ATOM      1  C   UNL     1       1.995   8.137  19.167  0.00  0.00    +0.000 C 
ATOM      2  C   UNL     1       1.227   9.000  18.481  0.00  0.00    +0.000 C 
ENDROOT
BRANCH   1   8
ATOM      3  C   UNL     1       5.616   4.875  15.665  0.00  0.00    +0.000 A 
ATOM      4  C   UNL     1       5.053   3.762  16.296  0.00  0.00    +0.000 A 
ATOM      5  C   UNL     1       4.081   3.922  17.290  0.00  0.00    +0.000 A 
ATOM      6  C   UNL     1       3.662   5.218  17.647  0.00  0.00    +0.000 A 
ATOM      7  C   UNL     1       2.722   5.722  18.586  0.00  0.00    +0.000 A 
ATOM      8  C   UNL     1       2.711   7.101  18.505  0.00  0.00    +0.000 A 
ATOM      9  N   UNL     1       3.645   7.444  17.546  0.00  0.00    +0.000 N 
ATOM     10  C   UNL     1       4.235   6.316  17.008  0.00  0.00    +0.000 A 
ATOM     11  C   UNL     1       5.225   6.177  16.019  0.00  0.00    +0.000 A 
ATOM     12  H   UNL     1       3.872   8.388  17.265  0.00  0.00    +0.000 HD
BRANCH   3  14
ATOM     13  N   UNL     1       7.671   5.461  14.552  0.00  0.00    +0.000 NA
ATOM     14  C   UNL     1       6.652   4.670  14.610  0.00  0.00    +0.000 C 
ATOM     15  N   UNL     1       6.516   3.656  13.704  0.00  0.00    +0.000 N 
ATOM     16  H   UNL     1       8.302   5.152  13.810  0.00  0.00    +0.000 HD
ATOM     17  H   UNL     1       7.046   3.759  12.847  0.00  0.00    +0.000 HD
ATOM     18  H   UNL     1       5.559   3.369  13.516  0.00  0.00    +0.000 HD
ENDBRANCH   3  14
ENDBRANCH   1   8
BRANCH   2  19
ATOM     19  C   UNL     1       0.479  10.027  19.132  0.00  0.00    +0.000 A 
ATOM     20  C   UNL     1      -0.535  10.817  18.595  0.00  0.00    +0.000 A 
ATOM     21  C   UNL     1      -1.016  11.682  19.611  0.00  0.00    +0.000 A 
ATOM     22  C   UNL     1      -2.010  12.671  19.705  0.00  0.00    +0.000 A 
ATOM     23  C   UNL     1      -2.186  13.335  20.931  0.00  0.00    +0.000 A 
ATOM     24  C   UNL     1      -1.389  13.029  22.044  0.00  0.00    +0.000 A 
ATOM     25  C   UNL     1      -0.397  12.037  21.964  0.00  0.00    +0.000 A 
ATOM     26  C   UNL     1      -0.253  11.397  20.731  0.00  0.00    +0.000 A 
ATOM     27  O   UNL     1       0.640  10.407  20.450  0.00  0.00    +0.000 OA
BRANCH  24  28
ATOM     28  C   UNL     1      -1.615  13.773  23.321  0.00  0.00    +0.000 C 
ATOM     29  N   UNL     1      -0.715  14.521  23.874  0.00  0.00    +0.000 NA
ATOM     30  N   UNL     1      -2.811  13.691  23.973  0.00  0.00    +0.000 N 
ATOM     31  H   UNL     1       0.133  14.580  23.305  0.00  0.00    +0.000 HD
ATOM     32  H   UNL     1      -3.286  12.800  23.947  0.00  0.00    +0.000 HD
ATOM     33  H   UNL     1      -2.732  14.069  24.916  0.00  0.00    +0.000 HD
ENDBRANCH  24  28
ENDBRANCH   2  19
TORSDOF 4
ENDMDL
