MODEL 1
REMARK VINA RESULT:      -6.3      0.000      0.000
REMARK  Name = 
REMARK  5 active torsions:
REMARK  status: ('A' for Active; 'I' for Inactive)
REMARK    1  A    between atoms: C_1  and  C_2
REMARK    2  A    between atoms: C_7  and  S_8
REMARK    3  A    between atoms: S_8  and  C_10
REMARK    4  A    between atoms: C_14  and  N_15
REMARK    5  A    between atoms: C_16  and  C_17
REMARK                            x       y       z     vdW  Elec       q    Type
REMARK                         _______ _______ _______ _____ _____    ______ ____
ROOT
ATOM      1  C   UNL     1       6.253   6.492  17.607  0.00  0.00    +0.000 A 
ATOM      2  C   UNL     1       6.962   7.653  17.266  0.00  0.00    +0.000 A 
ATOM      3  C   UNL     1       8.120   8.004  17.955  0.00  0.00    +0.000 A 
ATOM      4  C   UNL     1       8.574   7.205  19.003  0.00  0.00    +0.000 A 
ATOM      5  C   UNL     1       7.865   6.064  19.405  0.00  0.00    +0.000 A 
ATOM      6  C   UNL     1       6.725   5.682  18.662  0.00  0.00    +0.000 A 
ENDROOT
BRANCH   5   7
ATOM      7  N   UNL     1       8.460   5.230  20.369  0.00  0.00    +0.000 N 
ATOM      8  H   UNL     1       7.894   4.432  20.645  0.00  0.00    +0.000 HD
ATOM      9  H   UNL     1       9.427   4.966  20.200  0.00  0.00    +0.000 HD
ENDBRANCH   5   7
BRANCH   1  10
ATOM     10  S   UNL     1       4.826   5.993  16.578  0.00  0.00    +0.000 S 
ATOM     11  O   UNL     1       4.869   6.910  15.301  0.00  0.00    +0.000 OA
BRANCH  10  18
ATOM     12  C   UNL     1       1.563   5.811  20.787  0.00  0.00    +0.000 C 
ATOM     13  C   UNL     1       2.123   6.591  19.632  0.00  0.00    +0.000 A 
ATOM     14  C   UNL     1       1.726   7.914  19.406  0.00  0.00    +0.000 A 
ATOM     15  C   UNL     1       2.253   8.628  18.332  0.00  0.00    +0.000 A 
ATOM     16 CL   UNL     1       1.774  10.262  18.081  0.00  0.00    +0.000 Cl
ATOM     17  C   UNL     1       3.170   8.037  17.463  0.00  0.00    +0.000 A 
ATOM     18  C   UNL     1       3.570   6.713  17.668  0.00  0.00    +0.000 A 
ATOM     19  C   UNL     1       3.055   6.001  18.763  0.00  0.00    +0.000 A 
ENDBRANCH  10  18
ENDBRANCH   1  10
BRANCH   6  20
ATOM     20  C   UNL     1       6.053   4.455  18.977  0.00  0.00    +0.000 C 
ATOM     21  N   UNL     1       5.482   3.481  19.242  0.00  0.00    +0.000 NA
ENDBRANCH   6  20
TORSDOF 4
ENDMDL
MODEL 2
REMARK VINA RESULT:      -6.2      1.289      2.026
REMARK  Name = 
REMARK  5 active torsions:
REMARK  status: ('A' for Active; 'I' for Inactive)
REMARK    1  A    between atoms: C_1  and  C_2
REMARK    2  A    between atoms: C_7  and  S_8
REMARK    3  A    between atoms: S_8  and  C_10
REMARK    4  A    between atoms: C_14  and  N_15
REMARK    5  A    between atoms: C_16  and  C_17
REMARK                            x       y       z     vdW  Elec       q    Type
REMARK                         _______ _______ _______ _____ _____    ______ ____
ROOT
ATOM      1  C   UNL     1       6.239   6.553  17.630  0.00  0.00    +0.000 A 
ATOM      2  C   UNL     1       6.956   7.709  17.289  0.00  0.00    +0.000 A 
ATOM      3  C   UNL     1       8.135   8.033  17.954  0.00  0.00    +0.000 A 
ATOM      4  C   UNL     1       8.605   7.211  18.978  0.00  0.00    +0.000 A 
ATOM      5  C   UNL     1       7.890   6.074  19.380  0.00  0.00    +0.000 A 
ATOM      6  C   UNL     1       6.726   5.720  18.660  0.00  0.00    +0.000 A 
ENDROOT
BRANCH   5   7
ATOM      7  N   UNL     1       8.497   5.216  20.315  0.00  0.00    +0.000 N 
ATOM      8  H   UNL     1       9.476   5.418  20.501  0.00  0.00    +0.000 HD
ATOM      9  H   UNL     1       7.978   5.045  21.172  0.00  0.00    +0.000 HD
ENDBRANCH   5   7
BRANCH   1  10
ATOM     10  S   UNL     1       4.780   6.089  16.630  0.00  0.00    +0.000 S 
ATOM     11  O   UNL     1       4.828   6.995  15.345  0.00  0.00    +0.000 OA
BRANCH  10  18
ATOM     12  C   UNL     1       1.562  10.088  18.063  0.00  0.00    +0.000 C 
ATOM     13  C   UNL     1       2.078   8.702  18.324  0.00  0.00    +0.000 A 
ATOM     14  C   UNL     1       1.590   7.949  19.398  0.00  0.00    +0.000 A 
ATOM     15  C   UNL     1       2.076   6.664  19.630  0.00  0.00    +0.000 A 
ATOM     16 CL   UNL     1       1.447   5.741  20.940  0.00  0.00    +0.000 Cl
ATOM     17  C   UNL     1       3.059   6.113  18.808  0.00  0.00    +0.000 A 
ATOM     18  C   UNL     1       3.565   6.856  17.736  0.00  0.00    +0.000 A 
ATOM     19  C   UNL     1       3.060   8.142  17.490  0.00  0.00    +0.000 A 
ENDBRANCH  10  18
ENDBRANCH   1  10
BRANCH   6  20
ATOM     20  C   UNL     1       6.045   4.497  18.973  0.00  0.00    +0.000 C 
ATOM     21  N   UNL     1       5.489   3.520  19.258  0.00  0.00    +0.000 NA
ENDBRANCH   6  20
TORSDOF 4
ENDMDL
MODEL 3
REMARK VINA RESULT:      -6.2      3.288      5.514
REMARK  Name = 
REMARK  5 active torsions:
REMARK  status: ('A' for Active; 'I' for Inactive)
REMARK    1  A    between atoms: C_1  and  C_2
REMARK    2  A    between atoms: C_7  and  S_8
REMARK    3  A    between atoms: S_8  and  C_10
REMARK    4  A    between atoms: C_14  and  N_15
REMARK    5  A    between atoms: C_16  and  C_17
REMARK                            x       y       z     vdW  Elec       q    Type
REMARK                         _______ _______ _______ _____ _____    ______ ____
ROOT
ATOM      1  C   UNL     1       3.015   5.298  18.767  0.00  0.00    +0.000 A 
ATOM      2  C   UNL     1       3.177   6.332  17.832  0.00  0.00    +0.000 A 
ATOM      3  C   UNL     1       2.711   7.615  18.107  0.00  0.00    +0.000 A 
ATOM      4  C   UNL     1       2.066   7.877  19.314  0.00  0.00    +0.000 A 
ATOM      5  C   UNL     1       1.841   6.859  20.252  0.00  0.00    +0.000 A 
ATOM      6  C   UNL     1       2.369   5.574  19.992  0.00  0.00    +0.000 A 
ENDROOT
BRANCH   5   7
ATOM      7  N   UNL     1       1.317   7.228  21.504  0.00  0.00    +0.000 N 
ATOM      8  H   UNL     1       0.665   8.007  21.477  0.00  0.00    +0.000 HD
ATOM      9  H   UNL     1       0.976   6.470  22.090  0.00  0.00    +0.000 HD
ENDBRANCH   5   7
BRANCH   1  10
ATOM     10  S   UNL     1       3.774   3.670  18.427  0.00  0.00    +0.000 S 
ATOM     11  O   UNL     1       4.535   3.263  19.742  0.00  0.00    +0.000 OA
BRANCH  10  18
ATOM     12  C   UNL     1       6.200   3.864  13.686  0.00  0.00    +0.000 C 
ATOM     13  C   UNL     1       6.088   4.384  15.091  0.00  0.00    +0.000 A 
ATOM     14  C   UNL     1       6.925   5.412  15.539  0.00  0.00    +0.000 A 
ATOM     15  C   UNL     1       6.811   5.887  16.844  0.00  0.00    +0.000 A 
ATOM     16 CL   UNL     1       7.830   7.169  17.373  0.00  0.00    +0.000 Cl
ATOM     17  C   UNL     1       5.876   5.342  17.723  0.00  0.00    +0.000 A 
ATOM     18  C   UNL     1       5.039   4.306  17.294  0.00  0.00    +0.000 A 
ATOM     19  C   UNL     1       5.139   3.844  15.973  0.00  0.00    +0.000 A 
ENDBRANCH  10  18
ENDBRANCH   1  10
BRANCH   6  20
ATOM     20  C   UNL     1       2.259   4.548  20.988  0.00  0.00    +0.000 C 
ATOM     21  N   UNL     1       2.176   3.743  21.818  0.00  0.00    +0.000 NA
ENDBRANCH   6  20
TORSDOF 4
ENDMDL
MODEL 4
REMARK VINA RESULT:      -6.1      3.090      5.655
REMARK  Name = 
REMARK  5 active torsions:
REMARK  status: ('A' for Active; 'I' for Inactive)
REMARK    1  A    between atoms: C_1  and  C_2
REMARK    2  A    between atoms: C_7  and  S_8
REMARK    3  A    between atoms: S_8  and  C_10
REMARK    4  A    between atoms: C_14  and  N_15
REMARK    5  A    between atoms: C_16  and  C_17
REMARK                            x       y       z     vdW  Elec       q    Type
REMARK                         _______ _______ _______ _____ _____    ______ ____
ROOT
ATOM      1  C   UNL     1       3.896   4.653  18.371  0.00  0.00    +0.000 A 
ATOM      2  C   UNL     1       3.929   3.345  18.877  0.00  0.00    +0.000 A 
ATOM      3  C   UNL     1       3.197   3.007  20.012  0.00  0.00    +0.000 A 
ATOM      4  C   UNL     1       2.434   3.975  20.663  0.00  0.00    +0.000 A 
ATOM      5  C   UNL     1       2.416   5.304  20.216  0.00  0.00    +0.000 A 
ATOM      6  C   UNL     1       3.113   5.626  19.029  0.00  0.00    +0.000 A 
ENDROOT
BRANCH   5   7
ATOM      7  N   UNL     1       1.512   6.189  20.831  0.00  0.00    +0.000 N 
ATOM      8  H   UNL     1       0.642   6.327  20.323  0.00  0.00    +0.000 HD
ATOM      9  H   UNL     1       1.349   6.047  21.825  0.00  0.00    +0.000 HD
ENDBRANCH   5   7
BRANCH   1  10
ATOM     10  S   UNL     1       4.751   5.014  16.796  0.00  0.00    +0.000 S 
ATOM     11  O   UNL     1       5.282   3.633  16.263  0.00  0.00    +0.000 OA
BRANCH  10  18
ATOM     12  C   UNL     1       8.014   9.178  17.439  0.00  0.00    +0.000 C 
ATOM     13  C   UNL     1       7.615   7.787  17.843  0.00  0.00    +0.000 A 
ATOM     14  C   UNL     1       8.303   7.116  18.861  0.00  0.00    +0.000 A 
ATOM     15  C   UNL     1       7.923   5.827  19.229  0.00  0.00    +0.000 A 
ATOM     16 CL   UNL     1       8.762   5.024  20.499  0.00  0.00    +0.000 Cl
ATOM     17  C   UNL     1       6.866   5.183  18.586  0.00  0.00    +0.000 A 
ATOM     18  C   UNL     1       6.175   5.836  17.560  0.00  0.00    +0.000 A 
ATOM     19  C   UNL     1       6.544   7.142  17.205  0.00  0.00    +0.000 A 
ENDBRANCH  10  18
ENDBRANCH   1  10
BRANCH   6  20
ATOM     20  C   UNL     1       3.011   6.949  18.485  0.00  0.00    +0.000 C 
ATOM     21  N   UNL     1       2.901   8.008  18.025  0.00  0.00    +0.000 NA
ENDBRANCH   6  20
TORSDOF 4
ENDMDL
MODEL 5
REMARK VINA RESULT:      -6.0      6.272      8.130
REMARK  Name = 
REMARK  5 active torsions:
REMARK  status: ('A' for Active; 'I' for Inactive)
REMARK    1  A    between atoms: C_1  and  C_2
REMARK    2  A    between atoms: C_7  and  S_8
REMARK    3  A    between atoms: S_8  and  C_10
REMARK    4  A    between atoms: C_14  and  N_15
REMARK    5  A    between atoms: C_16  and  C_17
REMARK                            x       y       z     vdW  Elec       q    Type
REMARK                         _______ _______ _______ _____ _____    ______ ____
ROOT
ATOM      1  C   UNL     1      -0.212  11.086  20.471  0.00  0.00    +0.000 A 
ATOM      2  C   UNL     1      -0.788  11.290  21.734  0.00  0.00    +0.000 A 
ATOM      3  C   UNL     1      -0.632  10.344  22.744  0.00  0.00    +0.000 A 
ATOM      4  C   UNL     1       0.091   9.178  22.500  0.00  0.00    +0.000 A 
ATOM      5  C   UNL     1       0.639   8.916  21.237  0.00  0.00    +0.000 A 
ATOM      6  C   UNL     1       0.528   9.907  20.235  0.00  0.00    +0.000 A 
ENDROOT
BRANCH   5   7
ATOM      7  N   UNL     1       1.477   7.793  21.107  0.00  0.00    +0.000 N 
ATOM      8  H   UNL     1       2.471   8.006  21.101  0.00  0.00    +0.000 HD
ATOM      9  H   UNL     1       1.264   7.001  21.708  0.00  0.00    +0.000 HD
ENDBRANCH   5   7
BRANCH   1  10
ATOM     10  S   UNL     1      -0.316  12.420  19.225  0.00  0.00    +0.000 S 
ATOM     11  O   UNL     1      -0.698  13.725  20.017  0.00  0.00    +0.000 OA
BRANCH  10  18
ATOM     12  C   UNL     1      -3.012   9.769  15.471  0.00  0.00    +0.000 C 
ATOM     13  C   UNL     1      -3.035  10.564  16.745  0.00  0.00    +0.000 A 
ATOM     14  C   UNL     1      -4.243  10.817  17.405  0.00  0.00    +0.000 A 
ATOM     15  C   UNL     1      -4.251  11.556  18.587  0.00  0.00    +0.000 A 
ATOM     16 CL   UNL     1      -5.741  11.837  19.402  0.00  0.00    +0.000 Cl
ATOM     17  C   UNL     1      -3.067  12.061  19.122  0.00  0.00    +0.000 A 
ATOM     18  C   UNL     1      -1.853  11.826  18.468  0.00  0.00    +0.000 A 
ATOM     19  C   UNL     1      -1.842  11.064  17.290  0.00  0.00    +0.000 A 
ENDBRANCH  10  18
ENDBRANCH   1  10
BRANCH   6  20
ATOM     20  C   UNL     1       1.184   9.716  18.974  0.00  0.00    +0.000 C 
ATOM     21  N   UNL     1       1.686   9.575  17.938  0.00  0.00    +0.000 NA
ENDBRANCH   6  20
TORSDOF 4
ENDMDL
MODEL 6
REMARK VINA RESULT:      -6.0      3.366      5.579
REMARK  Name = 
REMARK  5 active torsions:
REMARK  status: ('A' for Active; 'I' for Inactive)
REMARK    1  A    between atoms: C_1  and  C_2
REMARK    2  A    between atoms: C_7  and  S_8
REMARK    3  A    between atoms: S_8  and  C_10
REMARK    4  A    between atoms: C_14  and  N_15
REMARK    5  A    between atoms: C_16  and  C_17
REMARK                            x       y       z     vdW  Elec       q    Type
REMARK                         _______ _______ _______ _____ _____    ______ ____
ROOT
ATOM      1  C   UNL     1       2.871   5.581  18.692  0.00  0.00    +0.000 A 
ATOM      2  C   UNL     1       3.012   6.641  17.785  0.00  0.00    +0.000 A 
ATOM      3  C   UNL     1       2.571   7.920  18.115  0.00  0.00    +0.000 A 
ATOM      4  C   UNL     1       1.971   8.151  19.352  0.00  0.00    +0.000 A 
ATOM      5  C   UNL     1       1.769   7.106  20.265  0.00  0.00    +0.000 A 
ATOM      6  C   UNL     1       2.273   5.825  19.947  0.00  0.00    +0.000 A 
ENDROOT
BRANCH   5   7
ATOM      7  N   UNL     1       1.294   7.441  21.547  0.00  0.00    +0.000 N 
ATOM      8  H   UNL     1       1.846   8.142  22.033  0.00  0.00    +0.000 HD
ATOM      9  H   UNL     1       0.297   7.627  21.623  0.00  0.00    +0.000 HD
ENDBRANCH   5   7
BRANCH   1  10
ATOM     10  S   UNL     1       3.600   3.957  18.275  0.00  0.00    +0.000 S 
ATOM     11  O   UNL     1       4.318   3.454  19.581  0.00  0.00    +0.000 OA
BRANCH  10  18
ATOM     12  C   UNL     1       7.754   7.163  17.348  0.00  0.00    +0.000 C 
ATOM     13  C   UNL     1       6.831   6.086  16.854  0.00  0.00    +0.000 A 
ATOM     14  C   UNL     1       6.997   5.535  15.578  0.00  0.00    +0.000 A 
ATOM     15  C   UNL     1       6.135   4.535  15.132  0.00  0.00    +0.000 A 
ATOM     16 CL   UNL     1       6.367   3.849  13.570  0.00  0.00    +0.000 Cl
ATOM     17  C   UNL     1       5.093   4.077  15.938  0.00  0.00    +0.000 A 
ATOM     18  C   UNL     1       4.907   4.625  17.211  0.00  0.00    +0.000 A 
ATOM     19  C   UNL     1       5.788   5.616  17.669  0.00  0.00    +0.000 A 
ENDBRANCH  10  18
ENDBRANCH   1  10
BRANCH   6  20
ATOM     20  C   UNL     1       2.186   4.770  20.915  0.00  0.00    +0.000 C 
ATOM     21  N   UNL     1       2.082   3.923  21.701  0.00  0.00    +0.000 NA
ENDBRANCH   6  20
TORSDOF 4
ENDMDL
MODEL 7
REMARK VINA RESULT:      -6.0      6.251      8.207
REMARK  Name = 
REMARK  5 active torsions:
REMARK  status: ('A' for Active; 'I' for Inactive)
REMARK    1  A    between atoms: C_1  and  C_2
REMARK    2  A    between atoms: C_7  and  S_8
REMARK    3  A    between atoms: S_8  and  C_10
REMARK    4  A    between atoms: C_14  and  N_15
REMARK    5  A    between atoms: C_16  and  C_17
REMARK                            x       y       z     vdW  Elec       q    Type
REMARK                         _______ _______ _______ _____ _____    ______ ____
ROOT
ATOM      1  C   UNL     1      -0.272  11.197  20.557  0.00  0.00    +0.000 A 
ATOM      2  C   UNL     1      -0.837  11.403  21.824  0.00  0.00    +0.000 A 
ATOM      3  C   UNL     1      -0.646  10.476  22.844  0.00  0.00    +0.000 A 
ATOM      4  C   UNL     1       0.103   9.324  22.607  0.00  0.00    +0.000 A 
ATOM      5  C   UNL     1       0.641   9.059  21.340  0.00  0.00    +0.000 A 
ATOM      6  C   UNL     1       0.493  10.033  20.326  0.00  0.00    +0.000 A 
ENDROOT
BRANCH   5   7
ATOM      7  N   UNL     1       1.504   7.955  21.214  0.00  0.00    +0.000 N 
ATOM      8  H   UNL     1       1.381   7.238  21.924  0.00  0.00    +0.000 HD
ATOM      9  H   UNL     1       1.589   7.553  20.284  0.00  0.00    +0.000 HD
ENDBRANCH   5   7
BRANCH   1  10
ATOM     10  S   UNL     1      -0.423  12.511  19.295  0.00  0.00    +0.000 S 
ATOM     11  O   UNL     1      -0.847  13.812  20.072  0.00  0.00    +0.000 OA
BRANCH  10  18
ATOM     12  C   UNL     1      -5.706  11.816  19.178  0.00  0.00    +0.000 C 
ATOM     13  C   UNL     1      -4.370  11.603  18.525  0.00  0.00    +0.000 A 
ATOM     14  C   UNL     1      -4.276  10.942  17.295  0.00  0.00    +0.000 A 
ATOM     15  C   UNL     1      -3.031  10.751  16.698  0.00  0.00    +0.000 A 
ATOM     16 CL   UNL     1      -2.933   9.959  15.173  0.00  0.00    +0.000 Cl
ATOM     17  C   UNL     1      -1.865  11.204  17.316  0.00  0.00    +0.000 A 
ATOM     18  C   UNL     1      -1.942  11.857  18.550  0.00  0.00    +0.000 A 
ATOM     19  C   UNL     1      -3.197  12.068  19.141  0.00  0.00    +0.000 A 
ENDBRANCH  10  18
ENDBRANCH   1  10
BRANCH   6  20
ATOM     20  C   UNL     1       1.138   9.841  19.060  0.00  0.00    +0.000 C 
ATOM     21  N   UNL     1       1.642   9.655  18.032  0.00  0.00    +0.000 NA
ENDBRANCH   6  20
TORSDOF 4
ENDMDL
MODEL 8
REMARK VINA RESULT:      -5.9      3.540      5.822
REMARK  Name = 
REMARK  5 active torsions:
REMARK  status: ('A' for Active; 'I' for Inactive)
REMARK    1  A    between atoms: C_1  and  C_2
REMARK    2  A    between atoms: C_7  and  S_8
REMARK    3  A    between atoms: S_8  and  C_10
REMARK    4  A    between atoms: C_14  and  N_15
REMARK    5  A    between atoms: C_16  and  C_17
REMARK                            x       y       z     vdW  Elec       q    Type
REMARK                         _______ _______ _______ _____ _____    ______ ____
ROOT
ATOM      1  C   UNL     1       2.904   3.596  19.139  0.00  0.00    +0.000 A 
ATOM      2  C   UNL     1       2.907   2.652  20.176  0.00  0.00    +0.000 A 
ATOM      3  C   UNL     1       2.522   3.015  21.464  0.00  0.00    +0.000 A 
ATOM      4  C   UNL     1       2.143   4.329  21.734  0.00  0.00    +0.000 A 
ATOM      5  C   UNL     1       2.175   5.311  20.734  0.00  0.00    +0.000 A 
ATOM      6  C   UNL     1       2.509   4.922  19.417  0.00  0.00    +0.000 A 
ENDROOT
BRANCH   5   7
ATOM      7  N   UNL     1       1.640   6.576  21.043  0.00  0.00    +0.000 N 
ATOM      8  H   UNL     1       0.767   6.550  21.562  0.00  0.00    +0.000 HD
ATOM      9  H   UNL     1       2.289   7.257  21.428  0.00  0.00    +0.000 HD
ENDBRANCH   5   7
BRANCH   1  10
ATOM     10  S   UNL     1       3.271   3.041  17.436  0.00  0.00    +0.000 S 
ATOM     11  O   UNL     1       3.670   1.524  17.550  0.00  0.00    +0.000 OA
BRANCH  10  18
ATOM     12  C   UNL     1       7.475   5.567  19.520  0.00  0.00    +0.000 C 
ATOM     13  C   UNL     1       6.754   5.069  18.300  0.00  0.00    +0.000 A 
ATOM     14  C   UNL     1       7.300   5.254  17.025  0.00  0.00    +0.000 A 
ATOM     15  C   UNL     1       6.623   4.787  15.900  0.00  0.00    +0.000 A 
ATOM     16 CL   UNL     1       7.319   4.999  14.340  0.00  0.00    +0.000 Cl
ATOM     17  C   UNL     1       5.393   4.141  16.024  0.00  0.00    +0.000 A 
ATOM     18  C   UNL     1       4.829   3.957  17.291  0.00  0.00    +0.000 A 
ATOM     19  C   UNL     1       5.522   4.409  18.425  0.00  0.00    +0.000 A 
ENDBRANCH  10  18
ENDBRANCH   1  10
BRANCH   6  20
ATOM     20  C   UNL     1       2.431   5.883  18.354  0.00  0.00    +0.000 C 
ATOM     21  N   UNL     1       2.386   6.682  17.515  0.00  0.00    +0.000 NA
ENDBRANCH   6  20
TORSDOF 4
ENDMDL
MODEL 9
REMARK VINA RESULT:      -5.9      3.488      5.933
REMARK  Name = 
REMARK  5 active torsions:
REMARK  status: ('A' for Active; 'I' for Inactive)
REMARK    1  A    between atoms: C_1  and  C_2
REMARK    2  A    between atoms: C_7  and  S_8
REMARK    3  A    between atoms: S_8  and  C_10
REMARK    4  A    between atoms: C_14  and  N_15
REMARK    5  A    between atoms: C_16  and  C_17
REMARK                            x       y       z     vdW  Elec       q    Type
REMARK                         _______ _______ _______ _____ _____    ______ ____
ROOT
ATOM      1  C   UNL     1       2.645   3.883  18.953  0.00  0.00    +0.000 A 
ATOM      2  C   UNL     1       2.645   2.860  19.913  0.00  0.00    +0.000 A 
ATOM      3  C   UNL     1       2.392   3.145  21.252  0.00  0.00    +0.000 A 
ATOM      4  C   UNL     1       2.150   4.458  21.650  0.00  0.00    +0.000 A 
ATOM      5  C   UNL     1       2.191   5.514  20.728  0.00  0.00    +0.000 A 
ATOM      6  C   UNL     1       2.388   5.209  19.362  0.00  0.00    +0.000 A 
ENDROOT
BRANCH   5   7
ATOM      7  N   UNL     1       1.793   6.788  21.174  0.00  0.00    +0.000 N 
ATOM      8  H   UNL     1       1.418   6.807  22.119  0.00  0.00    +0.000 HD
ATOM      9  H   UNL     1       2.450   7.546  21.014  0.00  0.00    +0.000 HD
ENDBRANCH   5   7
BRANCH   1  10
ATOM     10  S   UNL     1       2.832   3.441  17.189  0.00  0.00    +0.000 S 
ATOM     11  O   UNL     1       2.904   1.871  17.139  0.00  0.00    +0.000 OA
BRANCH  10  18
ATOM     12  C   UNL     1       7.138   4.806  14.361  0.00  0.00    +0.000 C 
ATOM     13  C   UNL     1       6.473   4.675  15.702  0.00  0.00    +0.000 A 
ATOM     14  C   UNL     1       7.144   5.055  16.870  0.00  0.00    +0.000 A 
ATOM     15  C   UNL     1       6.517   4.930  18.108  0.00  0.00    +0.000 A 
ATOM     16 CL   UNL     1       7.345   5.425  19.533  0.00  0.00    +0.000 Cl
ATOM     17  C   UNL     1       5.224   4.418  18.205  0.00  0.00    +0.000 A 
ATOM     18  C   UNL     1       4.543   4.024  17.048  0.00  0.00    +0.000 A 
ATOM     19  C   UNL     1       5.167   4.170  15.800  0.00  0.00    +0.000 A 
ENDBRANCH  10  18
ENDBRANCH   1  10
BRANCH   6  20
ATOM     20  C   UNL     1       2.314   6.257  18.385  0.00  0.00    +0.000 C 
ATOM     21  N   UNL     1       2.276   7.122  17.614  0.00  0.00    +0.000 NA
ENDBRANCH   6  20
TORSDOF 4
ENDMDL
