MODEL 1
REMARK VINA RESULT:      -7.1      0.000      0.000
REMARK  Name = 
REMARK  2 active torsions:
REMARK  status: ('A' for Active; 'I' for Inactive)
REMARK    1  A    between atoms: C_1  and  C_2
REMARK    2  A    between atoms: C_2  and  C_3
REMARK                            x       y       z     vdW  Elec       q    Type
REMARK                         _______ _______ _______ _____ _____    ______ ____
ROOT
ATOM      1  C   UNL     1       4.926   6.979  17.351  0.00  0.00    +0.000 C 
ATOM      2  C   UNL     1       5.011   5.482  16.967  0.00  0.00    +0.000 C 
ATOM      3  C   UNL     1       5.184   5.383  15.446  0.00  0.00    +0.000 C 
ATOM      4  C   UNL     1       6.492   4.818  14.936  0.00  0.00    +0.000 C 
ATOM      5  O   UNL     1       7.513   4.554  15.890  0.00  0.00    +0.000 OA
ATOM      6  C   UNL     1       7.253   4.637  17.197  0.00  0.00    +0.000 C 
ATOM      7  N   UNL     1       8.315   4.235  17.926  0.00  0.00    +0.000 N 
ATOM      8  N   UNL     1       6.162   5.008  17.731  0.00  0.00    +0.000 NA
ATOM      9  H   UNL     1       8.936   3.600  17.448  0.00  0.00    +0.000 HD
ATOM     10  H   UNL     1       8.069   3.973  18.873  0.00  0.00    +0.000 HD
ENDROOT
BRANCH   2  11
ATOM     11  C   UNL     1       3.774   4.662  17.380  0.00  0.00    +0.000 A 
ATOM     12  C   UNL     1       2.667   5.322  17.953  0.00  0.00    +0.000 A 
ATOM     13  C   UNL     1       1.532   4.623  18.377  0.00  0.00    +0.000 A 
ATOM     14  C   UNL     1       1.478   3.239  18.246  0.00  0.00    +0.000 A 
ATOM     15  C   UNL     1       2.560   2.560  17.694  0.00  0.00    +0.000 A 
ATOM     16  C   UNL     1       3.691   3.264  17.276  0.00  0.00    +0.000 A 
ATOM     17  F   UNL     1       4.710   2.546  16.786  0.00  0.00    +0.000 F 
ENDBRANCH   2  11
TORSDOF 1
ENDMDL
MODEL 2
REMARK VINA RESULT:      -7.0      1.317      1.792
REMARK  Name = 
REMARK  2 active torsions:
REMARK  status: ('A' for Active; 'I' for Inactive)
REMARK    1  A    between atoms: C_1  and  C_2
REMARK    2  A    between atoms: C_2  and  C_3
REMARK                            x       y       z     vdW  Elec       q    Type
REMARK                         _______ _______ _______ _____ _____    ______ ____
ROOT
ATOM      1  C   UNL     1       4.516   6.780  17.288  0.00  0.00    +0.000 C 
ATOM      2  C   UNL     1       4.870   5.276  17.194  0.00  0.00    +0.000 C 
ATOM      3  C   UNL     1       5.281   4.968  15.748  0.00  0.00    +0.000 C 
ATOM      4  C   UNL     1       6.717   4.554  15.512  0.00  0.00    +0.000 C 
ATOM      5  O   UNL     1       7.611   4.619  16.616  0.00  0.00    +0.000 OA
ATOM      6  C   UNL     1       7.151   4.864  17.844  0.00  0.00    +0.000 C 
ATOM      7  N   UNL     1       8.139   4.765  18.758  0.00  0.00    +0.000 N 
ATOM      8  N   UNL     1       5.950   5.128  18.166  0.00  0.00    +0.000 NA
ATOM      9  H   UNL     1       8.909   4.174  18.482  0.00  0.00    +0.000 HD
ATOM     10  H   UNL     1       7.794   4.619  19.699  0.00  0.00    +0.000 HD
ENDROOT
BRANCH   2  11
ATOM     11  C   UNL     1       3.716   4.338  17.592  0.00  0.00    +0.000 A 
ATOM     12  C   UNL     1       3.937   2.945  17.628  0.00  0.00    +0.000 A 
ATOM     13  C   UNL     1       2.916   2.045  17.949  0.00  0.00    +0.000 A 
ATOM     14  C   UNL     1       1.639   2.516  18.235  0.00  0.00    +0.000 A 
ATOM     15  C   UNL     1       1.388   3.884  18.195  0.00  0.00    +0.000 A 
ATOM     16  C   UNL     1       2.412   4.777  17.871  0.00  0.00    +0.000 A 
ATOM     17  F   UNL     1       2.093   6.077  17.818  0.00  0.00    +0.000 F 
ENDBRANCH   2  11
TORSDOF 1
ENDMDL
MODEL 3
REMARK VINA RESULT:      -7.0      2.070      2.494
REMARK  Name = 
REMARK  2 active torsions:
REMARK  status: ('A' for Active; 'I' for Inactive)
REMARK    1  A    between atoms: C_1  and  C_2
REMARK    2  A    between atoms: C_2  and  C_3
REMARK                            x       y       z     vdW  Elec       q    Type
REMARK                         _______ _______ _______ _____ _____    ______ ____
ROOT
ATOM      1  C   UNL     1       3.608   6.811  17.777  0.00  0.00    +0.000 C 
ATOM      2  C   UNL     1       4.006   5.341  18.052  0.00  0.00    +0.000 C 
ATOM      3  C   UNL     1       4.452   4.707  16.728  0.00  0.00    +0.000 C 
ATOM      4  C   UNL     1       5.903   4.294  16.616  0.00  0.00    +0.000 C 
ATOM      5  O   UNL     1       6.775   4.650  17.682  0.00  0.00    +0.000 OA
ATOM      6  C   UNL     1       6.284   5.169  18.809  0.00  0.00    +0.000 C 
ATOM      7  N   UNL     1       7.257   5.325  19.732  0.00  0.00    +0.000 N 
ATOM      8  N   UNL     1       5.071   5.465  19.044  0.00  0.00    +0.000 NA
ATOM      9  H   UNL     1       8.048   4.709  19.615  0.00  0.00    +0.000 HD
ATOM     10  H   UNL     1       6.899   5.399  20.676  0.00  0.00    +0.000 HD
ENDROOT
BRANCH   2  11
ATOM     11  C   UNL     1       2.870   4.490  18.651  0.00  0.00    +0.000 A 
ATOM     12  C   UNL     1       2.490   3.294  18.009  0.00  0.00    +0.000 A 
ATOM     13  C   UNL     1       1.442   2.501  18.490  0.00  0.00    +0.000 A 
ATOM     14  C   UNL     1       0.740   2.890  19.625  0.00  0.00    +0.000 A 
ATOM     15  C   UNL     1       1.086   4.072  20.273  0.00  0.00    +0.000 A 
ATOM     16  C   UNL     1       2.131   4.860  19.786  0.00  0.00    +0.000 A 
ATOM     17  F   UNL     1       2.389   6.003  20.437  0.00  0.00    +0.000 F 
ENDBRANCH   2  11
TORSDOF 1
ENDMDL
MODEL 4
REMARK VINA RESULT:      -6.9      1.387      1.453
REMARK  Name = 
REMARK  2 active torsions:
REMARK  status: ('A' for Active; 'I' for Inactive)
REMARK    1  A    between atoms: C_1  and  C_2
REMARK    2  A    between atoms: C_2  and  C_3
REMARK                            x       y       z     vdW  Elec       q    Type
REMARK                         _______ _______ _______ _____ _____    ______ ____
ROOT
ATOM      1  C   UNL     1       4.479   6.810  17.308  0.00  0.00    +0.000 C 
ATOM      2  C   UNL     1       4.933   5.369  17.646  0.00  0.00    +0.000 C 
ATOM      3  C   UNL     1       5.625   4.781  16.410  0.00  0.00    +0.000 C 
ATOM      4  C   UNL     1       7.102   4.474  16.528  0.00  0.00    +0.000 C 
ATOM      5  O   UNL     1       7.768   4.881  17.717  0.00  0.00    +0.000 OA
ATOM      6  C   UNL     1       7.071   5.354  18.752  0.00  0.00    +0.000 C 
ATOM      7  N   UNL     1       7.873   5.570  19.815  0.00  0.00    +0.000 N 
ATOM      8  N   UNL     1       5.817   5.560  18.792  0.00  0.00    +0.000 NA
ATOM      9  H   UNL     1       8.714   5.013  19.826  0.00  0.00    +0.000 HD
ATOM     10  H   UNL     1       7.366   5.609  20.692  0.00  0.00    +0.000 HD
ENDROOT
BRANCH   2  11
ATOM     11  C   UNL     1       3.781   4.434  18.061  0.00  0.00    +0.000 A 
ATOM     12  C   UNL     1       2.455   4.784  17.735  0.00  0.00    +0.000 A 
ATOM     13  C   UNL     1       1.369   3.990  18.117  0.00  0.00    +0.000 A 
ATOM     14  C   UNL     1       1.581   2.825  18.846  0.00  0.00    +0.000 A 
ATOM     15  C   UNL     1       2.879   2.461  19.193  0.00  0.00    +0.000 A 
ATOM     16  C   UNL     1       3.959   3.260  18.810  0.00  0.00    +0.000 A 
ATOM     17  F   UNL     1       5.177   2.869  19.206  0.00  0.00    +0.000 F 
ENDBRANCH   2  11
TORSDOF 1
ENDMDL
MODEL 5
REMARK VINA RESULT:      -6.9      1.998      2.190
REMARK  Name = 
REMARK  2 active torsions:
REMARK  status: ('A' for Active; 'I' for Inactive)
REMARK    1  A    between atoms: C_1  and  C_2
REMARK    2  A    between atoms: C_2  and  C_3
REMARK                            x       y       z     vdW  Elec       q    Type
REMARK                         _______ _______ _______ _____ _____    ______ ____
ROOT
ATOM      1  C   UNL     1       3.601   6.623  18.020  0.00  0.00    +0.000 C 
ATOM      2  C   UNL     1       4.111   5.206  18.376  0.00  0.00    +0.000 C 
ATOM      3  C   UNL     1       4.294   4.419  17.072  0.00  0.00    +0.000 C 
ATOM      4  C   UNL     1       5.705   4.020  16.699  0.00  0.00    +0.000 C 
ATOM      5  O   UNL     1       6.766   4.522  17.502  0.00  0.00    +0.000 OA
ATOM      6  C   UNL     1       6.504   5.169  18.639  0.00  0.00    +0.000 C 
ATOM      7  N   UNL     1       7.642   5.455  19.305  0.00  0.00    +0.000 N 
ATOM      8  N   UNL     1       5.356   5.471  19.093  0.00  0.00    +0.000 NA
ATOM      9  H   UNL     1       8.416   4.843  19.095  0.00  0.00    +0.000 HD
ATOM     10  H   UNL     1       7.489   5.641  20.289  0.00  0.00    +0.000 HD
ENDROOT
BRANCH   2  11
ATOM     11  C   UNL     1       3.166   4.418  19.302  0.00  0.00    +0.000 A 
ATOM     12  C   UNL     1       1.903   4.957  19.622  0.00  0.00    +0.000 A 
ATOM     13  C   UNL     1       1.019   4.301  20.485  0.00  0.00    +0.000 A 
ATOM     14  C   UNL     1       1.381   3.088  21.060  0.00  0.00    +0.000 A 
ATOM     15  C   UNL     1       2.627   2.538  20.773  0.00  0.00    +0.000 A 
ATOM     16  C   UNL     1       3.505   3.200  19.912  0.00  0.00    +0.000 A 
ATOM     17  F   UNL     1       4.701   2.632  19.705  0.00  0.00    +0.000 F 
ENDBRANCH   2  11
TORSDOF 1
ENDMDL
MODEL 6
REMARK VINA RESULT:      -6.9      1.745      2.111
REMARK  Name = 
REMARK  2 active torsions:
REMARK  status: ('A' for Active; 'I' for Inactive)
REMARK    1  A    between atoms: C_1  and  C_2
REMARK    2  A    between atoms: C_2  and  C_3
REMARK                            x       y       z     vdW  Elec       q    Type
REMARK                         _______ _______ _______ _____ _____    ______ ____
ROOT
ATOM      1  C   UNL     1       4.417   6.674  17.390  0.00  0.00    +0.000 C 
ATOM      2  C   UNL     1       4.945   5.253  17.701  0.00  0.00    +0.000 C 
ATOM      3  C   UNL     1       5.579   4.684  16.425  0.00  0.00    +0.000 C 
ATOM      4  C   UNL     1       7.071   4.433  16.450  0.00  0.00    +0.000 C 
ATOM      5  O   UNL     1       7.794   4.870  17.594  0.00  0.00    +0.000 OA
ATOM      6  C   UNL     1       7.147   5.320  18.670  0.00  0.00    +0.000 C 
ATOM      7  N   UNL     1       8.005   5.570  19.681  0.00  0.00    +0.000 N 
ATOM      8  N   UNL     1       5.892   5.480  18.789  0.00  0.00    +0.000 NA
ATOM      9  H   UNL     1       8.866   5.045  19.639  0.00  0.00    +0.000 HD
ATOM     10  H   UNL     1       7.554   5.595  20.587  0.00  0.00    +0.000 HD
ENDROOT
BRANCH   2  11
ATOM     11  C   UNL     1       3.857   4.277  18.190  0.00  0.00    +0.000 A 
ATOM     12  C   UNL     1       3.609   3.096  17.460  0.00  0.00    +0.000 A 
ATOM     13  C   UNL     1       2.610   2.193  17.839  0.00  0.00    +0.000 A 
ATOM     14  C   UNL     1       1.824   2.453  18.956  0.00  0.00    +0.000 A 
ATOM     15  C   UNL     1       2.038   3.617  19.688  0.00  0.00    +0.000 A 
ATOM     16  C   UNL     1       3.035   4.516  19.303  0.00  0.00    +0.000 A 
ATOM     17  F   UNL     1       3.165   5.633  20.031  0.00  0.00    +0.000 F 
ENDBRANCH   2  11
TORSDOF 1
ENDMDL
MODEL 7
REMARK VINA RESULT:      -6.9      2.074      2.389
REMARK  Name = 
REMARK  2 active torsions:
REMARK  status: ('A' for Active; 'I' for Inactive)
REMARK    1  A    between atoms: C_1  and  C_2
REMARK    2  A    between atoms: C_2  and  C_3
REMARK                            x       y       z     vdW  Elec       q    Type
REMARK                         _______ _______ _______ _____ _____    ______ ____
ROOT
ATOM      1  C   UNL     1       3.581   6.652  17.857  0.00  0.00    +0.000 C 
ATOM      2  C   UNL     1       4.033   5.224  18.246  0.00  0.00    +0.000 C 
ATOM      3  C   UNL     1       4.345   4.451  16.958  0.00  0.00    +0.000 C 
ATOM      4  C   UNL     1       5.783   4.037  16.733  0.00  0.00    +0.000 C 
ATOM      5  O   UNL     1       6.758   4.515  17.651  0.00  0.00    +0.000 OA
ATOM      6  C   UNL     1       6.383   5.152  18.762  0.00  0.00    +0.000 C 
ATOM      7  N   UNL     1       7.447   5.414  19.550  0.00  0.00    +0.000 N 
ATOM      8  N   UNL     1       5.197   5.464  19.095  0.00  0.00    +0.000 NA
ATOM      9  H   UNL     1       8.232   4.795  19.416  0.00  0.00    +0.000 HD
ATOM     10  H   UNL     1       7.192   5.590  20.515  0.00  0.00    +0.000 HD
ENDROOT
BRANCH   2  11
ATOM     11  C   UNL     1       2.985   4.438  19.055  0.00  0.00    +0.000 A 
ATOM     12  C   UNL     1       3.350   3.873  20.295  0.00  0.00    +0.000 A 
ATOM     13  C   UNL     1       2.448   3.120  21.055  0.00  0.00    +0.000 A 
ATOM     14  C   UNL     1       1.156   2.904  20.588  0.00  0.00    +0.000 A 
ATOM     15  C   UNL     1       0.772   3.439  19.362  0.00  0.00    +0.000 A 
ATOM     16  C   UNL     1       1.678   4.188  18.608  0.00  0.00    +0.000 A 
ATOM     17  F   UNL     1       1.253   4.644  17.422  0.00  0.00    +0.000 F 
ENDBRANCH   2  11
TORSDOF 1
ENDMDL
MODEL 8
REMARK VINA RESULT:      -6.7      3.294      5.205
REMARK  Name = 
REMARK  2 active torsions:
REMARK  status: ('A' for Active; 'I' for Inactive)
REMARK    1  A    between atoms: C_1  and  C_2
REMARK    2  A    between atoms: C_2  and  C_3
REMARK                            x       y       z     vdW  Elec       q    Type
REMARK                         _______ _______ _______ _____ _____    ______ ____
ROOT
ATOM      1  C   UNL     1       3.718   1.586  18.238  0.00  0.00    +0.000 C 
ATOM      2  C   UNL     1       2.994   2.922  18.534  0.00  0.00    +0.000 C 
ATOM      3  C   UNL     1       1.540   2.797  18.062  0.00  0.00    +0.000 C 
ATOM      4  C   UNL     1       0.464   2.841  19.125  0.00  0.00    +0.000 C 
ATOM      5  O   UNL     1       0.880   2.852  20.485  0.00  0.00    +0.000 OA
ATOM      6  C   UNL     1       2.170   2.998  20.795  0.00  0.00    +0.000 C 
ATOM      7  N   UNL     1       2.337   3.101  22.130  0.00  0.00    +0.000 N 
ATOM      8  N   UNL     1       3.143   3.067  19.980  0.00  0.00    +0.000 NA
ATOM      9  H   UNL     1       1.529   3.442  22.629  0.00  0.00    +0.000 HD
ATOM     10  H   UNL     1       3.219   3.528  22.387  0.00  0.00    +0.000 HD
ENDROOT
BRANCH   2  11
ATOM     11  C   UNL     1       3.634   4.143  17.847  0.00  0.00    +0.000 A 
ATOM     12  C   UNL     1       4.702   3.949  16.947  0.00  0.00    +0.000 A 
ATOM     13  C   UNL     1       5.343   5.023  16.322  0.00  0.00    +0.000 A 
ATOM     14  C   UNL     1       4.936   6.326  16.589  0.00  0.00    +0.000 A 
ATOM     15  C   UNL     1       3.893   6.549  17.482  0.00  0.00    +0.000 A 
ATOM     16  C   UNL     1       3.259   5.471  18.105  0.00  0.00    +0.000 A 
ATOM     17  F   UNL     1       2.286   5.758  18.979  0.00  0.00    +0.000 F 
ENDBRANCH   2  11
TORSDOF 1
ENDMDL
MODEL 9
REMARK VINA RESULT:      -6.7      2.928      4.115
REMARK  Name = 
REMARK  2 active torsions:
REMARK  status: ('A' for Active; 'I' for Inactive)
REMARK    1  A    between atoms: C_1  and  C_2
REMARK    2  A    between atoms: C_2  and  C_3
REMARK                            x       y       z     vdW  Elec       q    Type
REMARK                         _______ _______ _______ _____ _____    ______ ____
ROOT
ATOM      1  C   UNL     1       4.406   4.754  16.876  0.00  0.00    +0.000 C 
ATOM      2  C   UNL     1       3.447   4.422  18.044  0.00  0.00    +0.000 C 
ATOM      3  C   UNL     1       2.321   3.530  17.505  0.00  0.00    +0.000 C 
ATOM      4  C   UNL     1       2.252   2.114  18.032  0.00  0.00    +0.000 C 
ATOM      5  O   UNL     1       3.309   1.670  18.873  0.00  0.00    +0.000 OA
ATOM      6  C   UNL     1       4.225   2.533  19.317  0.00  0.00    +0.000 C 
ATOM      7  N   UNL     1       5.065   1.939  20.190  0.00  0.00    +0.000 N 
ATOM      8  N   UNL     1       4.318   3.764  19.013  0.00  0.00    +0.000 NA
ATOM      9  H   UNL     1       4.679   1.134  20.661  0.00  0.00    +0.000 HD
ATOM     10  H   UNL     1       5.551   2.600  20.784  0.00  0.00    +0.000 HD
ENDROOT
BRANCH   2  11
ATOM     11  C   UNL     1       2.820   5.663  18.708  0.00  0.00    +0.000 A 
ATOM     12  C   UNL     1       2.873   6.905  18.040  0.00  0.00    +0.000 A 
ATOM     13  C   UNL     1       2.351   8.070  18.611  0.00  0.00    +0.000 A 
ATOM     14  C   UNL     1       1.768   8.026  19.873  0.00  0.00    +0.000 A 
ATOM     15  C   UNL     1       1.714   6.817  20.561  0.00  0.00    +0.000 A 
ATOM     16  C   UNL     1       2.239   5.658  19.986  0.00  0.00    +0.000 A 
ATOM     17  F   UNL     1       2.184   4.536  20.716  0.00  0.00    +0.000 F 
ENDBRANCH   2  11
TORSDOF 1
ENDMDL
