MODEL 1
REMARK VINA RESULT:      -6.6      0.000      0.000
REMARK  Name = 
REMARK  4 active torsions:
REMARK  status: ('A' for Active; 'I' for Inactive)
REMARK    1  A    between atoms: C_2  and  C_3
REMARK    2  A    between atoms: N_6  and  C_7
REMARK    3  A    between atoms: C_10  and  N_11
REMARK    4  A    between atoms: C_17  and  N_18
REMARK                            x       y       z     vdW  Elec       q    Type
REMARK                         _______ _______ _______ _____ _____    ______ ____
ROOT
ATOM      1  C   UNL     1       3.902   2.645  20.468  0.00  0.00    +0.000 A 
ATOM      2  N   UNL     1       4.285   3.335  19.336  0.00  0.00    +0.000 NA
ATOM      3  C   UNL     1       3.329   4.147  18.947  0.00  0.00    +0.000 A 
ATOM      4  N   UNL     1       3.382   5.003  17.898  0.00  0.00    +0.000 N 
ATOM      5  S   UNL     1       1.914   4.102  19.939  0.00  0.00    +0.000 S 
ATOM      6  C   UNL     1       2.637   2.919  20.953  0.00  0.00    +0.000 A 
ATOM      7  H   UNL     1       2.610   5.648  17.780  0.00  0.00    +0.000 HD
ENDROOT
BRANCH   4   8
ATOM      8  C   UNL     1       4.347   5.044  16.875  0.00  0.00    +0.000 A 
ATOM      9  C   UNL     1       4.858   6.239  16.346  0.00  0.00    +0.000 A 
ATOM     10  C   UNL     1       5.795   6.241  15.309  0.00  0.00    +0.000 A 
ATOM     11  C   UNL     1       6.225   5.026  14.772  0.00  0.00    +0.000 A 
ATOM     12  C   UNL     1       5.705   3.819  15.251  0.00  0.00    +0.000 A 
ATOM     13  C   UNL     1       4.770   3.836  16.293  0.00  0.00    +0.000 A 
BRANCH  11  14
ATOM     14  N   UNL     1       7.238   5.019  13.710  0.00  0.00    +0.000 N 
ATOM     15  O   UNL     1       8.259   5.700  13.881  0.00  0.00    +0.000 OA
ATOM     16  O   UNL     1       7.018   4.322  12.709  0.00  0.00    +0.000 OA
ENDBRANCH  11  14
ENDBRANCH   4   8
BRANCH   6  17
ATOM     17  N   UNL     1       1.984   2.416  22.024  0.00  0.00    +0.000 N 
ATOM     18  H   UNL     1       1.165   2.876  22.411  0.00  0.00    +0.000 HD
ATOM     19  H   UNL     1       2.276   1.571  22.512  0.00  0.00    +0.000 HD
ENDBRANCH   6  17
BRANCH   1  21
ATOM     20  N   UNL     1       5.565   0.972  21.545  0.00  0.00    +0.000 NA
ATOM     21  C   UNL     1       4.824   1.718  21.048  0.00  0.00    +0.000 C 
ENDBRANCH   1  21
TORSDOF 4
ENDMDL
MODEL 2
REMARK VINA RESULT:      -6.6      0.120      1.358
REMARK  Name = 
REMARK  4 active torsions:
REMARK  status: ('A' for Active; 'I' for Inactive)
REMARK    1  A    between atoms: C_2  and  C_3
REMARK    2  A    between atoms: N_6  and  C_7
REMARK    3  A    between atoms: C_10  and  N_11
REMARK    4  A    between atoms: C_17  and  N_18
REMARK                            x       y       z     vdW  Elec       q    Type
REMARK                         _______ _______ _______ _____ _____    ______ ____
ROOT
ATOM      1  C   UNL     1       3.934   2.639  20.440  0.00  0.00    +0.000 A 
ATOM      2  N   UNL     1       4.318   3.283  19.281  0.00  0.00    +0.000 NA
ATOM      3  C   UNL     1       3.373   4.101  18.875  0.00  0.00    +0.000 A 
ATOM      4  N   UNL     1       3.431   4.919  17.797  0.00  0.00    +0.000 N 
ATOM      5  S   UNL     1       1.969   4.117  19.883  0.00  0.00    +0.000 S 
ATOM      6  C   UNL     1       2.680   2.955  20.929  0.00  0.00    +0.000 A 
ATOM      7  H   UNL     1       2.671   5.575  17.665  0.00  0.00    +0.000 HD
ENDROOT
BRANCH   4   8
ATOM      8  C   UNL     1       4.385   4.906  16.762  0.00  0.00    +0.000 A 
ATOM      9  C   UNL     1       4.864   3.728  16.170  0.00  0.00    +0.000 A 
ATOM     10  C   UNL     1       5.834   3.755  15.164  0.00  0.00    +0.000 A 
ATOM     11  C   UNL     1       6.353   4.981  14.744  0.00  0.00    +0.000 A 
ATOM     12  C   UNL     1       5.925   6.170  15.343  0.00  0.00    +0.000 A 
ATOM     13  C   UNL     1       4.949   6.125  16.347  0.00  0.00    +0.000 A 
BRANCH  11  14
ATOM     14  N   UNL     1       7.342   5.019  13.662  0.00  0.00    +0.000 N 
ATOM     15  O   UNL     1       7.121   4.335  12.652  0.00  0.00    +0.000 OA
ATOM     16  O   UNL     1       8.337   5.743  13.815  0.00  0.00    +0.000 OA
ENDBRANCH  11  14
ENDBRANCH   4   8
BRANCH   6  17
ATOM     17  N   UNL     1       2.031   2.501  22.023  0.00  0.00    +0.000 N 
ATOM     18  H   UNL     1       1.041   2.274  21.997  0.00  0.00    +0.000 HD
ATOM     19  H   UNL     1       2.478   2.378  22.929  0.00  0.00    +0.000 HD
ENDBRANCH   6  17
BRANCH   1  21
ATOM     20  N   UNL     1       5.578   0.973  21.555  0.00  0.00    +0.000 NA
ATOM     21  C   UNL     1       4.845   1.715  21.041  0.00  0.00    +0.000 C 
ENDBRANCH   1  21
TORSDOF 4
ENDMDL
MODEL 3
REMARK VINA RESULT:      -6.6      5.030      6.400
REMARK  Name = 
REMARK  4 active torsions:
REMARK  status: ('A' for Active; 'I' for Inactive)
REMARK    1  A    between atoms: C_2  and  C_3
REMARK    2  A    between atoms: N_6  and  C_7
REMARK    3  A    between atoms: C_10  and  N_11
REMARK    4  A    between atoms: C_17  and  N_18
REMARK                            x       y       z     vdW  Elec       q    Type
REMARK                         _______ _______ _______ _____ _____    ______ ____
ROOT
ATOM      1  C   UNL     1       1.058   9.348  20.698  0.00  0.00    +0.000 A 
ATOM      2  N   UNL     1       1.710   8.239  20.199  0.00  0.00    +0.000 NA
ATOM      3  C   UNL     1       1.833   8.325  18.894  0.00  0.00    +0.000 A 
ATOM      4  N   UNL     1       2.455   7.433  18.088  0.00  0.00    +0.000 N 
ATOM      5  S   UNL     1       1.152   9.761  18.212  0.00  0.00    +0.000 S 
ATOM      6  C   UNL     1       0.666  10.296  19.771  0.00  0.00    +0.000 A 
ATOM      7  H   UNL     1       2.569   7.682  17.113  0.00  0.00    +0.000 HD
ENDROOT
BRANCH   4   8
ATOM      8  C   UNL     1       2.888   6.135  18.419  0.00  0.00    +0.000 A 
ATOM      9  C   UNL     1       4.145   5.862  18.979  0.00  0.00    +0.000 A 
ATOM     10  C   UNL     1       4.551   4.556  19.268  0.00  0.00    +0.000 A 
ATOM     11  C   UNL     1       3.695   3.492  18.979  0.00  0.00    +0.000 A 
ATOM     12  C   UNL     1       2.451   3.729  18.383  0.00  0.00    +0.000 A 
ATOM     13  C   UNL     1       2.059   5.045  18.104  0.00  0.00    +0.000 A 
BRANCH  11  14
ATOM     14  N   UNL     1       4.098   2.123  19.315  0.00  0.00    +0.000 N 
ATOM     15  O   UNL     1       4.850   1.964  20.288  0.00  0.00    +0.000 OA
ATOM     16  O   UNL     1       3.654   1.202  18.614  0.00  0.00    +0.000 OA
ENDBRANCH  11  14
ENDBRANCH   4   8
BRANCH   6  17
ATOM     17  N   UNL     1       0.020  11.470  19.942  0.00  0.00    +0.000 N 
ATOM     18  H   UNL     1      -0.985  11.506  20.091  0.00  0.00    +0.000 HD
ATOM     19  H   UNL     1       0.485  12.375  19.916  0.00  0.00    +0.000 HD
ENDBRANCH   6  17
BRANCH   1  21
ATOM     20  N   UNL     1       0.692   9.525  23.259  0.00  0.00    +0.000 NA
ATOM     21  C   UNL     1       0.843   9.438  22.109  0.00  0.00    +0.000 C 
ENDBRANCH   1  21
TORSDOF 4
ENDMDL
MODEL 4
REMARK VINA RESULT:      -6.5      5.392      6.554
REMARK  Name = 
REMARK  4 active torsions:
REMARK  status: ('A' for Active; 'I' for Inactive)
REMARK    1  A    between atoms: C_2  and  C_3
REMARK    2  A    between atoms: N_6  and  C_7
REMARK    3  A    between atoms: C_10  and  N_11
REMARK    4  A    between atoms: C_17  and  N_18
REMARK                            x       y       z     vdW  Elec       q    Type
REMARK                         _______ _______ _______ _____ _____    ______ ____
ROOT
ATOM      1  C   UNL     1       3.037   3.711  20.319  0.00  0.00    +0.000 A 
ATOM      2  N   UNL     1       2.602   4.970  19.958  0.00  0.00    +0.000 NA
ATOM      3  C   UNL     1       3.388   5.483  19.039  0.00  0.00    +0.000 A 
ATOM      4  N   UNL     1       3.232   6.683  18.430  0.00  0.00    +0.000 N 
ATOM      5  S   UNL     1       4.701   4.457  18.577  0.00  0.00    +0.000 S 
ATOM      6  C   UNL     1       4.173   3.250  19.680  0.00  0.00    +0.000 A 
ATOM      7  H   UNL     1       3.854   6.903  17.662  0.00  0.00    +0.000 HD
ENDROOT
BRANCH   4   8
ATOM      8  C   UNL     1       2.362   7.725  18.801  0.00  0.00    +0.000 A 
ATOM      9  C   UNL     1       1.896   7.911  20.111  0.00  0.00    +0.000 A 
ATOM     10  C   UNL     1       1.009   8.941  20.435  0.00  0.00    +0.000 A 
ATOM     11  C   UNL     1       0.559   9.799  19.430  0.00  0.00    +0.000 A 
ATOM     12  C   UNL     1       0.974   9.615  18.107  0.00  0.00    +0.000 A 
ATOM     13  C   UNL     1       1.867   8.580  17.801  0.00  0.00    +0.000 A 
BRANCH  11  14
ATOM     14  N   UNL     1      -0.342  10.906  19.770  0.00  0.00    +0.000 N 
ATOM     15  O   UNL     1      -0.368  11.290  20.948  0.00  0.00    +0.000 OA
ATOM     16  O   UNL     1      -1.015  11.403  18.855  0.00  0.00    +0.000 OA
ENDBRANCH  11  14
ENDBRANCH   4   8
BRANCH   6  17
ATOM     17  N   UNL     1       4.835   2.080  19.813  0.00  0.00    +0.000 N 
ATOM     18  H   UNL     1       5.405   1.882  20.631  0.00  0.00    +0.000 HD
ATOM     19  H   UNL     1       4.820   1.344  19.109  0.00  0.00    +0.000 HD
ENDBRANCH   6  17
BRANCH   1  21
ATOM     20  N   UNL     1       1.670   2.418  22.103  0.00  0.00    +0.000 NA
ATOM     21  C   UNL     1       2.294   2.988  21.304  0.00  0.00    +0.000 C 
ENDBRANCH   1  21
TORSDOF 4
ENDMDL
MODEL 5
REMARK VINA RESULT:      -6.5      2.234      3.327
REMARK  Name = 
REMARK  4 active torsions:
REMARK  status: ('A' for Active; 'I' for Inactive)
REMARK    1  A    between atoms: C_2  and  C_3
REMARK    2  A    between atoms: N_6  and  C_7
REMARK    3  A    between atoms: C_10  and  N_11
REMARK    4  A    between atoms: C_17  and  N_18
REMARK                            x       y       z     vdW  Elec       q    Type
REMARK                         _______ _______ _______ _____ _____    ______ ____
ROOT
ATOM      1  C   UNL     1       2.936   6.110  19.005  0.00  0.00    +0.000 A 
ATOM      2  N   UNL     1       3.769   5.634  18.012  0.00  0.00    +0.000 NA
ATOM      3  C   UNL     1       4.152   4.407  18.282  0.00  0.00    +0.000 A 
ATOM      4  N   UNL     1       4.938   3.625  17.504  0.00  0.00    +0.000 N 
ATOM      5  S   UNL     1       3.520   3.778  19.763  0.00  0.00    +0.000 S 
ATOM      6  C   UNL     1       2.680   5.247  20.054  0.00  0.00    +0.000 A 
ATOM      7  H   UNL     1       5.063   2.660  17.786  0.00  0.00    +0.000 HD
ENDROOT
BRANCH   4   8
ATOM      8  C   UNL     1       5.695   4.015  16.385  0.00  0.00    +0.000 A 
ATOM      9  C   UNL     1       6.890   4.744  16.479  0.00  0.00    +0.000 A 
ATOM     10  C   UNL     1       7.601   5.138  15.342  0.00  0.00    +0.000 A 
ATOM     11  C   UNL     1       7.105   4.815  14.078  0.00  0.00    +0.000 A 
ATOM     12  C   UNL     1       5.896   4.123  13.950  0.00  0.00    +0.000 A 
ATOM     13  C   UNL     1       5.200   3.732  15.100  0.00  0.00    +0.000 A 
BRANCH  11  14
ATOM     14  N   UNL     1       7.866   5.191  12.881  0.00  0.00    +0.000 N 
ATOM     15  O   UNL     1       7.513   4.709  11.796  0.00  0.00    +0.000 OA
ATOM     16  O   UNL     1       8.811   5.981  13.024  0.00  0.00    +0.000 OA
ENDBRANCH  11  14
ENDBRANCH   4   8
BRANCH   6  17
ATOM     17  N   UNL     1       1.918   5.416  21.157  0.00  0.00    +0.000 N 
ATOM     18  H   UNL     1       1.295   4.686  21.489  0.00  0.00    +0.000 HD
ATOM     19  H   UNL     1       1.907   6.275  21.704  0.00  0.00    +0.000 HD
ENDBRANCH   6  17
BRANCH   1  21
ATOM     20  N   UNL     1       1.972   8.503  18.745  0.00  0.00    +0.000 NA
ATOM     21  C   UNL     1       2.406   7.432  18.877  0.00  0.00    +0.000 C 
ENDBRANCH   1  21
TORSDOF 4
ENDMDL
MODEL 6
REMARK VINA RESULT:      -6.5      2.510      3.807
REMARK  Name = 
REMARK  4 active torsions:
REMARK  status: ('A' for Active; 'I' for Inactive)
REMARK    1  A    between atoms: C_2  and  C_3
REMARK    2  A    between atoms: N_6  and  C_7
REMARK    3  A    between atoms: C_10  and  N_11
REMARK    4  A    between atoms: C_17  and  N_18
REMARK                            x       y       z     vdW  Elec       q    Type
REMARK                         _______ _______ _______ _____ _____    ______ ____
ROOT
ATOM      1  C   UNL     1       2.638   6.952  18.733  0.00  0.00    +0.000 A 
ATOM      2  N   UNL     1       3.462   6.323  17.822  0.00  0.00    +0.000 NA
ATOM      3  C   UNL     1       3.846   5.153  18.279  0.00  0.00    +0.000 A 
ATOM      4  N   UNL     1       4.623   4.255  17.629  0.00  0.00    +0.000 N 
ATOM      5  S   UNL     1       3.226   4.768  19.847  0.00  0.00    +0.000 S 
ATOM      6  C   UNL     1       2.390   6.267  19.908  0.00  0.00    +0.000 A 
ATOM      7  H   UNL     1       4.750   3.347  18.059  0.00  0.00    +0.000 HD
ENDROOT
BRANCH   4   8
ATOM      8  C   UNL     1       5.372   4.461  16.455  0.00  0.00    +0.000 A 
ATOM      9  C   UNL     1       4.901   4.134  15.174  0.00  0.00    +0.000 A 
ATOM     10  C   UNL     1       5.685   4.327  14.033  0.00  0.00    +0.000 A 
ATOM     11  C   UNL     1       6.976   4.843  14.168  0.00  0.00    +0.000 A 
ATOM     12  C   UNL     1       7.488   5.142  15.435  0.00  0.00    +0.000 A 
ATOM     13  C   UNL     1       6.686   4.946  16.566  0.00  0.00    +0.000 A 
BRANCH  11  14
ATOM     14  N   UNL     1       7.790   5.085  12.971  0.00  0.00    +0.000 N 
ATOM     15  O   UNL     1       7.491   4.474  11.935  0.00  0.00    +0.000 OA
ATOM     16  O   UNL     1       8.723   5.895  13.063  0.00  0.00    +0.000 OA
ENDBRANCH  11  14
ENDBRANCH   4   8
BRANCH   6  17
ATOM     17  N   UNL     1       1.638   6.611  20.977  0.00  0.00    +0.000 N 
ATOM     18  H   UNL     1       2.031   6.644  21.913  0.00  0.00    +0.000 HD
ATOM     19  H   UNL     1       0.647   6.836  20.916  0.00  0.00    +0.000 HD
ENDBRANCH   6  17
BRANCH   1  21
ATOM     20  N   UNL     1       1.686   9.281  18.106  0.00  0.00    +0.000 NA
ATOM     21  C   UNL     1       2.108   8.239  18.402  0.00  0.00    +0.000 C 
ENDBRANCH   1  21
TORSDOF 4
ENDMDL
MODEL 7
REMARK VINA RESULT:      -6.5      2.238      3.323
REMARK  Name = 
REMARK  4 active torsions:
REMARK  status: ('A' for Active; 'I' for Inactive)
REMARK    1  A    between atoms: C_2  and  C_3
REMARK    2  A    between atoms: N_6  and  C_7
REMARK    3  A    between atoms: C_10  and  N_11
REMARK    4  A    between atoms: C_17  and  N_18
REMARK                            x       y       z     vdW  Elec       q    Type
REMARK                         _______ _______ _______ _____ _____    ______ ____
ROOT
ATOM      1  C   UNL     1       2.916   6.078  19.014  0.00  0.00    +0.000 A 
ATOM      2  N   UNL     1       3.710   5.610  17.986  0.00  0.00    +0.000 NA
ATOM      3  C   UNL     1       4.095   4.378  18.226  0.00  0.00    +0.000 A 
ATOM      4  N   UNL     1       4.848   3.601  17.411  0.00  0.00    +0.000 N 
ATOM      5  S   UNL     1       3.512   3.732  19.721  0.00  0.00    +0.000 S 
ATOM      6  C   UNL     1       2.691   5.202  20.060  0.00  0.00    +0.000 A 
ATOM      7  H   UNL     1       4.977   2.631  17.676  0.00  0.00    +0.000 HD
ENDROOT
BRANCH   4   8
ATOM      8  C   UNL     1       5.568   4.001  16.271  0.00  0.00    +0.000 A 
ATOM      9  C   UNL     1       5.198   3.650  14.964  0.00  0.00    +0.000 A 
ATOM     10  C   UNL     1       5.955   4.043  13.857  0.00  0.00    +0.000 A 
ATOM     11  C   UNL     1       7.118   4.790  14.052  0.00  0.00    +0.000 A 
ATOM     12  C   UNL     1       7.535   5.122  15.345  0.00  0.00    +0.000 A 
ATOM     13  C   UNL     1       6.761   4.724  16.443  0.00  0.00    +0.000 A 
BRANCH  11  14
ATOM     14  N   UNL     1       7.896   5.239  12.892  0.00  0.00    +0.000 N 
ATOM     15  O   UNL     1       8.859   5.992  13.098  0.00  0.00    +0.000 OA
ATOM     16  O   UNL     1       7.552   4.829  11.774  0.00  0.00    +0.000 OA
ENDBRANCH  11  14
ENDBRANCH   4   8
BRANCH   6  17
ATOM     17  N   UNL     1       1.970   5.361  21.191  0.00  0.00    +0.000 N 
ATOM     18  H   UNL     1       0.991   5.635  21.163  0.00  0.00    +0.000 HD
ATOM     19  H   UNL     1       2.357   5.237  22.125  0.00  0.00    +0.000 HD
ENDBRANCH   6  17
BRANCH   1  21
ATOM     20  N   UNL     1       1.941   8.475  18.863  0.00  0.00    +0.000 NA
ATOM     21  C   UNL     1       2.389   7.404  18.921  0.00  0.00    +0.000 C 
ENDBRANCH   1  21
TORSDOF 4
ENDMDL
MODEL 8
REMARK VINA RESULT:      -6.5      5.417      6.552
REMARK  Name = 
REMARK  4 active torsions:
REMARK  status: ('A' for Active; 'I' for Inactive)
REMARK    1  A    between atoms: C_2  and  C_3
REMARK    2  A    between atoms: N_6  and  C_7
REMARK    3  A    between atoms: C_10  and  N_11
REMARK    4  A    between atoms: C_17  and  N_18
REMARK                            x       y       z     vdW  Elec       q    Type
REMARK                         _______ _______ _______ _____ _____    ______ ____
ROOT
ATOM      1  C   UNL     1       3.053   3.750  20.288  0.00  0.00    +0.000 A 
ATOM      2  N   UNL     1       2.597   4.995  19.905  0.00  0.00    +0.000 NA
ATOM      3  C   UNL     1       3.397   5.521  19.006  0.00  0.00    +0.000 A 
ATOM      4  N   UNL     1       3.230   6.712  18.384  0.00  0.00    +0.000 N 
ATOM      5  S   UNL     1       4.748   4.525  18.591  0.00  0.00    +0.000 S 
ATOM      6  C   UNL     1       4.218   3.313  19.687  0.00  0.00    +0.000 A 
ATOM      7  H   UNL     1       3.868   6.942  17.632  0.00  0.00    +0.000 HD
ENDROOT
BRANCH   4   8
ATOM      8  C   UNL     1       2.323   7.734  18.720  0.00  0.00    +0.000 A 
ATOM      9  C   UNL     1       1.846   8.676  17.796  0.00  0.00    +0.000 A 
ATOM     10  C   UNL     1       0.967   9.695  18.174  0.00  0.00    +0.000 A 
ATOM     11  C   UNL     1       0.563   9.792  19.507  0.00  0.00    +0.000 A 
ATOM     12  C   UNL     1       1.052   8.893  20.460  0.00  0.00    +0.000 A 
ATOM     13  C   UNL     1       1.929   7.875  20.062  0.00  0.00    +0.000 A 
BRANCH  11  14
ATOM     14  N   UNL     1      -0.390  10.835  19.903  0.00  0.00    +0.000 N 
ATOM     15  O   UNL     1      -0.151  11.475  20.937  0.00  0.00    +0.000 OA
ATOM     16  O   UNL     1      -1.373  11.025  19.172  0.00  0.00    +0.000 OA
ENDBRANCH  11  14
ENDBRANCH   4   8
BRANCH   6  17
ATOM     17  N   UNL     1       4.905   2.161  19.848  0.00  0.00    +0.000 N 
ATOM     18  H   UNL     1       5.491   2.001  20.664  0.00  0.00    +0.000 HD
ATOM     19  H   UNL     1       4.894   1.402  19.170  0.00  0.00    +0.000 HD
ENDBRANCH   6  17
BRANCH   1  21
ATOM     20  N   UNL     1       1.711   2.413  22.059  0.00  0.00    +0.000 NA
ATOM     21  C   UNL     1       2.300   3.015  21.257  0.00  0.00    +0.000 C 
ENDBRANCH   1  21
TORSDOF 4
ENDMDL
MODEL 9
REMARK VINA RESULT:      -6.5      5.027      6.449
REMARK  Name = 
REMARK  4 active torsions:
REMARK  status: ('A' for Active; 'I' for Inactive)
REMARK    1  A    between atoms: C_2  and  C_3
REMARK    2  A    between atoms: N_6  and  C_7
REMARK    3  A    between atoms: C_10  and  N_11
REMARK    4  A    between atoms: C_17  and  N_18
REMARK                            x       y       z     vdW  Elec       q    Type
REMARK                         _______ _______ _______ _____ _____    ______ ____
ROOT
ATOM      1  C   UNL     1       1.109   9.348  20.715  0.00  0.00    +0.000 A 
ATOM      2  N   UNL     1       1.729   8.229  20.198  0.00  0.00    +0.000 NA
ATOM      3  C   UNL     1       1.884   8.347  18.899  0.00  0.00    +0.000 A 
ATOM      4  N   UNL     1       2.490   7.455  18.080  0.00  0.00    +0.000 N 
ATOM      5  S   UNL     1       1.274   9.827  18.245  0.00  0.00    +0.000 S 
ATOM      6  C   UNL     1       0.775  10.336  19.808  0.00  0.00    +0.000 A 
ATOM      7  H   UNL     1       2.635   7.727  17.115  0.00  0.00    +0.000 HD
ENDROOT
BRANCH   4   8
ATOM      8  C   UNL     1       2.866   6.133  18.382  0.00  0.00    +0.000 A 
ATOM      9  C   UNL     1       1.977   5.048  18.329  0.00  0.00    +0.000 A 
ATOM     10  C   UNL     1       2.381   3.753  18.663  0.00  0.00    +0.000 A 
ATOM     11  C   UNL     1       3.695   3.529  19.077  0.00  0.00    +0.000 A 
ATOM     12  C   UNL     1       4.594   4.596  19.178  0.00  0.00    +0.000 A 
ATOM     13  C   UNL     1       4.174   5.887  18.835  0.00  0.00    +0.000 A 
BRANCH  11  14
ATOM     14  N   UNL     1       4.136   2.166  19.392  0.00  0.00    +0.000 N 
ATOM     15  O   UNL     1       4.881   2.010  20.370  0.00  0.00    +0.000 OA
ATOM     16  O   UNL     1       3.726   1.246  18.669  0.00  0.00    +0.000 OA
ENDBRANCH  11  14
ENDBRANCH   4   8
BRANCH   6  17
ATOM     17  N   UNL     1       0.170  11.529  20.000  0.00  0.00    +0.000 N 
ATOM     18  H   UNL     1      -0.815  11.592  20.239  0.00  0.00    +0.000 HD
ATOM     19  H   UNL     1       0.649  12.422  19.902  0.00  0.00    +0.000 HD
ENDBRANCH   6  17
BRANCH   1  21
ATOM     20  N   UNL     1       0.690   9.471  23.271  0.00  0.00    +0.000 NA
ATOM     21  C   UNL     1       0.867   9.406  22.123  0.00  0.00    +0.000 C 
ENDBRANCH   1  21
TORSDOF 4
ENDMDL
