MODEL 1
REMARK VINA RESULT:      -7.2      0.000      0.000
REMARK  Name = 
REMARK  5 active torsions:
REMARK  status: ('A' for Active; 'I' for Inactive)
REMARK    1  A    between atoms: C_1  and  N_2
REMARK    2  A    between atoms: N_2  and  C_3
REMARK    3  A    between atoms: N_2  and  C_13
REMARK    4  A    between atoms: C_3  and  C_4
REMARK    5  A    between atoms: C_4  and  C_5
REMARK                            x       y       z     vdW  Elec       q    Type
REMARK                         _______ _______ _______ _____ _____    ______ ____
ROOT
ATOM      1  C   UNL     1       6.442   4.183  14.302  0.00  0.00    +0.000 C 
ATOM      2  N   UNL     1       5.802   4.761  15.492  0.00  0.00    +0.000 NA
ENDROOT
BRANCH   2   3
ATOM      3  C   UNL     1       6.792   5.476  16.354  0.00  0.00    +0.000 C 
ATOM      4  C   UNL     1       7.351   4.553  17.496  0.00  0.00    +0.000 C 
ATOM      5  N   UNL     1       7.391   5.211  18.824  0.00  0.00    +0.000 NA
ATOM      6  C   UNL     1       8.157   6.466  18.725  0.00  0.00    +0.000 C 
ATOM      7  C   UNL     1       7.537   7.437  17.712  0.00  0.00    +0.000 C 
ATOM      8  C   UNL     1       6.302   6.784  17.057  0.00  0.00    +0.000 C 
ATOM      9  C   UNL     1       5.321   6.459  18.194  0.00  0.00    +0.000 C 
ATOM     10  C   UNL     1       5.993   5.515  19.202  0.00  0.00    +0.000 C 
ENDBRANCH   2   3
BRANCH   2  11
ATOM     11  C   UNL     1       5.119   3.686  16.270  0.00  0.00    +0.000 C 
BRANCH  11  12
ATOM     12  C   UNL     1       3.577   3.752  16.237  0.00  0.00    +0.000 C 
BRANCH  12  13
ATOM     13  C   UNL     1       2.924   3.492  17.579  0.00  0.00    +0.000 A 
ATOM     14  C   UNL     1       2.731   2.179  18.032  0.00  0.00    +0.000 A 
ATOM     15  C   UNL     1       2.200   1.936  19.303  0.00  0.00    +0.000 A 
ATOM     16  C   UNL     1       1.853   2.999  20.138  0.00  0.00    +0.000 A 
ATOM     17 CL   UNL     1       1.240   2.624  21.710  0.00  0.00    +0.000 Cl
ATOM     18  C   UNL     1       2.025   4.314  19.694  0.00  0.00    +0.000 A 
ATOM     19 CL   UNL     1       1.619   5.682  20.666  0.00  0.00    +0.000 Cl
ATOM     20  C   UNL     1       2.557   4.558  18.422  0.00  0.00    +0.000 A 
ENDBRANCH  12  13
ENDBRANCH  11  12
ENDBRANCH   2  11
TORSDOF 4
ENDMDL
MODEL 2
REMARK VINA RESULT:      -7.0      3.268      4.701
REMARK  Name = 
REMARK  5 active torsions:
REMARK  status: ('A' for Active; 'I' for Inactive)
REMARK    1  A    between atoms: C_1  and  N_2
REMARK    2  A    between atoms: N_2  and  C_3
REMARK    3  A    between atoms: N_2  and  C_13
REMARK    4  A    between atoms: C_3  and  C_4
REMARK    5  A    between atoms: C_4  and  C_5
REMARK                            x       y       z     vdW  Elec       q    Type
REMARK                         _______ _______ _______ _____ _____    ______ ____
ROOT
ATOM      1  C   UNL     1       4.174   3.456  18.877  0.00  0.00    +0.000 C 
ATOM      2  N   UNL     1       4.079   4.633  18.002  0.00  0.00    +0.000 NA
ENDROOT
BRANCH   2   3
ATOM      3  C   UNL     1       5.219   5.575  18.224  0.00  0.00    +0.000 C 
ATOM      4  C   UNL     1       5.307   6.666  17.097  0.00  0.00    +0.000 C 
ATOM      5  N   UNL     1       6.682   6.879  16.585  0.00  0.00    +0.000 NA
ATOM      6  C   UNL     1       7.579   7.197  17.710  0.00  0.00    +0.000 C 
ATOM      7  C   UNL     1       7.610   6.072  18.753  0.00  0.00    +0.000 C 
ATOM      8  C   UNL     1       6.646   4.945  18.328  0.00  0.00    +0.000 C 
ATOM      9  C   UNL     1       7.127   4.449  16.955  0.00  0.00    +0.000 C 
ATOM     10  C   UNL     1       7.114   5.613  15.953  0.00  0.00    +0.000 C 
ENDBRANCH   2   3
BRANCH   2  11
ATOM     11  C   UNL     1       2.779   5.331  18.233  0.00  0.00    +0.000 C 
BRANCH  11  12
ATOM     12  C   UNL     1       2.701   6.116  19.559  0.00  0.00    +0.000 C 
BRANCH  12  13
ATOM     13  C   UNL     1       2.110   7.504  19.415  0.00  0.00    +0.000 A 
ATOM     14  C   UNL     1       2.070   8.132  18.161  0.00  0.00    +0.000 A 
ATOM     15  C   UNL     1       1.454   9.379  18.010  0.00  0.00    +0.000 A 
ATOM     16  C   UNL     1       0.874  10.017  19.108  0.00  0.00    +0.000 A 
ATOM     17 CL   UNL     1       0.098  11.538  18.839  0.00  0.00    +0.000 Cl
ATOM     18  C   UNL     1       0.921   9.410  20.366  0.00  0.00    +0.000 A 
ATOM     19 CL   UNL     1       0.227  10.136  21.772  0.00  0.00    +0.000 Cl
ATOM     20  C   UNL     1       1.535   8.162  20.519  0.00  0.00    +0.000 A 
ENDBRANCH  12  13
ENDBRANCH  11  12
ENDBRANCH   2  11
TORSDOF 4
ENDMDL
MODEL 3
REMARK VINA RESULT:      -6.9      0.985      1.393
REMARK  Name = 
REMARK  5 active torsions:
REMARK  status: ('A' for Active; 'I' for Inactive)
REMARK    1  A    between atoms: C_1  and  N_2
REMARK    2  A    between atoms: N_2  and  C_3
REMARK    3  A    between atoms: N_2  and  C_13
REMARK    4  A    between atoms: C_3  and  C_4
REMARK    5  A    between atoms: C_4  and  C_5
REMARK                            x       y       z     vdW  Elec       q    Type
REMARK                         _______ _______ _______ _____ _____    ______ ____
ROOT
ATOM      1  C   UNL     1       6.161   4.224  14.231  0.00  0.00    +0.000 C 
ATOM      2  N   UNL     1       5.587   4.742  15.480  0.00  0.00    +0.000 NA
ENDROOT
BRANCH   2   3
ATOM      3  C   UNL     1       6.621   5.423  16.318  0.00  0.00    +0.000 C 
ATOM      4  C   UNL     1       7.126   4.506  17.489  0.00  0.00    +0.000 C 
ATOM      5  N   UNL     1       7.210   5.203  18.794  0.00  0.00    +0.000 NA
ATOM      6  C   UNL     1       8.052   6.404  18.653  0.00  0.00    +0.000 C 
ATOM      7  C   UNL     1       7.490   7.378  17.609  0.00  0.00    +0.000 C 
ATOM      8  C   UNL     1       6.216   6.781  16.977  0.00  0.00    +0.000 C 
ATOM      9  C   UNL     1       5.219   6.556  18.125  0.00  0.00    +0.000 C 
ATOM     10  C   UNL     1       5.835   5.605  19.164  0.00  0.00    +0.000 C 
ENDBRANCH   2   3
BRANCH   2  11
ATOM     11  C   UNL     1       4.953   3.628  16.245  0.00  0.00    +0.000 C 
BRANCH  11  12
ATOM     12  C   UNL     1       3.420   3.739  16.384  0.00  0.00    +0.000 C 
BRANCH  12  13
ATOM     13  C   UNL     1       2.913   3.497  17.792  0.00  0.00    +0.000 A 
ATOM     14  C   UNL     1       1.582   3.789  18.126  0.00  0.00    +0.000 A 
ATOM     15  C   UNL     1       1.089   3.493  19.401  0.00  0.00    +0.000 A 
ATOM     16  C   UNL     1       1.917   2.907  20.360  0.00  0.00    +0.000 A 
ATOM     17 CL   UNL     1       1.230   2.535  21.901  0.00  0.00    +0.000 Cl
ATOM     18  C   UNL     1       3.250   2.626  20.045  0.00  0.00    +0.000 A 
ATOM     19 CL   UNL     1       4.337   1.902  21.176  0.00  0.00    +0.000 Cl
ATOM     20  C   UNL     1       3.745   2.919  18.769  0.00  0.00    +0.000 A 
ENDBRANCH  12  13
ENDBRANCH  11  12
ENDBRANCH   2  11
TORSDOF 4
ENDMDL
MODEL 4
REMARK VINA RESULT:      -6.9      3.014      4.469
REMARK  Name = 
REMARK  5 active torsions:
REMARK  status: ('A' for Active; 'I' for Inactive)
REMARK    1  A    between atoms: C_1  and  N_2
REMARK    2  A    between atoms: N_2  and  C_3
REMARK    3  A    between atoms: N_2  and  C_13
REMARK    4  A    between atoms: C_3  and  C_4
REMARK    5  A    between atoms: C_4  and  C_5
REMARK                            x       y       z     vdW  Elec       q    Type
REMARK                         _______ _______ _______ _____ _____    ______ ____
ROOT
ATOM      1  C   UNL     1       4.653   3.377  19.401  0.00  0.00    +0.000 C 
ATOM      2  N   UNL     1       4.389   4.378  18.357  0.00  0.00    +0.000 NA
ENDROOT
BRANCH   2   3
ATOM      3  C   UNL     1       5.403   5.475  18.382  0.00  0.00    +0.000 C 
ATOM      4  C   UNL     1       5.231   6.462  17.172  0.00  0.00    +0.000 C 
ATOM      5  N   UNL     1       6.508   6.804  16.500  0.00  0.00    +0.000 NA
ATOM      6  C   UNL     1       7.456   7.337  17.496  0.00  0.00    +0.000 C 
ATOM      7  C   UNL     1       7.742   6.325  18.613  0.00  0.00    +0.000 C 
ATOM      8  C   UNL     1       6.907   5.048  18.382  0.00  0.00    +0.000 C 
ATOM      9  C   UNL     1       7.318   4.496  17.007  0.00  0.00    +0.000 C 
ATOM     10  C   UNL     1       7.049   5.553  15.925  0.00  0.00    +0.000 C 
ENDBRANCH   2   3
BRANCH   2  11
ATOM     11  C   UNL     1       3.016   4.938  18.529  0.00  0.00    +0.000 C 
BRANCH  11  12
ATOM     12  C   UNL     1       2.695   5.419  19.960  0.00  0.00    +0.000 C 
BRANCH  12  13
ATOM     13  C   UNL     1       2.035   6.782  20.015  0.00  0.00    +0.000 A 
ATOM     14  C   UNL     1       1.291   7.164  21.140  0.00  0.00    +0.000 A 
ATOM     15  C   UNL     1       0.747   8.450  21.229  0.00  0.00    +0.000 A 
ATOM     16  C   UNL     1       0.936   9.369  20.195  0.00  0.00    +0.000 A 
ATOM     17 CL   UNL     1       0.268  10.951  20.390  0.00  0.00    +0.000 Cl
ATOM     18  C   UNL     1       1.663   8.996  19.061  0.00  0.00    +0.000 A 
ATOM     19 CL   UNL     1       1.940  10.075  17.741  0.00  0.00    +0.000 Cl
ATOM     20  C   UNL     1       2.209   7.710  18.971  0.00  0.00    +0.000 A 
ENDBRANCH  12  13
ENDBRANCH  11  12
ENDBRANCH   2  11
TORSDOF 4
ENDMDL
MODEL 5
REMARK VINA RESULT:      -6.8      3.495      5.957
REMARK  Name = 
REMARK  5 active torsions:
REMARK  status: ('A' for Active; 'I' for Inactive)
REMARK    1  A    between atoms: C_1  and  N_2
REMARK    2  A    between atoms: N_2  and  C_3
REMARK    3  A    between atoms: N_2  and  C_13
REMARK    4  A    between atoms: C_3  and  C_4
REMARK    5  A    between atoms: C_4  and  C_5
REMARK                            x       y       z     vdW  Elec       q    Type
REMARK                         _______ _______ _______ _____ _____    ______ ____
ROOT
ATOM      1  C   UNL     1       4.240   6.803  17.560  0.00  0.00    +0.000 C 
ATOM      2  N   UNL     1       4.722   5.490  18.009  0.00  0.00    +0.000 NA
ENDROOT
BRANCH   2   3
ATOM      3  C   UNL     1       3.762   4.849  18.959  0.00  0.00    +0.000 C 
ATOM      4  C   UNL     1       4.266   3.444  19.446  0.00  0.00    +0.000 C 
ATOM      5  N   UNL     1       3.217   2.397  19.422  0.00  0.00    +0.000 NA
ATOM      6  C   UNL     1       2.055   2.851  20.207  0.00  0.00    +0.000 C 
ATOM      7  C   UNL     1       1.464   4.154  19.654  0.00  0.00    +0.000 C 
ATOM      8  C   UNL     1       2.301   4.631  18.448  0.00  0.00    +0.000 C 
ATOM      9  C   UNL     1       2.249   3.505  17.403  0.00  0.00    +0.000 C 
ATOM     10  C   UNL     1       2.816   2.212  18.010  0.00  0.00    +0.000 C 
ENDBRANCH   2   3
BRANCH   2  11
ATOM     11  C   UNL     1       6.063   5.634  18.648  0.00  0.00    +0.000 C 
BRANCH  11  12
ATOM     12  C   UNL     1       7.214   4.944  17.885  0.00  0.00    +0.000 C 
BRANCH  12  13
ATOM     13  C   UNL     1       6.857   4.547  16.466  0.00  0.00    +0.000 A 
ATOM     14  C   UNL     1       5.811   3.645  16.224  0.00  0.00    +0.000 A 
ATOM     15  C   UNL     1       5.427   3.338  14.914  0.00  0.00    +0.000 A 
ATOM     16  C   UNL     1       6.083   3.923  13.830  0.00  0.00    +0.000 A 
ATOM     17 CL   UNL     1       5.530   3.526  12.242  0.00  0.00    +0.000 Cl
ATOM     18  C   UNL     1       7.138   4.812  14.058  0.00  0.00    +0.000 A 
ATOM     19 CL   UNL     1       8.000   5.576  12.770  0.00  0.00    +0.000 Cl
ATOM     20  C   UNL     1       7.523   5.122  15.367  0.00  0.00    +0.000 A 
ENDBRANCH  12  13
ENDBRANCH  11  12
ENDBRANCH   2  11
TORSDOF 4
ENDMDL
MODEL 6
REMARK VINA RESULT:      -6.8      3.776      6.314
REMARK  Name = 
REMARK  5 active torsions:
REMARK  status: ('A' for Active; 'I' for Inactive)
REMARK    1  A    between atoms: C_1  and  N_2
REMARK    2  A    between atoms: N_2  and  C_3
REMARK    3  A    between atoms: N_2  and  C_13
REMARK    4  A    between atoms: C_3  and  C_4
REMARK    5  A    between atoms: C_4  and  C_5
REMARK                            x       y       z     vdW  Elec       q    Type
REMARK                         _______ _______ _______ _____ _____    ______ ____
ROOT
ATOM      1  C   UNL     1       2.931   7.167  18.756  0.00  0.00    +0.000 C 
ATOM      2  N   UNL     1       3.205   5.789  18.325  0.00  0.00    +0.000 NA
ENDROOT
BRANCH   2   3
ATOM      3  C   UNL     1       2.443   4.798  19.145  0.00  0.00    +0.000 C 
ATOM      4  C   UNL     1       3.394   3.909  20.025  0.00  0.00    +0.000 C 
ATOM      5  N   UNL     1       3.059   2.465  19.987  0.00  0.00    +0.000 NA
ATOM      6  C   UNL     1       1.648   2.280  20.369  0.00  0.00    +0.000 C 
ATOM      7  C   UNL     1       0.697   3.032  19.429  0.00  0.00    +0.000 C 
ATOM      8  C   UNL     1       1.515   3.805  18.373  0.00  0.00    +0.000 C 
ATOM      9  C   UNL     1       2.347   2.760  17.611  0.00  0.00    +0.000 C 
ATOM     10  C   UNL     1       3.257   2.007  18.593  0.00  0.00    +0.000 C 
ENDBRANCH   2   3
BRANCH   2  11
ATOM     11  C   UNL     1       4.669   5.514  18.410  0.00  0.00    +0.000 C 
BRANCH  11  12
ATOM     12  C   UNL     1       5.523   6.268  17.369  0.00  0.00    +0.000 C 
BRANCH  12  13
ATOM     13  C   UNL     1       5.820   5.462  16.120  0.00  0.00    +0.000 A 
ATOM     14  C   UNL     1       4.997   4.387  15.757  0.00  0.00    +0.000 A 
ATOM     15  C   UNL     1       5.221   3.691  14.564  0.00  0.00    +0.000 A 
ATOM     16  C   UNL     1       6.271   4.057  13.720  0.00  0.00    +0.000 A 
ATOM     17 CL   UNL     1       6.465   3.178  12.245  0.00  0.00    +0.000 Cl
ATOM     18  C   UNL     1       7.110   5.117  14.078  0.00  0.00    +0.000 A 
ATOM     19 CL   UNL     1       8.430   5.629  13.089  0.00  0.00    +0.000 Cl
ATOM     20  C   UNL     1       6.886   5.815  15.270  0.00  0.00    +0.000 A 
ENDBRANCH  12  13
ENDBRANCH  11  12
ENDBRANCH   2  11
TORSDOF 4
ENDMDL
MODEL 7
REMARK VINA RESULT:      -6.8      3.654      5.736
REMARK  Name = 
REMARK  5 active torsions:
REMARK  status: ('A' for Active; 'I' for Inactive)
REMARK    1  A    between atoms: C_1  and  N_2
REMARK    2  A    between atoms: N_2  and  C_3
REMARK    3  A    between atoms: N_2  and  C_13
REMARK    4  A    between atoms: C_3  and  C_4
REMARK    5  A    between atoms: C_4  and  C_5
REMARK                            x       y       z     vdW  Elec       q    Type
REMARK                         _______ _______ _______ _____ _____    ______ ____
ROOT
ATOM      1  C   UNL     1       4.486   4.421  17.346  0.00  0.00    +0.000 C 
ATOM      2  N   UNL     1       4.029   5.362  18.379  0.00  0.00    +0.000 NA
ENDROOT
BRANCH   2   3
ATOM      3  C   UNL     1       3.635   4.649  19.633  0.00  0.00    +0.000 C 
ATOM      4  C   UNL     1       4.155   3.167  19.654  0.00  0.00    +0.000 C 
ATOM      5  N   UNL     1       3.134   2.187  20.096  0.00  0.00    +0.000 NA
ATOM      6  C   UNL     1       2.608   2.589  21.413  0.00  0.00    +0.000 C 
ATOM      7  C   UNL     1       1.970   3.983  21.373  0.00  0.00    +0.000 C 
ATOM      8  C   UNL     1       2.107   4.576  19.955  0.00  0.00    +0.000 C 
ATOM      9  C   UNL     1       1.393   3.605  19.001  0.00  0.00    +0.000 C 
ATOM     10  C   UNL     1       2.040   2.215  19.099  0.00  0.00    +0.000 C 
ENDBRANCH   2   3
BRANCH   2  11
ATOM     11  C   UNL     1       2.884   6.166  17.860  0.00  0.00    +0.000 C 
BRANCH  11  12
ATOM     12  C   UNL     1       3.177   7.674  17.712  0.00  0.00    +0.000 C 
BRANCH  12  13
ATOM     13  C   UNL     1       2.207   8.564  18.463  0.00  0.00    +0.000 A 
ATOM     14  C   UNL     1       1.620   9.668  17.828  0.00  0.00    +0.000 A 
ATOM     15  C   UNL     1       0.665  10.445  18.492  0.00  0.00    +0.000 A 
ATOM     16  C   UNL     1       0.284  10.131  19.798  0.00  0.00    +0.000 A 
ATOM     17 CL   UNL     1      -0.929  11.111  20.542  0.00  0.00    +0.000 Cl
ATOM     18  C   UNL     1       0.873   9.042  20.448  0.00  0.00    +0.000 A 
ATOM     19 CL   UNL     1       0.456   8.591  22.062  0.00  0.00    +0.000 Cl
ATOM     20  C   UNL     1       1.828   8.263  19.785  0.00  0.00    +0.000 A 
ENDBRANCH  12  13
ENDBRANCH  11  12
ENDBRANCH   2  11
TORSDOF 4
ENDMDL
MODEL 8
REMARK VINA RESULT:      -6.7      3.674      5.752
REMARK  Name = 
REMARK  5 active torsions:
REMARK  status: ('A' for Active; 'I' for Inactive)
REMARK    1  A    between atoms: C_1  and  N_2
REMARK    2  A    between atoms: N_2  and  C_3
REMARK    3  A    between atoms: N_2  and  C_13
REMARK    4  A    between atoms: C_3  and  C_4
REMARK    5  A    between atoms: C_4  and  C_5
REMARK                            x       y       z     vdW  Elec       q    Type
REMARK                         _______ _______ _______ _____ _____    ______ ____
ROOT
ATOM      1  C   UNL     1       4.650   4.240  17.620  0.00  0.00    +0.000 C 
ATOM      2  N   UNL     1       3.966   5.208  18.489  0.00  0.00    +0.000 NA
ENDROOT
BRANCH   2   3
ATOM      3  C   UNL     1       3.243   4.527  19.605  0.00  0.00    +0.000 C 
ATOM      4  C   UNL     1       3.765   3.064  19.838  0.00  0.00    +0.000 C 
ATOM      5  N   UNL     1       2.681   2.068  20.009  0.00  0.00    +0.000 NA
ATOM      6  C   UNL     1       1.789   2.498  21.101  0.00  0.00    +0.000 C 
ATOM      7  C   UNL     1       1.160   3.868  20.819  0.00  0.00    +0.000 C 
ATOM      8  C   UNL     1       1.688   4.416  19.477  0.00  0.00    +0.000 C 
ATOM      9  C   UNL     1       1.301   3.390  18.400  0.00  0.00    +0.000 C 
ATOM     10  C   UNL     1       1.921   2.026  18.740  0.00  0.00    +0.000 C 
ENDBRANCH   2   3
BRANCH   2  11
ATOM     11  C   UNL     1       3.017   6.030  17.681  0.00  0.00    +0.000 C 
BRANCH  11  12
ATOM     12  C   UNL     1       3.214   7.554  17.817  0.00  0.00    +0.000 C 
BRANCH  12  13
ATOM     13  C   UNL     1       2.189   8.228  18.707  0.00  0.00    +0.000 A 
ATOM     14  C   UNL     1       2.021   7.812  20.036  0.00  0.00    +0.000 A 
ATOM     15  C   UNL     1       1.134   8.483  20.884  0.00  0.00    +0.000 A 
ATOM     16  C   UNL     1       0.401   9.575  20.417  0.00  0.00    +0.000 A 
ATOM     17 CL   UNL     1      -0.648  10.379  21.531  0.00  0.00    +0.000 Cl
ATOM     18  C   UNL     1       0.547   9.990  19.090  0.00  0.00    +0.000 A 
ATOM     19 CL   UNL     1      -0.325  11.331  18.437  0.00  0.00    +0.000 Cl
ATOM     20  C   UNL     1       1.435   9.321  18.241  0.00  0.00    +0.000 A 
ENDBRANCH  12  13
ENDBRANCH  11  12
ENDBRANCH   2  11
TORSDOF 4
ENDMDL
MODEL 9
REMARK VINA RESULT:      -6.7      4.019      6.006
REMARK  Name = 
REMARK  5 active torsions:
REMARK  status: ('A' for Active; 'I' for Inactive)
REMARK    1  A    between atoms: C_1  and  N_2
REMARK    2  A    between atoms: N_2  and  C_3
REMARK    3  A    between atoms: N_2  and  C_13
REMARK    4  A    between atoms: C_3  and  C_4
REMARK    5  A    between atoms: C_4  and  C_5
REMARK                            x       y       z     vdW  Elec       q    Type
REMARK                         _______ _______ _______ _____ _____    ______ ____
ROOT
ATOM      1  C   UNL     1       4.602   5.808  18.023  0.00  0.00    +0.000 C 
ATOM      2  N   UNL     1       3.513   6.214  18.923  0.00  0.00    +0.000 NA
ENDROOT
BRANCH   2   3
ATOM      3  C   UNL     1       2.981   5.052  19.698  0.00  0.00    +0.000 C 
ATOM      4  C   UNL     1       3.886   3.777  19.541  0.00  0.00    +0.000 C 
ATOM      5  N   UNL     1       3.120   2.534  19.285  0.00  0.00    +0.000 NA
ATOM      6  C   UNL     1       2.116   2.351  20.348  0.00  0.00    +0.000 C 
ATOM      7  C   UNL     1       1.135   3.529  20.419  0.00  0.00    +0.000 C 
ATOM      8  C   UNL     1       1.524   4.590  19.369  0.00  0.00    +0.000 C 
ATOM      9  C   UNL     1       1.467   3.895  17.999  0.00  0.00    +0.000 C 
ATOM     10  C   UNL     1       2.435   2.703  17.984  0.00  0.00    +0.000 C 
ENDBRANCH   2   3
BRANCH   2  11
ATOM     11  C   UNL     1       2.419   6.857  18.137  0.00  0.00    +0.000 C 
BRANCH  11  12
ATOM     12  C   UNL     1       2.328   8.389  18.300  0.00  0.00    +0.000 C 
BRANCH  12  13
ATOM     13  C   UNL     1       1.447   8.831  19.451  0.00  0.00    +0.000 A 
ATOM     14  C   UNL     1       1.560   8.219  20.708  0.00  0.00    +0.000 A 
ATOM     15  C   UNL     1       0.805   8.678  21.792  0.00  0.00    +0.000 A 
ATOM     16  C   UNL     1      -0.076   9.750  21.636  0.00  0.00    +0.000 A 
ATOM     17 CL   UNL     1      -0.948  10.287  23.028  0.00  0.00    +0.000 Cl
ATOM     18  C   UNL     1      -0.210  10.359  20.384  0.00  0.00    +0.000 A 
ATOM     19 CL   UNL     1      -1.278  11.688  20.111  0.00  0.00    +0.000 Cl
ATOM     20  C   UNL     1       0.546   9.902  19.299  0.00  0.00    +0.000 A 
ENDBRANCH  12  13
ENDBRANCH  11  12
ENDBRANCH   2  11
TORSDOF 4
ENDMDL
