MODEL 1
REMARK VINA RESULT:      -7.2      0.000      0.000
REMARK  Name = 
REMARK  5 active torsions:
REMARK  status: ('A' for Active; 'I' for Inactive)
REMARK    1  A    between atoms: C_1  and  C_2
REMARK    2  A    between atoms: C_4  and  C_5
REMARK    3  A    between atoms: C_9  and  C_10
REMARK    4  A    between atoms: C_10  and  C_11
REMARK    5  A    between atoms: C_11  and  O_13
REMARK                            x       y       z     vdW  Elec       q    Type
REMARK                         _______ _______ _______ _____ _____    ______ ____
ROOT
ATOM      1  C   UNL     1       6.930   5.406  16.473  0.00  0.00    +0.000 C 
ATOM      2  C   UNL     1       5.492   5.279  16.883  0.00  0.00    +0.000 A 
ATOM      3  C   UNL     1       4.761   6.397  17.348  0.00  0.00    +0.000 A 
ATOM      4  C   UNL     1       3.428   6.281  17.777  0.00  0.00    +0.000 A 
ATOM      5  C   UNL     1       2.662   7.475  18.252  0.00  0.00    +0.000 C 
ATOM      6  C   UNL     1       2.884   5.009  17.761  0.00  0.00    +0.000 A 
ATOM      7  C   UNL     1       3.602   3.895  17.325  0.00  0.00    +0.000 A 
ATOM      8  C   UNL     1       4.891   4.018  16.850  0.00  0.00    +0.000 A 
ATOM      9  C   UNL     1       2.778   2.654  17.517  0.00  0.00    +0.000 C 
ATOM     10  C   UNL     1       1.483   3.220  18.111  0.00  0.00    +0.000 C 
ATOM     11  O   UNL     1       0.539   2.556  18.505  0.00  0.00    +0.000 OA
ATOM     12  N   UNL     1       1.623   4.601  18.189  0.00  0.00    +0.000 N 
ATOM     13  H   UNL     1       0.923   5.204  18.592  0.00  0.00    +0.000 HD
ENDROOT
BRANCH   9  14
ATOM     14  C   UNL     1       3.402   1.628  18.453  0.00  0.00    +0.000 C 
BRANCH  14  15
ATOM     15  C   UNL     1       3.922   2.229  19.739  0.00  0.00    +0.000 C 
ATOM     16  O   UNL     1       3.217   2.788  20.561  0.00  0.00    +0.000 OA
BRANCH  15  17
ATOM     17  O   UNL     1       5.256   2.095  19.904  0.00  0.00    +0.000 OA
ATOM     18  H   UNL     1       5.721   2.905  20.203  0.00  0.00    +0.000 HD
ENDBRANCH  15  17
ENDBRANCH  14  15
ENDBRANCH   9  14
TORSDOF 3
ENDMDL
MODEL 2
REMARK VINA RESULT:      -7.2      1.593      3.385
REMARK  Name = 
REMARK  5 active torsions:
REMARK  status: ('A' for Active; 'I' for Inactive)
REMARK    1  A    between atoms: C_1  and  C_2
REMARK    2  A    between atoms: C_4  and  C_5
REMARK    3  A    between atoms: C_9  and  C_10
REMARK    4  A    between atoms: C_10  and  C_11
REMARK    5  A    between atoms: C_11  and  O_13
REMARK                            x       y       z     vdW  Elec       q    Type
REMARK                         _______ _______ _______ _____ _____    ______ ____
ROOT
ATOM      1  C   UNL     1       2.165   8.297  17.905  0.00  0.00    +0.000 C 
ATOM      2  C   UNL     1       3.087   7.135  18.129  0.00  0.00    +0.000 A 
ATOM      3  C   UNL     1       4.260   6.969  17.356  0.00  0.00    +0.000 A 
ATOM      4  C   UNL     1       5.106   5.861  17.527  0.00  0.00    +0.000 A 
ATOM      5  C   UNL     1       6.352   5.708  16.712  0.00  0.00    +0.000 C 
ATOM      6  C   UNL     1       4.709   4.920  18.459  0.00  0.00    +0.000 A 
ATOM      7  C   UNL     1       3.543   5.060  19.212  0.00  0.00    +0.000 A 
ATOM      8  C   UNL     1       2.742   6.176  19.086  0.00  0.00    +0.000 A 
ATOM      9  C   UNL     1       3.337   3.838  20.059  0.00  0.00    +0.000 C 
ATOM     10  C   UNL     1       4.558   2.987  19.693  0.00  0.00    +0.000 C 
ATOM     11  O   UNL     1       4.771   1.853  20.090  0.00  0.00    +0.000 OA
ATOM     12  N   UNL     1       5.316   3.708  18.779  0.00  0.00    +0.000 N 
ATOM     13  H   UNL     1       6.150   3.343  18.345  0.00  0.00    +0.000 HD
ENDROOT
BRANCH   9  14
ATOM     14  C   UNL     1       2.044   3.087  19.770  0.00  0.00    +0.000 C 
BRANCH  14  15
ATOM     15  C   UNL     1       1.864   2.748  18.308  0.00  0.00    +0.000 C 
ATOM     16  O   UNL     1       1.244   3.443  17.521  0.00  0.00    +0.000 OA
BRANCH  15  17
ATOM     17  O   UNL     1       2.457   1.591  17.939  0.00  0.00    +0.000 OA
ATOM     18  H   UNL     1       2.256   0.822  18.513  0.00  0.00    +0.000 HD
ENDBRANCH  15  17
ENDBRANCH  14  15
ENDBRANCH   9  14
TORSDOF 3
ENDMDL
MODEL 3
REMARK VINA RESULT:      -7.1      2.903      4.667
REMARK  Name = 
REMARK  5 active torsions:
REMARK  status: ('A' for Active; 'I' for Inactive)
REMARK    1  A    between atoms: C_1  and  C_2
REMARK    2  A    between atoms: C_4  and  C_5
REMARK    3  A    between atoms: C_9  and  C_10
REMARK    4  A    between atoms: C_10  and  C_11
REMARK    5  A    between atoms: C_11  and  O_13
REMARK                            x       y       z     vdW  Elec       q    Type
REMARK                         _______ _______ _______ _____ _____    ______ ____
ROOT
ATOM      1  C   UNL     1       2.081   6.250  20.112  0.00  0.00    +0.000 C 
ATOM      2  C   UNL     1       2.897   5.517  19.089  0.00  0.00    +0.000 A 
ATOM      3  C   UNL     1       2.686   4.143  18.829  0.00  0.00    +0.000 A 
ATOM      4  C   UNL     1       3.476   3.436  17.906  0.00  0.00    +0.000 A 
ATOM      5  C   UNL     1       3.230   1.986  17.630  0.00  0.00    +0.000 C 
ATOM      6  C   UNL     1       4.497   4.144  17.299  0.00  0.00    +0.000 A 
ATOM      7  C   UNL     1       4.730   5.494  17.563  0.00  0.00    +0.000 A 
ATOM      8  C   UNL     1       3.920   6.203  18.426  0.00  0.00    +0.000 A 
ATOM      9  C   UNL     1       5.958   5.950  16.829  0.00  0.00    +0.000 C 
ATOM     10  C   UNL     1       6.384   4.672  16.098  0.00  0.00    +0.000 C 
ATOM     11  O   UNL     1       7.396   4.548  15.427  0.00  0.00    +0.000 OA
ATOM     12  N   UNL     1       5.459   3.681  16.405  0.00  0.00    +0.000 N 
ATOM     13  H   UNL     1       5.544   2.729  16.084  0.00  0.00    +0.000 HD
ENDROOT
BRANCH   9  14
ATOM     14  C   UNL     1       7.074   6.457  17.732  0.00  0.00    +0.000 C 
BRANCH  14  15
ATOM     15  C   UNL     1       7.496   5.455  18.782  0.00  0.00    +0.000 C 
ATOM     16  O   UNL     1       7.273   5.583  19.973  0.00  0.00    +0.000 OA
BRANCH  15  17
ATOM     17  O   UNL     1       8.153   4.385  18.281  0.00  0.00    +0.000 OA
ATOM     18  H   UNL     1       8.597   4.538  17.420  0.00  0.00    +0.000 HD
ENDBRANCH  15  17
ENDBRANCH  14  15
ENDBRANCH   9  14
TORSDOF 3
ENDMDL
MODEL 4
REMARK VINA RESULT:      -7.1      2.004      2.816
REMARK  Name = 
REMARK  5 active torsions:
REMARK  status: ('A' for Active; 'I' for Inactive)
REMARK    1  A    between atoms: C_1  and  C_2
REMARK    2  A    between atoms: C_4  and  C_5
REMARK    3  A    between atoms: C_9  and  C_10
REMARK    4  A    between atoms: C_10  and  C_11
REMARK    5  A    between atoms: C_11  and  O_13
REMARK                            x       y       z     vdW  Elec       q    Type
REMARK                         _______ _______ _______ _____ _____    ______ ____
ROOT
ATOM      1  C   UNL     1       7.864   5.967  19.176  0.00  0.00    +0.000 C 
ATOM      2  C   UNL     1       6.742   5.272  18.464  0.00  0.00    +0.000 A 
ATOM      3  C   UNL     1       6.638   5.301  17.054  0.00  0.00    +0.000 A 
ATOM      4  C   UNL     1       5.566   4.692  16.380  0.00  0.00    +0.000 A 
ATOM      5  C   UNL     1       5.478   4.717  14.886  0.00  0.00    +0.000 C 
ATOM      6  C   UNL     1       4.596   4.102  17.170  0.00  0.00    +0.000 A 
ATOM      7  C   UNL     1       4.675   4.086  18.563  0.00  0.00    +0.000 A 
ATOM      8  C   UNL     1       5.756   4.634  19.223  0.00  0.00    +0.000 A 
ATOM      9  C   UNL     1       3.434   3.463  19.134  0.00  0.00    +0.000 C 
ATOM     10  C   UNL     1       2.642   3.113  17.869  0.00  0.00    +0.000 C 
ATOM     11  O   UNL     1       1.514   2.649  17.850  0.00  0.00    +0.000 OA
ATOM     12  N   UNL     1       3.408   3.492  16.773  0.00  0.00    +0.000 N 
ATOM     13  H   UNL     1       3.086   3.412  15.821  0.00  0.00    +0.000 HD
ENDROOT
BRANCH   9  14
ATOM     14  C   UNL     1       2.631   4.386  20.040  0.00  0.00    +0.000 C 
BRANCH  14  15
ATOM     15  C   UNL     1       1.806   3.644  21.068  0.00  0.00    +0.000 C 
ATOM     16  O   UNL     1       2.217   3.328  22.170  0.00  0.00    +0.000 OA
BRANCH  15  17
ATOM     17  O   UNL     1       0.551   3.357  20.655  0.00  0.00    +0.000 OA
ATOM     18  H   UNL     1       0.118   4.059  20.125  0.00  0.00    +0.000 HD
ENDBRANCH  15  17
ENDBRANCH  14  15
ENDBRANCH   9  14
TORSDOF 3
ENDMDL
MODEL 5
REMARK VINA RESULT:      -7.1      2.705      4.609
REMARK  Name = 
REMARK  5 active torsions:
REMARK  status: ('A' for Active; 'I' for Inactive)
REMARK    1  A    between atoms: C_1  and  C_2
REMARK    2  A    between atoms: C_4  and  C_5
REMARK    3  A    between atoms: C_9  and  C_10
REMARK    4  A    between atoms: C_10  and  C_11
REMARK    5  A    between atoms: C_11  and  O_13
REMARK                            x       y       z     vdW  Elec       q    Type
REMARK                         _______ _______ _______ _____ _____    ______ ____
ROOT
ATOM      1  C   UNL     1       2.123   8.108  18.407  0.00  0.00    +0.000 C 
ATOM      2  C   UNL     1       2.974   6.971  17.924  0.00  0.00    +0.000 A 
ATOM      3  C   UNL     1       2.470   5.650  17.863  0.00  0.00    +0.000 A 
ATOM      4  C   UNL     1       3.272   4.571  17.456  0.00  0.00    +0.000 A 
ATOM      5  C   UNL     1       2.719   3.182  17.382  0.00  0.00    +0.000 C 
ATOM      6  C   UNL     1       4.591   4.861  17.161  0.00  0.00    +0.000 A 
ATOM      7  C   UNL     1       5.107   6.155  17.238  0.00  0.00    +0.000 A 
ATOM      8  C   UNL     1       4.306   7.224  17.583  0.00  0.00    +0.000 A 
ATOM      9  C   UNL     1       6.581   6.130  16.952  0.00  0.00    +0.000 C 
ATOM     10  C   UNL     1       6.830   4.641  16.687  0.00  0.00    +0.000 C 
ATOM     11  O   UNL     1       7.921   4.134  16.485  0.00  0.00    +0.000 OA
ATOM     12  N   UNL     1       5.611   3.983  16.800  0.00  0.00    +0.000 N 
ATOM     13  H   UNL     1       5.515   2.983  16.718  0.00  0.00    +0.000 HD
ENDROOT
BRANCH   9  14
ATOM     14  C   UNL     1       7.449   6.631  18.099  0.00  0.00    +0.000 C 
BRANCH  14  15
ATOM     15  C   UNL     1       7.534   5.658  19.253  0.00  0.00    +0.000 C 
ATOM     16  O   UNL     1       6.619   5.442  20.028  0.00  0.00    +0.000 OA
BRANCH  15  17
ATOM     17  O   UNL     1       8.730   5.037  19.356  0.00  0.00    +0.000 OA
ATOM     18  H   UNL     1       9.055   4.915  20.273  0.00  0.00    +0.000 HD
ENDBRANCH  15  17
ENDBRANCH  14  15
ENDBRANCH   9  14
TORSDOF 3
ENDMDL
MODEL 6
REMARK VINA RESULT:      -7.0      1.836      3.512
REMARK  Name = 
REMARK  5 active torsions:
REMARK  status: ('A' for Active; 'I' for Inactive)
REMARK    1  A    between atoms: C_1  and  C_2
REMARK    2  A    between atoms: C_4  and  C_5
REMARK    3  A    between atoms: C_9  and  C_10
REMARK    4  A    between atoms: C_10  and  C_11
REMARK    5  A    between atoms: C_11  and  O_13
REMARK                            x       y       z     vdW  Elec       q    Type
REMARK                         _______ _______ _______ _____ _____    ______ ____
ROOT
ATOM      1  C   UNL     1       2.468   8.183  17.743  0.00  0.00    +0.000 C 
ATOM      2  C   UNL     1       3.395   7.038  18.026  0.00  0.00    +0.000 A 
ATOM      3  C   UNL     1       4.604   6.878  17.310  0.00  0.00    +0.000 A 
ATOM      4  C   UNL     1       5.457   5.784  17.535  0.00  0.00    +0.000 A 
ATOM      5  C   UNL     1       6.741   5.637  16.781  0.00  0.00    +0.000 C 
ATOM      6  C   UNL     1       5.030   4.850  18.462  0.00  0.00    +0.000 A 
ATOM      7  C   UNL     1       3.829   4.985  19.159  0.00  0.00    +0.000 A 
ATOM      8  C   UNL     1       3.019   6.087  18.979  0.00  0.00    +0.000 A 
ATOM      9  C   UNL     1       3.600   3.772  20.014  0.00  0.00    +0.000 C 
ATOM     10  C   UNL     1       4.849   2.933  19.717  0.00  0.00    +0.000 C 
ATOM     11  O   UNL     1       5.059   1.808  20.139  0.00  0.00    +0.000 OA
ATOM     12  N   UNL     1       5.638   3.652  18.828  0.00  0.00    +0.000 N 
ATOM     13  H   UNL     1       6.496   3.293  18.438  0.00  0.00    +0.000 HD
ENDROOT
BRANCH   9  14
ATOM     14  C   UNL     1       2.333   2.998  19.677  0.00  0.00    +0.000 C 
BRANCH  14  15
ATOM     15  C   UNL     1       1.280   3.075  20.759  0.00  0.00    +0.000 C 
ATOM     16  O   UNL     1       1.423   2.617  21.879  0.00  0.00    +0.000 OA
BRANCH  15  17
ATOM     17  O   UNL     1       0.148   3.705  20.375  0.00  0.00    +0.000 OA
ATOM     18  H   UNL     1      -0.674   3.182  20.483  0.00  0.00    +0.000 HD
ENDBRANCH  15  17
ENDBRANCH  14  15
ENDBRANCH   9  14
TORSDOF 3
ENDMDL
MODEL 7
REMARK VINA RESULT:      -6.9      3.209      5.162
REMARK  Name = 
REMARK  5 active torsions:
REMARK  status: ('A' for Active; 'I' for Inactive)
REMARK    1  A    between atoms: C_1  and  C_2
REMARK    2  A    between atoms: C_4  and  C_5
REMARK    3  A    between atoms: C_9  and  C_10
REMARK    4  A    between atoms: C_10  and  C_11
REMARK    5  A    between atoms: C_11  and  O_13
REMARK                            x       y       z     vdW  Elec       q    Type
REMARK                         _______ _______ _______ _____ _____    ______ ____
ROOT
ATOM      1  C   UNL     1       1.854   6.009  20.456  0.00  0.00    +0.000 C 
ATOM      2  C   UNL     1       2.695   5.314  19.427  0.00  0.00    +0.000 A 
ATOM      3  C   UNL     1       2.418   3.986  19.027  0.00  0.00    +0.000 A 
ATOM      4  C   UNL     1       3.226   3.310  18.098  0.00  0.00    +0.000 A 
ATOM      5  C   UNL     1       2.911   1.910  17.673  0.00  0.00    +0.000 C 
ATOM      6  C   UNL     1       4.332   3.996  17.629  0.00  0.00    +0.000 A 
ATOM      7  C   UNL     1       4.629   5.298  18.032  0.00  0.00    +0.000 A 
ATOM      8  C   UNL     1       3.804   5.983  18.901  0.00  0.00    +0.000 A 
ATOM      9  C   UNL     1       5.934   5.730  17.428  0.00  0.00    +0.000 C 
ATOM     10  C   UNL     1       6.332   4.495  16.612  0.00  0.00    +0.000 C 
ATOM     11  O   UNL     1       7.380   4.360  16.003  0.00  0.00    +0.000 OA
ATOM     12  N   UNL     1       5.327   3.548  16.763  0.00  0.00    +0.000 N 
ATOM     13  H   UNL     1       5.375   2.623  16.362  0.00  0.00    +0.000 HD
ENDROOT
BRANCH   9  14
ATOM     14  C   UNL     1       7.011   6.078  18.447  0.00  0.00    +0.000 C 
BRANCH  14  15
ATOM     15  C   UNL     1       7.847   7.273  18.048  0.00  0.00    +0.000 C 
ATOM     16  O   UNL     1       7.790   7.808  16.955  0.00  0.00    +0.000 OA
BRANCH  15  17
ATOM     17  O   UNL     1       8.679   7.705  19.022  0.00  0.00    +0.000 OA
ATOM     18  H   UNL     1       9.454   7.129  19.191  0.00  0.00    +0.000 HD
ENDBRANCH  15  17
ENDBRANCH  14  15
ENDBRANCH   9  14
TORSDOF 3
ENDMDL
MODEL 8
REMARK VINA RESULT:      -6.8      2.895      4.765
REMARK  Name = 
REMARK  5 active torsions:
REMARK  status: ('A' for Active; 'I' for Inactive)
REMARK    1  A    between atoms: C_1  and  C_2
REMARK    2  A    between atoms: C_4  and  C_5
REMARK    3  A    between atoms: C_9  and  C_10
REMARK    4  A    between atoms: C_10  and  C_11
REMARK    5  A    between atoms: C_11  and  O_13
REMARK                            x       y       z     vdW  Elec       q    Type
REMARK                         _______ _______ _______ _____ _____    ______ ____
ROOT
ATOM      1  C   UNL     1       1.630   7.182  20.825  0.00  0.00    +0.000 C 
ATOM      2  C   UNL     1       2.098   6.137  19.856  0.00  0.00    +0.000 A 
ATOM      3  C   UNL     1       1.554   4.831  19.865  0.00  0.00    +0.000 A 
ATOM      4  C   UNL     1       2.017   3.832  18.993  0.00  0.00    +0.000 A 
ATOM      5  C   UNL     1       1.420   2.460  19.004  0.00  0.00    +0.000 C 
ATOM      6  C   UNL     1       3.061   4.180  18.155  0.00  0.00    +0.000 A 
ATOM      7  C   UNL     1       3.621   5.458  18.152  0.00  0.00    +0.000 A 
ATOM      8  C   UNL     1       3.130   6.456  18.968  0.00  0.00    +0.000 A 
ATOM      9  C   UNL     1       4.790   5.496  17.210  0.00  0.00    +0.000 C 
ATOM     10  C   UNL     1       4.808   4.063  16.667  0.00  0.00    +0.000 C 
ATOM     11  O   UNL     1       5.652   3.605  15.914  0.00  0.00    +0.000 OA
ATOM     12  N   UNL     1       3.749   3.378  17.248  0.00  0.00    +0.000 N 
ATOM     13  H   UNL     1       3.573   2.397  17.090  0.00  0.00    +0.000 HD
ENDROOT
BRANCH   9  14
ATOM     14  C   UNL     1       6.117   5.843  17.873  0.00  0.00    +0.000 C 
BRANCH  14  15
ATOM     15  C   UNL     1       7.030   6.662  16.989  0.00  0.00    +0.000 C 
ATOM     16  O   UNL     1       7.295   7.835  17.188  0.00  0.00    +0.000 OA
BRANCH  15  17
ATOM     17  O   UNL     1       7.536   5.974  15.942  0.00  0.00    +0.000 OA
ATOM     18  H   UNL     1       7.349   6.364  15.062  0.00  0.00    +0.000 HD
ENDBRANCH  15  17
ENDBRANCH  14  15
ENDBRANCH   9  14
TORSDOF 3
ENDMDL
MODEL 9
REMARK VINA RESULT:      -6.8      3.224      4.874
REMARK  Name = 
REMARK  5 active torsions:
REMARK  status: ('A' for Active; 'I' for Inactive)
REMARK    1  A    between atoms: C_1  and  C_2
REMARK    2  A    between atoms: C_4  and  C_5
REMARK    3  A    between atoms: C_9  and  C_10
REMARK    4  A    between atoms: C_10  and  C_11
REMARK    5  A    between atoms: C_11  and  O_13
REMARK                            x       y       z     vdW  Elec       q    Type
REMARK                         _______ _______ _______ _____ _____    ______ ____
ROOT
ATOM      1  C   UNL     1       2.448   2.382  18.372  0.00  0.00    +0.000 C 
ATOM      2  C   UNL     1       3.219   3.652  18.167  0.00  0.00    +0.000 A 
ATOM      3  C   UNL     1       2.567   4.906  18.106  0.00  0.00    +0.000 A 
ATOM      4  C   UNL     1       3.275   6.096  17.870  0.00  0.00    +0.000 A 
ATOM      5  C   UNL     1       2.572   7.417  17.823  0.00  0.00    +0.000 C 
ATOM      6  C   UNL     1       4.636   5.973  17.657  0.00  0.00    +0.000 A 
ATOM      7  C   UNL     1       5.288   4.740  17.694  0.00  0.00    +0.000 A 
ATOM      8  C   UNL     1       4.603   3.578  17.982  0.00  0.00    +0.000 A 
ATOM      9  C   UNL     1       6.734   4.921  17.332  0.00  0.00    +0.000 C 
ATOM     10  C   UNL     1       6.817   6.434  17.098  0.00  0.00    +0.000 C 
ATOM     11  O   UNL     1       7.804   7.033  16.703  0.00  0.00    +0.000 OA
ATOM     12  N   UNL     1       5.557   6.968  17.340  0.00  0.00    +0.000 N 
ATOM     13  H   UNL     1       5.337   7.943  17.207  0.00  0.00    +0.000 HD
ENDROOT
BRANCH   9  14
ATOM     14  C   UNL     1       7.169   4.154  16.090  0.00  0.00    +0.000 C 
BRANCH  14  15
ATOM     15  C   UNL     1       6.685   4.780  14.801  0.00  0.00    +0.000 C 
ATOM     16  O   UNL     1       5.553   4.657  14.370  0.00  0.00    +0.000 OA
BRANCH  15  17
ATOM     17  O   UNL     1       7.631   5.499  14.156  0.00  0.00    +0.000 OA
ATOM     18  H   UNL     1       7.311   6.331  13.747  0.00  0.00    +0.000 HD
ENDBRANCH  15  17
ENDBRANCH  14  15
ENDBRANCH   9  14
TORSDOF 3
ENDMDL
