MODEL 1
REMARK VINA RESULT:      -7.7      0.000      0.000
REMARK  Name = 
REMARK  8 active torsions:
REMARK  status: ('A' for Active; 'I' for Inactive)
REMARK    1  A    between atoms: N_4  and  C_5
REMARK    2  A    between atoms: C_5  and  C_6
REMARK    3  A    between atoms: C_6  and  C_7
REMARK    4  A    between atoms: C_7  and  N_8
REMARK    5  A    between atoms: C_9  and  C_11
REMARK    6  A    between atoms: N_17  and  C_18
REMARK    7  A    between atoms: C_18  and  C_19
REMARK    8  A    between atoms: C_28  and  O_29
REMARK                            x       y       z     vdW  Elec       q    Type
REMARK                         _______ _______ _______ _____ _____    ______ ____
ROOT
ATOM      1  C   UNL     1       2.310   7.056  18.743  0.00  0.00    +0.000 A 
ATOM      2  N   UNL     1       2.304   8.039  17.791  0.00  0.00    +0.000 NA
ATOM      3  C   UNL     1       1.794   9.238  18.174  0.00  0.00    +0.000 A 
ATOM      4  C   UNL     1       1.329   9.507  19.457  0.00  0.00    +0.000 A 
ATOM      5  C   UNL     1       0.808  10.854  19.797  0.00  0.00    +0.000 A 
ATOM      6  O   UNL     1       0.681  11.685  18.901  0.00  0.00    +0.000 OA
ATOM      7  N   UNL     1       0.473  11.076  21.136  0.00  0.00    +0.000 N 
ATOM      8  C   UNL     1       0.555  10.074  22.086  0.00  0.00    +0.000 A 
ATOM      9  C   UNL     1       0.957   8.833  21.793  0.00  0.00    +0.000 A 
ATOM     10  C   UNL     1       1.384   8.500  20.431  0.00  0.00    +0.000 A 
ATOM     11  C   UNL     1       1.879   7.244  20.061  0.00  0.00    +0.000 A 
ENDROOT
BRANCH   1  13
ATOM     12  N   UNL     1       4.145   5.471  18.570  0.00  0.00    +0.000 N 
ATOM     13  C   UNL     1       2.815   5.719  18.283  0.00  0.00    +0.000 C 
ATOM     14  O   UNL     1       2.100   4.923  17.688  0.00  0.00    +0.000 OA
ATOM     15  H   UNL     1       4.685   6.228  18.977  0.00  0.00    +0.000 HD
BRANCH  12  16
ATOM     16  C   UNL     1       4.775   4.211  18.232  0.00  0.00    +0.000 C 
BRANCH  16  17
ATOM     17  C   UNL     1       4.920   3.282  19.433  0.00  0.00    +0.000 C 
BRANCH  17  18
ATOM     18  C   UNL     1       3.925   2.127  19.365  0.00  0.00    +0.000 C 
BRANCH  18  22
ATOM     19  N   UNL     1       0.830   3.189  20.933  0.00  0.00    +0.000 N 
ATOM     20  C   UNL     1       2.108   2.747  20.896  0.00  0.00    +0.000 C 
ATOM     21  O   UNL     1       2.746   2.547  21.920  0.00  0.00    +0.000 OA
ATOM     22  N   UNL     1       2.569   2.557  19.630  0.00  0.00    +0.000 N 
ATOM     23  H   UNL     1       0.401   3.266  21.845  0.00  0.00    +0.000 HD
ATOM     24  H   UNL     1       0.245   3.231  20.115  0.00  0.00    +0.000 HD
ATOM     25  H   UNL     1       2.013   2.892  18.859  0.00  0.00    +0.000 HD
ENDBRANCH  18  22
ENDBRANCH  17  18
ENDBRANCH  16  17
ENDBRANCH  12  16
ENDBRANCH   1  13
BRANCH  11  26
ATOM     26  O   UNL     1       2.027   6.236  20.974  0.00  0.00    +0.000 OA
ATOM     27  H   UNL     1       2.690   5.596  20.674  0.00  0.00    +0.000 HD
ENDBRANCH  11  26
BRANCH   7  28
ATOM     28  C   UNL     1      -0.085  12.374  21.517  0.00  0.00    +0.000 C 
BRANCH  28  29
ATOM     29  C   UNL     1      -1.586  12.398  21.714  0.00  0.00    +0.000 A 
ATOM     30  C   UNL     1      -2.130  12.288  23.002  0.00  0.00    +0.000 A 
ATOM     31  C   UNL     1      -3.498  12.468  23.216  0.00  0.00    +0.000 A 
ATOM     32  C   UNL     1      -4.342  12.739  22.143  0.00  0.00    +0.000 A 
ATOM     33  C   UNL     1      -3.824  12.798  20.851  0.00  0.00    +0.000 A 
ATOM     34  C   UNL     1      -2.454  12.621  20.635  0.00  0.00    +0.000 A 
ENDBRANCH  28  29
ENDBRANCH   7  28
TORSDOF 8
ENDMDL
MODEL 2
REMARK VINA RESULT:      -7.6      1.784      2.778
REMARK  Name = 
REMARK  8 active torsions:
REMARK  status: ('A' for Active; 'I' for Inactive)
REMARK    1  A    between atoms: N_4  and  C_5
REMARK    2  A    between atoms: C_5  and  C_6
REMARK    3  A    between atoms: C_6  and  C_7
REMARK    4  A    between atoms: C_7  and  N_8
REMARK    5  A    between atoms: C_9  and  C_11
REMARK    6  A    between atoms: N_17  and  C_18
REMARK    7  A    between atoms: C_18  and  C_19
REMARK    8  A    between atoms: C_28  and  O_29
REMARK                            x       y       z     vdW  Elec       q    Type
REMARK                         _______ _______ _______ _____ _____    ______ ____
ROOT
ATOM      1  C   UNL     1       2.345   7.175  18.710  0.00  0.00    +0.000 A 
ATOM      2  N   UNL     1       2.308   8.161  17.763  0.00  0.00    +0.000 NA
ATOM      3  C   UNL     1       1.774   9.346  18.155  0.00  0.00    +0.000 A 
ATOM      4  C   UNL     1       1.313   9.600  19.443  0.00  0.00    +0.000 A 
ATOM      5  C   UNL     1       0.763  10.932  19.792  0.00  0.00    +0.000 A 
ATOM      6  O   UNL     1       0.609  11.764  18.901  0.00  0.00    +0.000 OA
ATOM      7  N   UNL     1       0.434  11.142  21.134  0.00  0.00    +0.000 N 
ATOM      8  C   UNL     1       0.546  10.138  22.080  0.00  0.00    +0.000 A 
ATOM      9  C   UNL     1       0.975   8.908  21.779  0.00  0.00    +0.000 A 
ATOM     10  C   UNL     1       1.399   8.591  20.412  0.00  0.00    +0.000 A 
ATOM     11  C   UNL     1       1.920   7.347  20.033  0.00  0.00    +0.000 A 
ENDROOT
BRANCH   1  13
ATOM     12  N   UNL     1       4.227   5.654  18.475  0.00  0.00    +0.000 N 
ATOM     13  C   UNL     1       2.878   5.853  18.241  0.00  0.00    +0.000 C 
ATOM     14  O   UNL     1       2.167   5.026  17.683  0.00  0.00    +0.000 OA
ATOM     15  H   UNL     1       4.756   6.434  18.852  0.00  0.00    +0.000 HD
BRANCH  12  16
ATOM     16  C   UNL     1       4.886   4.414  18.121  0.00  0.00    +0.000 C 
BRANCH  16  17
ATOM     17  C   UNL     1       5.561   4.474  16.753  0.00  0.00    +0.000 C 
BRANCH  17  18
ATOM     18  C   UNL     1       7.081   4.498  16.886  0.00  0.00    +0.000 C 
BRANCH  18  22
ATOM     19  N   UNL     1       8.215   5.417  20.207  0.00  0.00    +0.000 N 
ATOM     20  C   UNL     1       7.888   5.627  18.911  0.00  0.00    +0.000 C 
ATOM     21  O   UNL     1       7.947   6.739  18.409  0.00  0.00    +0.000 OA
ATOM     22  N   UNL     1       7.511   4.489  18.267  0.00  0.00    +0.000 N 
ATOM     23  H   UNL     1       8.587   6.206  20.716  0.00  0.00    +0.000 HD
ATOM     24  H   UNL     1       8.304   4.496  20.604  0.00  0.00    +0.000 HD
ATOM     25  H   UNL     1       7.356   3.655  18.812  0.00  0.00    +0.000 HD
ENDBRANCH  18  22
ENDBRANCH  17  18
ENDBRANCH  16  17
ENDBRANCH  12  16
ENDBRANCH   1  13
BRANCH  11  26
ATOM     26  O   UNL     1       2.099   6.340  20.940  0.00  0.00    +0.000 OA
ATOM     27  H   UNL     1       1.310   6.229  21.491  0.00  0.00    +0.000 HD
ENDBRANCH  11  26
BRANCH   7  28
ATOM     28  C   UNL     1      -0.152  12.424  21.526  0.00  0.00    +0.000 C 
BRANCH  28  29
ATOM     29  C   UNL     1      -1.658  12.427  21.676  0.00  0.00    +0.000 A 
ATOM     30  C   UNL     1      -2.240  12.314  22.947  0.00  0.00    +0.000 A 
ATOM     31  C   UNL     1      -3.617  12.474  23.118  0.00  0.00    +0.000 A 
ATOM     32  C   UNL     1      -4.431  12.729  22.018  0.00  0.00    +0.000 A 
ATOM     33  C   UNL     1      -3.874  12.791  20.742  0.00  0.00    +0.000 A 
ATOM     34  C   UNL     1      -2.495  12.633  20.569  0.00  0.00    +0.000 A 
ENDBRANCH  28  29
ENDBRANCH   7  28
TORSDOF 8
ENDMDL
MODEL 3
REMARK VINA RESULT:      -7.5      2.306      9.123
REMARK  Name = 
REMARK  8 active torsions:
REMARK  status: ('A' for Active; 'I' for Inactive)
REMARK    1  A    between atoms: N_4  and  C_5
REMARK    2  A    between atoms: C_5  and  C_6
REMARK    3  A    between atoms: C_6  and  C_7
REMARK    4  A    between atoms: C_7  and  N_8
REMARK    5  A    between atoms: C_9  and  C_11
REMARK    6  A    between atoms: N_17  and  C_18
REMARK    7  A    between atoms: C_18  and  C_19
REMARK    8  A    between atoms: C_28  and  O_29
REMARK                            x       y       z     vdW  Elec       q    Type
REMARK                         _______ _______ _______ _____ _____    ______ ____
ROOT
ATOM      1  C   UNL     1       0.608  10.283  20.644  0.00  0.00    +0.000 A 
ATOM      2  N   UNL     1       0.623   9.379  21.671  0.00  0.00    +0.000 NA
ATOM      3  C   UNL     1       1.138   8.156  21.383  0.00  0.00    +0.000 A 
ATOM      4  C   UNL     1       1.665   7.811  20.142  0.00  0.00    +0.000 A 
ATOM      5  C   UNL     1       2.229   6.457  19.920  0.00  0.00    +0.000 A 
ATOM      6  O   UNL     1       2.114   5.612  20.804  0.00  0.00    +0.000 OA
ATOM      7  N   UNL     1       2.846   6.231  18.686  0.00  0.00    +0.000 N 
ATOM      8  C   UNL     1       2.869   7.194  17.693  0.00  0.00    +0.000 A 
ATOM      9  C   UNL     1       2.309   8.398  17.842  0.00  0.00    +0.000 A 
ATOM     10  C   UNL     1       1.681   8.765  19.115  0.00  0.00    +0.000 A 
ATOM     11  C   UNL     1       1.132  10.027  19.371  0.00  0.00    +0.000 A 
ENDROOT
BRANCH   1  13
ATOM     12  N   UNL     1      -1.061  11.972  20.121  0.00  0.00    +0.000 N 
ATOM     13  C   UNL     1      -0.025  11.606  20.962  0.00  0.00    +0.000 C 
ATOM     14  O   UNL     1       0.363  12.308  21.888  0.00  0.00    +0.000 OA
ATOM     15  H   UNL     1      -1.246  11.375  19.321  0.00  0.00    +0.000 HD
BRANCH  12  16
ATOM     16  C   UNL     1      -1.804  13.200  20.317  0.00  0.00    +0.000 C 
BRANCH  16  17
ATOM     17  C   UNL     1      -3.277  13.064  19.944  0.00  0.00    +0.000 C 
BRANCH  17  18
ATOM     18  C   UNL     1      -3.540  11.764  19.188  0.00  0.00    +0.000 C 
BRANCH  18  22
ATOM     19  N   UNL     1      -2.594  11.489  15.696  0.00  0.00    +0.000 N 
ATOM     20  C   UNL     1      -2.522  11.222  17.021  0.00  0.00    +0.000 C 
ATOM     21  O   UNL     1      -1.711  10.425  17.469  0.00  0.00    +0.000 OA
ATOM     22  N   UNL     1      -3.421  11.930  17.755  0.00  0.00    +0.000 N 
ATOM     23  H   UNL     1      -1.893  11.061  15.107  0.00  0.00    +0.000 HD
ATOM     24  H   UNL     1      -3.156  12.235  15.321  0.00  0.00    +0.000 HD
ATOM     25  H   UNL     1      -4.139  12.447  17.271  0.00  0.00    +0.000 HD
ENDBRANCH  18  22
ENDBRANCH  17  18
ENDBRANCH  16  17
ENDBRANCH  12  16
ENDBRANCH   1  13
BRANCH  11  26
ATOM     26  O   UNL     1       1.176  11.029  18.441  0.00  0.00    +0.000 OA
ATOM     27  H   UNL     1       1.501  11.851  18.837  0.00  0.00    +0.000 HD
ENDBRANCH  11  26
BRANCH   7  28
ATOM     28  C   UNL     1       3.382   4.900  18.398  0.00  0.00    +0.000 C 
BRANCH  28  29
ATOM     29  C   UNL     1       4.788   4.878  17.838  0.00  0.00    +0.000 A 
ATOM     30  C   UNL     1       5.876   5.225  18.651  0.00  0.00    +0.000 A 
ATOM     31  C   UNL     1       7.187   5.058  18.198  0.00  0.00    +0.000 A 
ATOM     32  C   UNL     1       7.425   4.560  16.919  0.00  0.00    +0.000 A 
ATOM     33  C   UNL     1       6.353   4.261  16.081  0.00  0.00    +0.000 A 
ATOM     34  C   UNL     1       5.040   4.427  16.533  0.00  0.00    +0.000 A 
ENDBRANCH  28  29
ENDBRANCH   7  28
TORSDOF 8
ENDMDL
MODEL 4
REMARK VINA RESULT:      -7.4      1.433      2.131
REMARK  Name = 
REMARK  8 active torsions:
REMARK  status: ('A' for Active; 'I' for Inactive)
REMARK    1  A    between atoms: N_4  and  C_5
REMARK    2  A    between atoms: C_5  and  C_6
REMARK    3  A    between atoms: C_6  and  C_7
REMARK    4  A    between atoms: C_7  and  N_8
REMARK    5  A    between atoms: C_9  and  C_11
REMARK    6  A    between atoms: N_17  and  C_18
REMARK    7  A    between atoms: C_18  and  C_19
REMARK    8  A    between atoms: C_28  and  O_29
REMARK                            x       y       z     vdW  Elec       q    Type
REMARK                         _______ _______ _______ _____ _____    ______ ____
ROOT
ATOM      1  C   UNL     1       2.394   7.517  18.509  0.00  0.00    +0.000 A 
ATOM      2  N   UNL     1       2.351   8.523  17.582  0.00  0.00    +0.000 NA
ATOM      3  C   UNL     1       1.773   9.683  17.986  0.00  0.00    +0.000 A 
ATOM      4  C   UNL     1       1.274   9.894  19.267  0.00  0.00    +0.000 A 
ATOM      5  C   UNL     1       0.677  11.202  19.631  0.00  0.00    +0.000 A 
ATOM      6  O   UNL     1       0.520  12.049  18.754  0.00  0.00    +0.000 OA
ATOM      7  N   UNL     1       0.310  11.373  20.969  0.00  0.00    +0.000 N 
ATOM      8  C   UNL     1       0.429  10.353  21.895  0.00  0.00    +0.000 A 
ATOM      9  C   UNL     1       0.901   9.142  21.579  0.00  0.00    +0.000 A 
ATOM     10  C   UNL     1       1.366   8.867  20.216  0.00  0.00    +0.000 A 
ATOM     11  C   UNL     1       1.933   7.648  19.824  0.00  0.00    +0.000 A 
ENDROOT
BRANCH   1  13
ATOM     12  N   UNL     1       2.233   5.098  18.338  0.00  0.00    +0.000 N 
ATOM     13  C   UNL     1       2.977   6.221  18.025  0.00  0.00    +0.000 C 
ATOM     14  O   UNL     1       4.037   6.172  17.414  0.00  0.00    +0.000 OA
ATOM     15  H   UNL     1       1.421   5.225  18.933  0.00  0.00    +0.000 HD
BRANCH  12  16
ATOM     16  C   UNL     1       2.636   3.774  17.908  0.00  0.00    +0.000 C 
BRANCH  16  17
ATOM     17  C   UNL     1       2.939   2.841  19.077  0.00  0.00    +0.000 C 
BRANCH  17  18
ATOM     18  C   UNL     1       4.359   3.047  19.597  0.00  0.00    +0.000 C 
BRANCH  18  22
ATOM     19  N   UNL     1       7.010   4.544  17.623  0.00  0.00    +0.000 N 
ATOM     20  C   UNL     1       6.218   4.382  18.709  0.00  0.00    +0.000 C 
ATOM     21  O   UNL     1       6.359   5.066  19.712  0.00  0.00    +0.000 OA
ATOM     22  N   UNL     1       5.281   3.410  18.543  0.00  0.00    +0.000 N 
ATOM     23  H   UNL     1       7.668   5.310  17.651  0.00  0.00    +0.000 HD
ATOM     24  H   UNL     1       6.827   4.090  16.744  0.00  0.00    +0.000 HD
ATOM     25  H   UNL     1       5.347   2.809  17.736  0.00  0.00    +0.000 HD
ENDBRANCH  18  22
ENDBRANCH  17  18
ENDBRANCH  16  17
ENDBRANCH  12  16
ENDBRANCH   1  13
BRANCH  11  26
ATOM     26  O   UNL     1       2.120   6.626  20.714  0.00  0.00    +0.000 OA
ATOM     27  H   UNL     1       1.863   6.898  21.608  0.00  0.00    +0.000 HD
ENDBRANCH  11  26
BRANCH   7  28
ATOM     28  C   UNL     1      -0.322  12.629  21.373  0.00  0.00    +0.000 C 
BRANCH  28  29
ATOM     29  C   UNL     1      -1.820  12.561  21.580  0.00  0.00    +0.000 A 
ATOM     30  C   UNL     1      -2.350  12.463  22.874  0.00  0.00    +0.000 A 
ATOM     31  C   UNL     1      -3.726  12.559  23.092  0.00  0.00    +0.000 A 
ATOM     32  C   UNL     1      -4.592  12.734  22.015  0.00  0.00    +0.000 A 
ATOM     33  C   UNL     1      -4.084  12.779  20.718  0.00  0.00    +0.000 A 
ATOM     34  C   UNL     1      -2.706  12.685  20.499  0.00  0.00    +0.000 A 
ENDBRANCH  28  29
ENDBRANCH   7  28
TORSDOF 8
ENDMDL
MODEL 5
REMARK VINA RESULT:      -7.4      3.292      9.646
REMARK  Name = 
REMARK  8 active torsions:
REMARK  status: ('A' for Active; 'I' for Inactive)
REMARK    1  A    between atoms: N_4  and  C_5
REMARK    2  A    between atoms: C_5  and  C_6
REMARK    3  A    between atoms: C_6  and  C_7
REMARK    4  A    between atoms: C_7  and  N_8
REMARK    5  A    between atoms: C_9  and  C_11
REMARK    6  A    between atoms: N_17  and  C_18
REMARK    7  A    between atoms: C_18  and  C_19
REMARK    8  A    between atoms: C_28  and  O_29
REMARK                            x       y       z     vdW  Elec       q    Type
REMARK                         _______ _______ _______ _____ _____    ______ ____
ROOT
ATOM      1  C   UNL     1       0.101  10.421  21.310  0.00  0.00    +0.000 A 
ATOM      2  N   UNL     1       0.355   9.358  22.133  0.00  0.00    +0.000 NA
ATOM      3  C   UNL     1       1.010   8.310  21.571  0.00  0.00    +0.000 A 
ATOM      4  C   UNL     1       1.450   8.290  20.251  0.00  0.00    +0.000 A 
ATOM      5  C   UNL     1       2.179   7.111  19.722  0.00  0.00    +0.000 A 
ATOM      6  O   UNL     1       2.281   6.111  20.428  0.00  0.00    +0.000 OA
ATOM      7  N   UNL     1       2.690   7.220  18.426  0.00  0.00    +0.000 N 
ATOM      8  C   UNL     1       2.468   8.340  17.645  0.00  0.00    +0.000 A 
ATOM      9  C   UNL     1       1.757   9.389  18.071  0.00  0.00    +0.000 A 
ATOM     10  C   UNL     1       1.218   9.406  19.435  0.00  0.00    +0.000 A 
ATOM     11  C   UNL     1       0.521  10.493  19.976  0.00  0.00    +0.000 A 
ENDROOT
BRANCH   1  13
ATOM     12  N   UNL     1      -1.781  11.956  21.199  0.00  0.00    +0.000 N 
ATOM     13  C   UNL     1      -0.682  11.541  21.930  0.00  0.00    +0.000 C 
ATOM     14  O   UNL     1      -0.356  12.052  22.994  0.00  0.00    +0.000 OA
ATOM     15  H   UNL     1      -1.915  11.543  20.281  0.00  0.00    +0.000 HD
BRANCH  12  16
ATOM     16  C   UNL     1      -2.664  12.999  21.678  0.00  0.00    +0.000 C 
BRANCH  16  17
ATOM     17  C   UNL     1      -3.701  12.483  22.672  0.00  0.00    +0.000 C 
BRANCH  17  18
ATOM     18  C   UNL     1      -5.121  12.690  22.150  0.00  0.00    +0.000 C 
BRANCH  18  22
ATOM     19  N   UNL     1      -7.472  13.787  24.686  0.00  0.00    +0.000 N 
ATOM     20  C   UNL     1      -6.848  12.895  23.882  0.00  0.00    +0.000 C 
ATOM     21  O   UNL     1      -7.118  11.703  23.919  0.00  0.00    +0.000 OA
ATOM     22  N   UNL     1      -5.930  13.471  23.060  0.00  0.00    +0.000 N 
ATOM     23  H   UNL     1      -8.227  13.434  25.257  0.00  0.00    +0.000 HD
ATOM     24  H   UNL     1      -7.365  14.782  24.580  0.00  0.00    +0.000 HD
ATOM     25  H   UNL     1      -5.682  14.436  23.215  0.00  0.00    +0.000 HD
ENDBRANCH  18  22
ENDBRANCH  17  18
ENDBRANCH  16  17
ENDBRANCH  12  16
ENDBRANCH   1  13
BRANCH  11  26
ATOM     26  O   UNL     1       0.320  11.643  19.263  0.00  0.00    +0.000 OA
ATOM     27  H   UNL     1      -0.435  12.138  19.614  0.00  0.00    +0.000 HD
ENDBRANCH  11  26
BRANCH   7  28
ATOM     28  C   UNL     1       3.381   6.071  17.841  0.00  0.00    +0.000 C 
BRANCH  28  29
ATOM     29  C   UNL     1       4.885   6.067  18.014  0.00  0.00    +0.000 A 
ATOM     30  C   UNL     1       5.695   6.833  17.164  0.00  0.00    +0.000 A 
ATOM     31  C   UNL     1       7.064   6.965  17.410  0.00  0.00    +0.000 A 
ATOM     32  C   UNL     1       7.643   6.315  18.497  0.00  0.00    +0.000 A 
ATOM     33  C   UNL     1       6.860   5.507  19.319  0.00  0.00    +0.000 A 
ATOM     34  C   UNL     1       5.489   5.376  19.076  0.00  0.00    +0.000 A 
ENDBRANCH  28  29
ENDBRANCH   7  28
TORSDOF 8
ENDMDL
MODEL 6
REMARK VINA RESULT:      -7.4      1.879      3.204
REMARK  Name = 
REMARK  8 active torsions:
REMARK  status: ('A' for Active; 'I' for Inactive)
REMARK    1  A    between atoms: N_4  and  C_5
REMARK    2  A    between atoms: C_5  and  C_6
REMARK    3  A    between atoms: C_6  and  C_7
REMARK    4  A    between atoms: C_7  and  N_8
REMARK    5  A    between atoms: C_9  and  C_11
REMARK    6  A    between atoms: N_17  and  C_18
REMARK    7  A    between atoms: C_18  and  C_19
REMARK    8  A    between atoms: C_28  and  O_29
REMARK                            x       y       z     vdW  Elec       q    Type
REMARK                         _______ _______ _______ _____ _____    ______ ____
ROOT
ATOM      1  C   UNL     1       2.401   6.975  18.622  0.00  0.00    +0.000 A 
ATOM      2  N   UNL     1       2.476   7.927  17.643  0.00  0.00    +0.000 NA
ATOM      3  C   UNL     1       2.041   9.168  17.981  0.00  0.00    +0.000 A 
ATOM      4  C   UNL     1       1.573   9.506  19.247  0.00  0.00    +0.000 A 
ATOM      5  C   UNL     1       1.136  10.893  19.538  0.00  0.00    +0.000 A 
ATOM      6  O   UNL     1       1.080  11.704  18.617  0.00  0.00    +0.000 OA
ATOM      7  N   UNL     1       0.794  11.178  20.863  0.00  0.00    +0.000 N 
ATOM      8  C   UNL     1       0.793  10.201  21.843  0.00  0.00    +0.000 A 
ATOM      9  C   UNL     1       1.117   8.928  21.594  0.00  0.00    +0.000 A 
ATOM     10  C   UNL     1       1.544   8.527  20.250  0.00  0.00    +0.000 A 
ATOM     11  C   UNL     1       1.960   7.230  19.926  0.00  0.00    +0.000 A 
ENDROOT
BRANCH   1  13
ATOM     12  N   UNL     1       3.858   5.553  17.294  0.00  0.00    +0.000 N 
ATOM     13  C   UNL     1       2.824   5.595  18.211  0.00  0.00    +0.000 C 
ATOM     14  O   UNL     1       2.279   4.590  18.650  0.00  0.00    +0.000 OA
ATOM     15  H   UNL     1       4.179   6.437  16.911  0.00  0.00    +0.000 HD
BRANCH  12  16
ATOM     16  C   UNL     1       4.411   4.299  16.827  0.00  0.00    +0.000 C 
BRANCH  16  17
ATOM     17  C   UNL     1       5.368   4.477  15.652  0.00  0.00    +0.000 C 
BRANCH  17  18
ATOM     18  C   UNL     1       6.815   4.583  16.126  0.00  0.00    +0.000 C 
BRANCH  18  22
ATOM     19  N   UNL     1       7.746   7.910  17.233  0.00  0.00    +0.000 N 
ATOM     20  C   UNL     1       7.244   6.661  17.362  0.00  0.00    +0.000 C 
ATOM     21  O   UNL     1       6.815   6.250  18.431  0.00  0.00    +0.000 OA
ATOM     22  N   UNL     1       7.268   5.955  16.199  0.00  0.00    +0.000 N 
ATOM     23  H   UNL     1       7.676   8.515  18.040  0.00  0.00    +0.000 HD
ATOM     24  H   UNL     1       7.978   8.315  16.341  0.00  0.00    +0.000 HD
ATOM     25  H   UNL     1       7.776   6.335  15.415  0.00  0.00    +0.000 HD
ENDBRANCH  18  22
ENDBRANCH  17  18
ENDBRANCH  16  17
ENDBRANCH  12  16
ENDBRANCH   1  13
BRANCH  11  26
ATOM     26  O   UNL     1       2.026   6.242  20.871  0.00  0.00    +0.000 OA
ATOM     27  H   UNL     1       1.358   5.561  20.701  0.00  0.00    +0.000 HD
ENDBRANCH  11  26
BRANCH   7  28
ATOM     28  C   UNL     1       0.317  12.520  21.197  0.00  0.00    +0.000 C 
BRANCH  28  29
ATOM     29  C   UNL     1      -1.146  12.609  21.573  0.00  0.00    +0.000 A 
ATOM     30  C   UNL     1      -2.118  12.815  20.583  0.00  0.00    +0.000 A 
ATOM     31  C   UNL     1      -3.478  12.741  20.892  0.00  0.00    +0.000 A 
ATOM     32  C   UNL     1      -3.883  12.480  22.198  0.00  0.00    +0.000 A 
ATOM     33  C   UNL     1      -2.930  12.326  23.203  0.00  0.00    +0.000 A 
ATOM     34  C   UNL     1      -1.568  12.398  22.895  0.00  0.00    +0.000 A 
ENDBRANCH  28  29
ENDBRANCH   7  28
TORSDOF 8
ENDMDL
MODEL 7
REMARK VINA RESULT:      -7.3      2.724      8.988
REMARK  Name = 
REMARK  8 active torsions:
REMARK  status: ('A' for Active; 'I' for Inactive)
REMARK    1  A    between atoms: N_4  and  C_5
REMARK    2  A    between atoms: C_5  and  C_6
REMARK    3  A    between atoms: C_6  and  C_7
REMARK    4  A    between atoms: C_7  and  N_8
REMARK    5  A    between atoms: C_9  and  C_11
REMARK    6  A    between atoms: N_17  and  C_18
REMARK    7  A    between atoms: C_18  and  C_19
REMARK    8  A    between atoms: C_28  and  O_29
REMARK                            x       y       z     vdW  Elec       q    Type
REMARK                         _______ _______ _______ _____ _____    ______ ____
ROOT
ATOM      1  C   UNL     1      -0.016  10.648  20.814  0.00  0.00    +0.000 A 
ATOM      2  N   UNL     1       0.261  11.091  19.549  0.00  0.00    +0.000 NA
ATOM      3  C   UNL     1       1.010  10.263  18.777  0.00  0.00    +0.000 A 
ATOM      4  C   UNL     1       1.460   9.013  19.192  0.00  0.00    +0.000 A 
ATOM      5  C   UNL     1       2.257   8.162  18.275  0.00  0.00    +0.000 A 
ATOM      6  O   UNL     1       2.614   8.625  17.194  0.00  0.00    +0.000 OA
ATOM      7  N   UNL     1       2.567   6.876  18.725  0.00  0.00    +0.000 N 
ATOM      8  C   UNL     1       2.213   6.438  19.988  0.00  0.00    +0.000 A 
ATOM      9  C   UNL     1       1.554   7.208  20.860  0.00  0.00    +0.000 A 
ATOM     10  C   UNL     1       1.131   8.558  20.476  0.00  0.00    +0.000 A 
ATOM     11  C   UNL     1       0.381   9.399  21.308  0.00  0.00    +0.000 A 
ENDROOT
BRANCH   1  13
ATOM     12  N   UNL     1      -1.832  12.249  21.036  0.00  0.00    +0.000 N 
ATOM     13  C   UNL     1      -0.789  11.603  21.675  0.00  0.00    +0.000 C 
ATOM     14  O   UNL     1      -0.501  11.800  22.849  0.00  0.00    +0.000 OA
ATOM     15  H   UNL     1      -1.932  12.098  20.037  0.00  0.00    +0.000 HD
BRANCH  12  16
ATOM     16  C   UNL     1      -2.701  13.171  21.738  0.00  0.00    +0.000 C 
BRANCH  16  17
ATOM     17  C   UNL     1      -3.841  13.687  20.865  0.00  0.00    +0.000 C 
BRANCH  17  18
ATOM     18  C   UNL     1      -4.683  12.539  20.315  0.00  0.00    +0.000 C 
BRANCH  18  22
ATOM     19  N   UNL     1      -4.171  11.912  16.779  0.00  0.00    +0.000 N 
ATOM     20  C   UNL     1      -3.923  11.791  18.103  0.00  0.00    +0.000 C 
ATOM     21  O   UNL     1      -3.033  11.067  18.525  0.00  0.00    +0.000 OA
ATOM     22  N   UNL     1      -4.751  12.552  18.870  0.00  0.00    +0.000 N 
ATOM     23  H   UNL     1      -3.534  11.440  16.152  0.00  0.00    +0.000 HD
ATOM     24  H   UNL     1      -4.803  12.600  16.403  0.00  0.00    +0.000 HD
ATOM     25  H   UNL     1      -5.542  12.997  18.431  0.00  0.00    +0.000 HD
ENDBRANCH  18  22
ENDBRANCH  17  18
ENDBRANCH  16  17
ENDBRANCH  12  16
ENDBRANCH   1  13
BRANCH  11  26
ATOM     26  O   UNL     1      -0.038   8.995  22.546  0.00  0.00    +0.000 OA
ATOM     27  H   UNL     1       0.509   8.264  22.871  0.00  0.00    +0.000 HD
ENDBRANCH  11  26
BRANCH   7  28
ATOM     28  C   UNL     1       3.387   6.010  17.877  0.00  0.00    +0.000 C 
BRANCH  28  29
ATOM     29  C   UNL     1       4.880   6.122  18.092  0.00  0.00    +0.000 A 
ATOM     30  C   UNL     1       5.496   5.425  19.141  0.00  0.00    +0.000 A 
ATOM     31  C   UNL     1       6.888   5.391  19.256  0.00  0.00    +0.000 A 
ATOM     32  C   UNL     1       7.680   6.071  18.335  0.00  0.00    +0.000 A 
ATOM     33  C   UNL     1       7.081   6.812  17.318  0.00  0.00    +0.000 A 
ATOM     34  C   UNL     1       5.688   6.845  17.201  0.00  0.00    +0.000 A 
ENDBRANCH  28  29
ENDBRANCH   7  28
TORSDOF 8
ENDMDL
MODEL 8
REMARK VINA RESULT:      -7.3      1.910      2.805
REMARK  Name = 
REMARK  8 active torsions:
REMARK  status: ('A' for Active; 'I' for Inactive)
REMARK    1  A    between atoms: N_4  and  C_5
REMARK    2  A    between atoms: C_5  and  C_6
REMARK    3  A    between atoms: C_6  and  C_7
REMARK    4  A    between atoms: C_7  and  N_8
REMARK    5  A    between atoms: C_9  and  C_11
REMARK    6  A    between atoms: N_17  and  C_18
REMARK    7  A    between atoms: C_18  and  C_19
REMARK    8  A    between atoms: C_28  and  O_29
REMARK                            x       y       z     vdW  Elec       q    Type
REMARK                         _______ _______ _______ _____ _____    ______ ____
ROOT
ATOM      1  C   UNL     1       2.310   7.504  19.112  0.00  0.00    +0.000 A 
ATOM      2  N   UNL     1       2.318   8.373  18.056  0.00  0.00    +0.000 NA
ATOM      3  C   UNL     1       1.629   9.530  18.229  0.00  0.00    +0.000 A 
ATOM      4  C   UNL     1       0.970   9.869  19.406  0.00  0.00    +0.000 A 
ATOM      5  C   UNL     1       0.257  11.165  19.518  0.00  0.00    +0.000 A 
ATOM      6  O   UNL     1       0.156  11.876  18.521  0.00  0.00    +0.000 OA
ATOM      7  N   UNL     1      -0.277  11.481  20.771  0.00  0.00    +0.000 N 
ATOM      8  C   UNL     1      -0.208  10.602  21.837  0.00  0.00    +0.000 A 
ATOM      9  C   UNL     1       0.368   9.400  21.745  0.00  0.00    +0.000 A 
ATOM     10  C   UNL     1       1.008   8.984  20.493  0.00  0.00    +0.000 A 
ATOM     11  C   UNL     1       1.688   7.770  20.338  0.00  0.00    +0.000 A 
ENDROOT
BRANCH   1  13
ATOM     12  N   UNL     1       2.494   5.426  17.864  0.00  0.00    +0.000 N 
ATOM     13  C   UNL     1       3.022   6.203  18.879  0.00  0.00    +0.000 C 
ATOM     14  O   UNL     1       3.985   5.859  19.553  0.00  0.00    +0.000 OA
ATOM     15  H   UNL     1       1.635   5.746  17.429  0.00  0.00    +0.000 HD
BRANCH  12  16
ATOM     16  C   UNL     1       3.090   4.160  17.486  0.00  0.00    +0.000 C 
BRANCH  16  17
ATOM     17  C   UNL     1       4.083   4.296  16.335  0.00  0.00    +0.000 C 
BRANCH  17  18
ATOM     18  C   UNL     1       5.438   3.696  16.698  0.00  0.00    +0.000 C 
BRANCH  18  22
ATOM     19  N   UNL     1       7.730   5.233  19.054  0.00  0.00    +0.000 N 
ATOM     20  C   UNL     1       7.373   4.580  17.924  0.00  0.00    +0.000 C 
ATOM     21  O   UNL     1       8.202   4.246  17.089  0.00  0.00    +0.000 OA
ATOM     22  N   UNL     1       6.035   4.345  17.845  0.00  0.00    +0.000 N 
ATOM     23  H   UNL     1       8.719   5.360  19.213  0.00  0.00    +0.000 HD
ATOM     24  H   UNL     1       7.089   5.397  19.813  0.00  0.00    +0.000 HD
ATOM     25  H   UNL     1       5.427   4.791  18.515  0.00  0.00    +0.000 HD
ENDBRANCH  18  22
ENDBRANCH  17  18
ENDBRANCH  16  17
ENDBRANCH  12  16
ENDBRANCH   1  13
BRANCH  11  26
ATOM     26  O   UNL     1       1.828   6.890  21.376  0.00  0.00    +0.000 OA
ATOM     27  H   UNL     1       2.291   7.306  22.118  0.00  0.00    +0.000 HD
ENDBRANCH  11  26
BRANCH   7  28
ATOM     28  C   UNL     1      -1.025  12.729  20.925  0.00  0.00    +0.000 C 
BRANCH  28  29
ATOM     29  C   UNL     1      -2.532  12.584  20.903  0.00  0.00    +0.000 A 
ATOM     30  C   UNL     1      -3.272  12.737  22.085  0.00  0.00    +0.000 A 
ATOM     31  C   UNL     1      -4.668  12.764  22.054  0.00  0.00    +0.000 A 
ATOM     32  C   UNL     1      -5.342  12.619  20.844  0.00  0.00    +0.000 A 
ATOM     33  C   UNL     1      -4.620  12.414  19.669  0.00  0.00    +0.000 A 
ATOM     34  C   UNL     1      -3.223  12.388  19.698  0.00  0.00    +0.000 A 
ENDBRANCH  28  29
ENDBRANCH   7  28
TORSDOF 8
ENDMDL
MODEL 9
REMARK VINA RESULT:      -7.3      2.530      9.449
REMARK  Name = 
REMARK  8 active torsions:
REMARK  status: ('A' for Active; 'I' for Inactive)
REMARK    1  A    between atoms: N_4  and  C_5
REMARK    2  A    between atoms: C_5  and  C_6
REMARK    3  A    between atoms: C_6  and  C_7
REMARK    4  A    between atoms: C_7  and  N_8
REMARK    5  A    between atoms: C_9  and  C_11
REMARK    6  A    between atoms: N_17  and  C_18
REMARK    7  A    between atoms: C_18  and  C_19
REMARK    8  A    between atoms: C_28  and  O_29
REMARK                            x       y       z     vdW  Elec       q    Type
REMARK                         _______ _______ _______ _____ _____    ______ ____
ROOT
ATOM      1  C   UNL     1       0.525   9.942  19.908  0.00  0.00    +0.000 A 
ATOM      2  N   UNL     1       0.385   9.164  21.024  0.00  0.00    +0.000 NA
ATOM      3  C   UNL     1       1.025   7.967  21.002  0.00  0.00    +0.000 A 
ATOM      4  C   UNL     1       1.818   7.532  19.945  0.00  0.00    +0.000 A 
ATOM      5  C   UNL     1       2.500   6.217  20.012  0.00  0.00    +0.000 A 
ATOM      6  O   UNL     1       2.258   5.469  20.957  0.00  0.00    +0.000 OA
ATOM      7  N   UNL     1       3.372   5.908  18.964  0.00  0.00    +0.000 N 
ATOM      8  C   UNL     1       3.539   6.752  17.880  0.00  0.00    +0.000 A 
ATOM      9  C   UNL     1       2.885   7.912  17.761  0.00  0.00    +0.000 A 
ATOM     10  C   UNL     1       1.985   8.362  18.828  0.00  0.00    +0.000 A 
ATOM     11  C   UNL     1       1.316   9.592  18.807  0.00  0.00    +0.000 A 
ENDROOT
BRANCH   1  13
ATOM     12  N   UNL     1      -0.061  12.003  21.056  0.00  0.00    +0.000 N 
ATOM     13  C   UNL     1      -0.242  11.232  19.923  0.00  0.00    +0.000 C 
ATOM     14  O   UNL     1      -0.980  11.560  19.002  0.00  0.00    +0.000 OA
ATOM     15  H   UNL     1       0.490  11.605  21.810  0.00  0.00    +0.000 HD
BRANCH  12  16
ATOM     16  C   UNL     1      -0.698  13.296  21.208  0.00  0.00    +0.000 C 
BRANCH  16  17
ATOM     17  C   UNL     1      -2.021  13.216  21.964  0.00  0.00    +0.000 C 
BRANCH  17  18
ATOM     18  C   UNL     1      -1.920  12.274  23.161  0.00  0.00    +0.000 C 
BRANCH  18  22
ATOM     19  N   UNL     1      -5.197  11.959  24.685  0.00  0.00    +0.000 N 
ATOM     20  C   UNL     1      -4.008  12.548  24.423  0.00  0.00    +0.000 C 
ATOM     21  O   UNL     1      -3.712  13.633  24.903  0.00  0.00    +0.000 OA
ATOM     22  N   UNL     1      -3.217  11.808  23.600  0.00  0.00    +0.000 N 
ATOM     23  H   UNL     1      -5.793  12.418  25.360  0.00  0.00    +0.000 HD
ATOM     24  H   UNL     1      -5.407  11.013  24.414  0.00  0.00    +0.000 HD
ATOM     25  H   UNL     1      -3.616  11.001  23.146  0.00  0.00    +0.000 HD
ENDBRANCH  18  22
ENDBRANCH  17  18
ENDBRANCH  16  17
ENDBRANCH  12  16
ENDBRANCH   1  13
BRANCH  11  26
ATOM     26  O   UNL     1       1.488  10.484  17.784  0.00  0.00    +0.000 OA
ATOM     27  H   UNL     1       2.366  10.386  17.387  0.00  0.00    +0.000 HD
ENDBRANCH  11  26
BRANCH   7  28
ATOM     28  C   UNL     1       4.039   4.606  18.960  0.00  0.00    +0.000 C 
BRANCH  28  29
ATOM     29  C   UNL     1       5.095   4.426  17.891  0.00  0.00    +0.000 A 
ATOM     30  C   UNL     1       4.728   4.026  16.598  0.00  0.00    +0.000 A 
ATOM     31  C   UNL     1       5.666   4.009  15.563  0.00  0.00    +0.000 A 
ATOM     32  C   UNL     1       6.987   4.373  15.813  0.00  0.00    +0.000 A 
ATOM     33  C   UNL     1       7.377   4.721  17.105  0.00  0.00    +0.000 A 
ATOM     34  C   UNL     1       6.439   4.740  18.141  0.00  0.00    +0.000 A 
ENDBRANCH  28  29
ENDBRANCH   7  28
TORSDOF 8
ENDMDL
