MODEL 1
REMARK VINA RESULT:      -8.3      0.000      0.000
REMARK  Name = 
REMARK  9 active torsions:
REMARK  status: ('A' for Active; 'I' for Inactive)
REMARK    1  A    between atoms: C_2  and  C_3
REMARK    2  A    between atoms: C_3  and  O_4
REMARK    3  A    between atoms: O_4  and  C_5
REMARK    4  A    between atoms: C_5  and  C_7
REMARK    5  A    between atoms: C_9  and  S_10
REMARK    6  A    between atoms: S_10  and  N_13
REMARK    7  A    between atoms: C_20  and  O_21
REMARK    8  A    between atoms: N_22  and  C_23
REMARK    9  A    between atoms: C_23  and  C_24
REMARK                            x       y       z     vdW  Elec       q    Type
REMARK                         _______ _______ _______ _____ _____    ______ ____
ROOT
ATOM      1  C   UNL     1       2.925   4.899  18.763  0.00  0.00    +0.000 A 
ATOM      2  C   UNL     1       3.791   5.537  17.862  0.00  0.00    +0.000 A 
ATOM      3  C   UNL     1       4.472   4.781  16.905  0.00  0.00    +0.000 A 
ATOM      4  C   UNL     1       4.389   3.385  16.931  0.00  0.00    +0.000 A 
ATOM      5  C   UNL     1       3.505   2.752  17.808  0.00  0.00    +0.000 A 
ATOM      6  C   UNL     1       2.740   3.512  18.690  0.00  0.00    +0.000 A 
ENDROOT
BRANCH   3   7
ATOM      7  S   UNL     1       5.535   5.584  15.704  0.00  0.00    +0.000 S 
ATOM      8  O   UNL     1       5.661   4.670  14.594  0.00  0.00    +0.000 OA
ATOM      9  O   UNL     1       4.998   6.930  15.520  0.00  0.00    +0.000 OA
BRANCH   7  10
ATOM     10  N   UNL     1       7.030   5.746  16.459  0.00  0.00    +0.000 NA
ATOM     11  C   UNL     1       7.577   4.664  17.291  0.00  0.00    +0.000 C 
ATOM     12  C   UNL     1       7.519   5.230  18.696  0.00  0.00    +0.000 C 
ATOM     13  C   UNL     1       7.814   6.710  18.509  0.00  0.00    +0.000 C 
ATOM     14  C   UNL     1       7.428   7.035  17.064  0.00  0.00    +0.000 C 
ENDBRANCH   7  10
ENDBRANCH   3   7
BRANCH   1  15
ATOM     15  C   UNL     1       2.335   5.730  19.837  0.00  0.00    +0.000 C 
ATOM     16  O   UNL     1       1.496   5.324  20.625  0.00  0.00    +0.000 OA
BRANCH  15  17
ATOM     17  O   UNL     1       2.680   7.018  19.606  0.00  0.00    +0.000 OA
BRANCH  17  18
ATOM     18  C   UNL     1       1.805   8.008  20.146  0.00  0.00    +0.000 C 
BRANCH  18  20
ATOM     19  O   UNL     1       1.795   8.868  17.884  0.00  0.00    +0.000 OA
ATOM     20  C   UNL     1       1.437   9.009  19.050  0.00  0.00    +0.000 C 
ATOM     21  N   UNL     1       0.632  10.046  19.478  0.00  0.00    +0.000 N 
ATOM     22  H   UNL     1       0.326  10.040  20.443  0.00  0.00    +0.000 HD
BRANCH  21  23
ATOM     23  C   UNL     1       0.169  11.101  18.607  0.00  0.00    +0.000 C 
BRANCH  23  24
ATOM     24  C   UNL     1      -1.288  10.918  18.271  0.00  0.00    +0.000 A 
ATOM     25  C   UNL     1      -1.699   9.949  17.344  0.00  0.00    +0.000 A 
ATOM     26  C   UNL     1      -3.050   9.811  17.018  0.00  0.00    +0.000 A 
ATOM     27  C   UNL     1      -4.001  10.638  17.614  0.00  0.00    +0.000 A 
ATOM     28  C   UNL     1      -3.603  11.603  18.536  0.00  0.00    +0.000 A 
ATOM     29  C   UNL     1      -2.253  11.746  18.861  0.00  0.00    +0.000 A 
ENDBRANCH  23  24
ENDBRANCH  21  23
ENDBRANCH  18  20
ENDBRANCH  17  18
ENDBRANCH  15  17
ENDBRANCH   1  15
BRANCH   6  30
ATOM     30  O   UNL     1       1.814   2.891  19.478  0.00  0.00    +0.000 OA
ATOM     31  H   UNL     1       1.002   2.719  18.974  0.00  0.00    +0.000 HD
ENDBRANCH   6  30
TORSDOF 9
ENDMDL
MODEL 2
REMARK VINA RESULT:      -8.2      1.086      1.360
REMARK  Name = 
REMARK  9 active torsions:
REMARK  status: ('A' for Active; 'I' for Inactive)
REMARK    1  A    between atoms: C_2  and  C_3
REMARK    2  A    between atoms: C_3  and  O_4
REMARK    3  A    between atoms: O_4  and  C_5
REMARK    4  A    between atoms: C_5  and  C_7
REMARK    5  A    between atoms: C_9  and  S_10
REMARK    6  A    between atoms: S_10  and  N_13
REMARK    7  A    between atoms: C_20  and  O_21
REMARK    8  A    between atoms: N_22  and  C_23
REMARK    9  A    between atoms: C_23  and  C_24
REMARK                            x       y       z     vdW  Elec       q    Type
REMARK                         _______ _______ _______ _____ _____    ______ ____
ROOT
ATOM      1  C   UNL     1       2.923   5.893  18.289  0.00  0.00    +0.000 A 
ATOM      2  C   UNL     1       4.003   6.019  17.401  0.00  0.00    +0.000 A 
ATOM      3  C   UNL     1       4.606   4.873  16.881  0.00  0.00    +0.000 A 
ATOM      4  C   UNL     1       4.221   3.610  17.342  0.00  0.00    +0.000 A 
ATOM      5  C   UNL     1       3.128   3.483  18.204  0.00  0.00    +0.000 A 
ATOM      6  C   UNL     1       2.452   4.621  18.638  0.00  0.00    +0.000 A 
ENDROOT
BRANCH   3   7
ATOM      7  S   UNL     1       5.946   5.012  15.695  0.00  0.00    +0.000 S 
ATOM      8  O   UNL     1       6.125   3.698  15.124  0.00  0.00    +0.000 OA
ATOM      9  O   UNL     1       5.630   6.166  14.857  0.00  0.00    +0.000 OA
BRANCH   7  10
ATOM     10  N   UNL     1       7.309   5.413  16.598  0.00  0.00    +0.000 NA
ATOM     11  C   UNL     1       7.750   4.566  17.716  0.00  0.00    +0.000 C 
ATOM     12  C   UNL     1       7.472   5.417  18.939  0.00  0.00    +0.000 C 
ATOM     13  C   UNL     1       7.758   6.835  18.473  0.00  0.00    +0.000 C 
ATOM     14  C   UNL     1       7.584   6.821  16.953  0.00  0.00    +0.000 C 
ENDBRANCH   7  10
ENDBRANCH   3   7
BRANCH   1  15
ATOM     15  C   UNL     1       2.410   7.135  18.911  0.00  0.00    +0.000 C 
ATOM     16  O   UNL     1       2.289   7.291  20.114  0.00  0.00    +0.000 OA
BRANCH  15  17
ATOM     17  O   UNL     1       1.875   7.902  17.932  0.00  0.00    +0.000 OA
BRANCH  17  18
ATOM     18  C   UNL     1       2.309   9.260  17.891  0.00  0.00    +0.000 C 
BRANCH  18  20
ATOM     19  O   UNL     1       1.603  11.068  19.338  0.00  0.00    +0.000 OA
ATOM     20  C   UNL     1       1.279  10.142  18.599  0.00  0.00    +0.000 C 
ATOM     21  N   UNL     1      -0.033   9.837  18.295  0.00  0.00    +0.000 N 
ATOM     22  H   UNL     1      -0.203   9.103  17.618  0.00  0.00    +0.000 HD
BRANCH  21  23
ATOM     23  C   UNL     1      -1.161  10.543  18.854  0.00  0.00    +0.000 C 
BRANCH  23  24
ATOM     24  C   UNL     1      -2.273  10.660  17.845  0.00  0.00    +0.000 A 
ATOM     25  C   UNL     1      -2.168  10.060  16.581  0.00  0.00    +0.000 A 
ATOM     26  C   UNL     1      -3.193  10.202  15.643  0.00  0.00    +0.000 A 
ATOM     27  C   UNL     1      -4.331  10.945  15.957  0.00  0.00    +0.000 A 
ATOM     28  C   UNL     1      -4.445  11.544  17.210  0.00  0.00    +0.000 A 
ATOM     29  C   UNL     1      -3.421  11.407  18.148  0.00  0.00    +0.000 A 
ENDBRANCH  23  24
ENDBRANCH  21  23
ENDBRANCH  18  20
ENDBRANCH  17  18
ENDBRANCH  15  17
ENDBRANCH   1  15
BRANCH   6  30
ATOM     30  O   UNL     1       1.330   4.480  19.405  0.00  0.00    +0.000 OA
ATOM     31  H   UNL     1       0.533   4.597  18.862  0.00  0.00    +0.000 HD
ENDBRANCH   6  30
TORSDOF 9
ENDMDL
MODEL 3
REMARK VINA RESULT:      -7.9      0.642      1.116
REMARK  Name = 
REMARK  9 active torsions:
REMARK  status: ('A' for Active; 'I' for Inactive)
REMARK    1  A    between atoms: C_2  and  C_3
REMARK    2  A    between atoms: C_3  and  O_4
REMARK    3  A    between atoms: O_4  and  C_5
REMARK    4  A    between atoms: C_5  and  C_7
REMARK    5  A    between atoms: C_9  and  S_10
REMARK    6  A    between atoms: S_10  and  N_13
REMARK    7  A    between atoms: C_20  and  O_21
REMARK    8  A    between atoms: N_22  and  C_23
REMARK    9  A    between atoms: C_23  and  C_24
REMARK                            x       y       z     vdW  Elec       q    Type
REMARK                         _______ _______ _______ _____ _____    ______ ____
ROOT
ATOM      1  C   UNL     1       2.966   5.096  18.671  0.00  0.00    +0.000 A 
ATOM      2  C   UNL     1       3.913   5.640  17.789  0.00  0.00    +0.000 A 
ATOM      3  C   UNL     1       4.538   4.814  16.853  0.00  0.00    +0.000 A 
ATOM      4  C   UNL     1       4.317   3.433  16.882  0.00  0.00    +0.000 A 
ATOM      5  C   UNL     1       3.353   2.896  17.740  0.00  0.00    +0.000 A 
ATOM      6  C   UNL     1       2.647   3.734  18.599  0.00  0.00    +0.000 A 
ENDROOT
BRANCH   3   7
ATOM      7  S   UNL     1       5.704   5.500  15.674  0.00  0.00    +0.000 S 
ATOM      8  O   UNL     1       5.883   4.501  14.647  0.00  0.00    +0.000 OA
ATOM      9  O   UNL     1       5.217   6.839  15.352  0.00  0.00    +0.000 OA
BRANCH   7  10
ATOM     10  N   UNL     1       7.146   5.687  16.522  0.00  0.00    +0.000 NA
ATOM     11  C   UNL     1       7.648   4.622  17.402  0.00  0.00    +0.000 C 
ATOM     12  C   UNL     1       7.496   5.206  18.791  0.00  0.00    +0.000 C 
ATOM     13  C   UNL     1       7.788   6.686  18.603  0.00  0.00    +0.000 C 
ATOM     14  C   UNL     1       7.493   6.987  17.132  0.00  0.00    +0.000 C 
ENDBRANCH   7  10
ENDBRANCH   3   7
BRANCH   1  15
ATOM     15  C   UNL     1       2.435   5.988  19.727  0.00  0.00    +0.000 C 
ATOM     16  O   UNL     1       1.569   5.659  20.521  0.00  0.00    +0.000 OA
BRANCH  15  17
ATOM     17  O   UNL     1       2.871   7.244  19.471  0.00  0.00    +0.000 OA
BRANCH  17  18
ATOM     18  C   UNL     1       2.114   7.988  18.519  0.00  0.00    +0.000 C 
BRANCH  18  20
ATOM     19  O   UNL     1       1.255   9.132  20.472  0.00  0.00    +0.000 OA
ATOM     20  C   UNL     1       1.293   9.054  19.246  0.00  0.00    +0.000 C 
ATOM     21  N   UNL     1       0.646   9.940  18.409  0.00  0.00    +0.000 N 
ATOM     22  H   UNL     1       0.793   9.842  17.412  0.00  0.00    +0.000 HD
BRANCH  21  23
ATOM     23  C   UNL     1      -0.184  11.021  18.888  0.00  0.00    +0.000 C 
BRANCH  23  24
ATOM     24  C   UNL     1      -1.565  10.941  18.292  0.00  0.00    +0.000 A 
ATOM     25  C   UNL     1      -2.611  11.735  18.785  0.00  0.00    +0.000 A 
ATOM     26  C   UNL     1      -3.895  11.628  18.244  0.00  0.00    +0.000 A 
ATOM     27  C   UNL     1      -4.145  10.728  17.210  0.00  0.00    +0.000 A 
ATOM     28  C   UNL     1      -3.113   9.935  16.713  0.00  0.00    +0.000 A 
ATOM     29  C   UNL     1      -1.831  10.037  17.254  0.00  0.00    +0.000 A 
ENDBRANCH  23  24
ENDBRANCH  21  23
ENDBRANCH  18  20
ENDBRANCH  17  18
ENDBRANCH  15  17
ENDBRANCH   1  15
BRANCH   6  30
ATOM     30  O   UNL     1       1.644   3.212  19.367  0.00  0.00    +0.000 OA
ATOM     31  H   UNL     1       0.924   2.885  18.804  0.00  0.00    +0.000 HD
ENDBRANCH   6  30
TORSDOF 9
ENDMDL
MODEL 4
REMARK VINA RESULT:      -7.8      1.700      2.220
REMARK  Name = 
REMARK  9 active torsions:
REMARK  status: ('A' for Active; 'I' for Inactive)
REMARK    1  A    between atoms: C_2  and  C_3
REMARK    2  A    between atoms: C_3  and  O_4
REMARK    3  A    between atoms: O_4  and  C_5
REMARK    4  A    between atoms: C_5  and  C_7
REMARK    5  A    between atoms: C_9  and  S_10
REMARK    6  A    between atoms: S_10  and  N_13
REMARK    7  A    between atoms: C_20  and  O_21
REMARK    8  A    between atoms: N_22  and  C_23
REMARK    9  A    between atoms: C_23  and  C_24
REMARK                            x       y       z     vdW  Elec       q    Type
REMARK                         _______ _______ _______ _____ _____    ______ ____
ROOT
ATOM      1  C   UNL     1       3.036   5.474  18.623  0.00  0.00    +0.000 A 
ATOM      2  C   UNL     1       4.053   5.798  17.711  0.00  0.00    +0.000 A 
ATOM      3  C   UNL     1       4.648   4.788  16.952  0.00  0.00    +0.000 A 
ATOM      4  C   UNL     1       4.322   3.450  17.193  0.00  0.00    +0.000 A 
ATOM      5  C   UNL     1       3.289   3.129  18.078  0.00  0.00    +0.000 A 
ATOM      6  C   UNL     1       2.617   4.144  18.756  0.00  0.00    +0.000 A 
ENDROOT
BRANCH   3   7
ATOM      7  S   UNL     1       5.905   5.189  15.736  0.00  0.00    +0.000 S 
ATOM      8  O   UNL     1       6.120   3.991  14.960  0.00  0.00    +0.000 OA
ATOM      9  O   UNL     1       5.479   6.435  15.105  0.00  0.00    +0.000 OA
BRANCH   7  10
ATOM     10  N   UNL     1       7.296   5.532  16.621  0.00  0.00    +0.000 NA
ATOM     11  C   UNL     1       7.737   4.647  17.708  0.00  0.00    +0.000 C 
ATOM     12  C   UNL     1       7.506   5.473  18.957  0.00  0.00    +0.000 C 
ATOM     13  C   UNL     1       7.820   6.895  18.521  0.00  0.00    +0.000 C 
ATOM     14  C   UNL     1       7.615   6.923  17.004  0.00  0.00    +0.000 C 
ENDBRANCH   7  10
ENDBRANCH   3   7
BRANCH   1  15
ATOM     15  C   UNL     1       2.536   6.562  19.493  0.00  0.00    +0.000 C 
ATOM     16  O   UNL     1       1.789   6.383  20.440  0.00  0.00    +0.000 OA
BRANCH  15  17
ATOM     17  O   UNL     1       2.828   7.742  18.897  0.00  0.00    +0.000 OA
BRANCH  17  18
ATOM     18  C   UNL     1       1.944   8.153  17.856  0.00  0.00    +0.000 C 
BRANCH  18  20
ATOM     19  O   UNL     1       2.201  10.552  17.656  0.00  0.00    +0.000 OA
ATOM     20  C   UNL     1       1.538   9.610  18.083  0.00  0.00    +0.000 C 
ATOM     21  N   UNL     1       0.346   9.766  18.761  0.00  0.00    +0.000 N 
ATOM     22  H   UNL     1      -0.169   8.931  19.010  0.00  0.00    +0.000 HD
BRANCH  21  23
ATOM     23  C   UNL     1      -0.220  11.055  19.082  0.00  0.00    +0.000 C 
BRANCH  23  24
ATOM     24  C   UNL     1      -0.633  11.113  20.529  0.00  0.00    +0.000 A 
ATOM     25  C   UNL     1      -0.213  10.133  21.441  0.00  0.00    +0.000 A 
ATOM     26  C   UNL     1      -0.628  10.181  22.773  0.00  0.00    +0.000 A 
ATOM     27  C   UNL     1      -1.467  11.206  23.207  0.00  0.00    +0.000 A 
ATOM     28  C   UNL     1      -1.890  12.185  22.311  0.00  0.00    +0.000 A 
ATOM     29  C   UNL     1      -1.479  12.138  20.978  0.00  0.00    +0.000 A 
ENDBRANCH  23  24
ENDBRANCH  21  23
ENDBRANCH  18  20
ENDBRANCH  17  18
ENDBRANCH  15  17
ENDBRANCH   1  15
BRANCH   6  30
ATOM     30  O   UNL     1       1.551   3.826  19.548  0.00  0.00    +0.000 OA
ATOM     31  H   UNL     1       0.838   3.437  19.015  0.00  0.00    +0.000 HD
ENDBRANCH   6  30
TORSDOF 9
ENDMDL
MODEL 5
REMARK VINA RESULT:      -7.8      5.128      7.986
REMARK  Name = 
REMARK  9 active torsions:
REMARK  status: ('A' for Active; 'I' for Inactive)
REMARK    1  A    between atoms: C_2  and  C_3
REMARK    2  A    between atoms: C_3  and  O_4
REMARK    3  A    between atoms: O_4  and  C_5
REMARK    4  A    between atoms: C_5  and  C_7
REMARK    5  A    between atoms: C_9  and  S_10
REMARK    6  A    between atoms: S_10  and  N_13
REMARK    7  A    between atoms: C_20  and  O_21
REMARK    8  A    between atoms: N_22  and  C_23
REMARK    9  A    between atoms: C_23  and  C_24
REMARK                            x       y       z     vdW  Elec       q    Type
REMARK                         _______ _______ _______ _____ _____    ______ ____
ROOT
ATOM      1  C   UNL     1       6.258   5.046  18.154  0.00  0.00    +0.000 A 
ATOM      2  C   UNL     1       4.938   5.083  18.631  0.00  0.00    +0.000 A 
ATOM      3  C   UNL     1       3.908   4.553  17.852  0.00  0.00    +0.000 A 
ATOM      4  C   UNL     1       4.173   4.106  16.553  0.00  0.00    +0.000 A 
ATOM      5  C   UNL     1       5.490   4.042  16.090  0.00  0.00    +0.000 A 
ATOM      6  C   UNL     1       6.534   4.468  16.909  0.00  0.00    +0.000 A 
ENDROOT
BRANCH   3   7
ATOM      7  S   UNL     1       2.223   4.533  18.469  0.00  0.00    +0.000 S 
ATOM      8  O   UNL     1       2.097   5.668  19.351  0.00  0.00    +0.000 OA
ATOM      9  O   UNL     1       1.362   4.382  17.298  0.00  0.00    +0.000 OA
BRANCH   7  10
ATOM     10  N   UNL     1       2.088   3.116  19.369  0.00  0.00    +0.000 NA
ATOM     11  C   UNL     1       0.955   2.906  20.281  0.00  0.00    +0.000 C 
ATOM     12  C   UNL     1       1.588   2.966  21.656  0.00  0.00    +0.000 C 
ATOM     13  C   UNL     1       2.955   2.332  21.460  0.00  0.00    +0.000 C 
ATOM     14  C   UNL     1       3.286   2.498  19.975  0.00  0.00    +0.000 C 
ENDBRANCH   7  10
ENDBRANCH   3   7
BRANCH   1  15
ATOM     15  C   UNL     1       7.288   5.740  18.961  0.00  0.00    +0.000 C 
ATOM     16  O   UNL     1       7.464   5.541  20.151  0.00  0.00    +0.000 OA
BRANCH  15  17
ATOM     17  O   UNL     1       7.769   6.771  18.227  0.00  0.00    +0.000 OA
BRANCH  17  18
ATOM     18  C   UNL     1       8.549   7.733  18.934  0.00  0.00    +0.000 C 
BRANCH  18  20
ATOM     19  O   UNL     1       7.471   9.340  17.479  0.00  0.00    +0.000 OA
ATOM     20  C   UNL     1       8.367   9.107  18.287  0.00  0.00    +0.000 C 
ATOM     21  N   UNL     1       9.261  10.063  18.725  0.00  0.00    +0.000 N 
ATOM     22  H   UNL     1       9.919   9.798  19.448  0.00  0.00    +0.000 HD
BRANCH  21  23
ATOM     23  C   UNL     1       9.267  11.423  18.242  0.00  0.00    +0.000 C 
BRANCH  23  24
ATOM     24  C   UNL     1       9.653  12.380  19.340  0.00  0.00    +0.000 A 
ATOM     25  C   UNL     1       9.152  12.225  20.642  0.00  0.00    +0.000 A 
ATOM     26  C   UNL     1       9.493  13.137  21.643  0.00  0.00    +0.000 A 
ATOM     27  C   UNL     1      10.334  14.211  21.354  0.00  0.00    +0.000 A 
ATOM     28  C   UNL     1      10.837  14.373  20.065  0.00  0.00    +0.000 A 
ATOM     29  C   UNL     1      10.495  13.466  19.062  0.00  0.00    +0.000 A 
ENDBRANCH  23  24
ENDBRANCH  21  23
ENDBRANCH  18  20
ENDBRANCH  17  18
ENDBRANCH  15  17
ENDBRANCH   1  15
BRANCH   6  30
ATOM     30  O   UNL     1       7.822   4.316  16.482  0.00  0.00    +0.000 OA
ATOM     31  H   UNL     1       7.990   3.391  16.236  0.00  0.00    +0.000 HD
ENDBRANCH   6  30
TORSDOF 9
ENDMDL
MODEL 6
REMARK VINA RESULT:      -7.7      1.846      2.476
REMARK  Name = 
REMARK  9 active torsions:
REMARK  status: ('A' for Active; 'I' for Inactive)
REMARK    1  A    between atoms: C_2  and  C_3
REMARK    2  A    between atoms: C_3  and  O_4
REMARK    3  A    between atoms: O_4  and  C_5
REMARK    4  A    between atoms: C_5  and  C_7
REMARK    5  A    between atoms: C_9  and  S_10
REMARK    6  A    between atoms: S_10  and  N_13
REMARK    7  A    between atoms: C_20  and  O_21
REMARK    8  A    between atoms: N_22  and  C_23
REMARK    9  A    between atoms: C_23  and  C_24
REMARK                            x       y       z     vdW  Elec       q    Type
REMARK                         _______ _______ _______ _____ _____    ______ ____
ROOT
ATOM      1  C   UNL     1       2.855   6.442  18.799  0.00  0.00    +0.000 A 
ATOM      2  C   UNL     1       3.771   6.592  17.745  0.00  0.00    +0.000 A 
ATOM      3  C   UNL     1       4.387   5.464  17.200  0.00  0.00    +0.000 A 
ATOM      4  C   UNL     1       4.191   4.209  17.786  0.00  0.00    +0.000 A 
ATOM      5  C   UNL     1       3.258   4.055  18.815  0.00  0.00    +0.000 A 
ATOM      6  C   UNL     1       2.558   5.163  19.287  0.00  0.00    +0.000 A 
ENDROOT
BRANCH   3   7
ATOM      7  S   UNL     1       5.512   5.628  15.812  0.00  0.00    +0.000 S 
ATOM      8  O   UNL     1       5.463   4.375  15.096  0.00  0.00    +0.000 OA
ATOM      9  O   UNL     1       5.172   6.888  15.158  0.00  0.00    +0.000 OA
BRANCH   7  10
ATOM     10  N   UNL     1       7.042   5.817  16.490  0.00  0.00    +0.000 NA
ATOM     11  C   UNL     1       7.633   4.763  17.327  0.00  0.00    +0.000 C 
ATOM     12  C   UNL     1       7.640   5.371  18.714  0.00  0.00    +0.000 C 
ATOM     13  C   UNL     1       7.918   6.845  18.469  0.00  0.00    +0.000 C 
ATOM     14  C   UNL     1       7.462   7.125  17.035  0.00  0.00    +0.000 C 
ENDBRANCH   7  10
ENDBRANCH   3   7
BRANCH   1  15
ATOM     15  C   UNL     1       2.335   7.679  19.423  0.00  0.00    +0.000 C 
ATOM     16  O   UNL     1       1.698   7.697  20.464  0.00  0.00    +0.000 OA
BRANCH  15  17
ATOM     17  O   UNL     1       2.455   8.684  18.524  0.00  0.00    +0.000 OA
BRANCH  17  18
ATOM     18  C   UNL     1       1.255   9.386  18.204  0.00  0.00    +0.000 C 
BRANCH  18  20
ATOM     19  O   UNL     1       1.616  11.772  18.389  0.00  0.00    +0.000 OA
ATOM     20  C   UNL     1       1.247  10.732  18.929  0.00  0.00    +0.000 C 
ATOM     21  N   UNL     1       0.747  10.681  20.215  0.00  0.00    +0.000 N 
ATOM     22  H   UNL     1       0.398   9.792  20.551  0.00  0.00    +0.000 HD
BRANCH  21  23
ATOM     23  C   UNL     1       0.652  11.836  21.075  0.00  0.00    +0.000 C 
BRANCH  23  24
ATOM     24  C   UNL     1      -0.775  12.080  21.490  0.00  0.00    +0.000 A 
ATOM     25  C   UNL     1      -1.689  12.684  20.613  0.00  0.00    +0.000 A 
ATOM     26  C   UNL     1      -3.002  12.933  21.020  0.00  0.00    +0.000 A 
ATOM     27  C   UNL     1      -3.413  12.582  22.305  0.00  0.00    +0.000 A 
ATOM     28  C   UNL     1      -2.514  11.980  23.183  0.00  0.00    +0.000 A 
ATOM     29  C   UNL     1      -1.201  11.734  22.780  0.00  0.00    +0.000 A 
ENDBRANCH  23  24
ENDBRANCH  21  23
ENDBRANCH  18  20
ENDBRANCH  17  18
ENDBRANCH  15  17
ENDBRANCH   1  15
BRANCH   6  30
ATOM     30  O   UNL     1       1.583   4.987  20.228  0.00  0.00    +0.000 OA
ATOM     31  H   UNL     1       1.235   5.846  20.519  0.00  0.00    +0.000 HD
ENDBRANCH   6  30
TORSDOF 9
ENDMDL
MODEL 7
REMARK VINA RESULT:      -7.7      1.235      1.852
REMARK  Name = 
REMARK  9 active torsions:
REMARK  status: ('A' for Active; 'I' for Inactive)
REMARK    1  A    between atoms: C_2  and  C_3
REMARK    2  A    between atoms: C_3  and  O_4
REMARK    3  A    between atoms: O_4  and  C_5
REMARK    4  A    between atoms: C_5  and  C_7
REMARK    5  A    between atoms: C_9  and  S_10
REMARK    6  A    between atoms: S_10  and  N_13
REMARK    7  A    between atoms: C_20  and  O_21
REMARK    8  A    between atoms: N_22  and  C_23
REMARK    9  A    between atoms: C_23  and  C_24
REMARK                            x       y       z     vdW  Elec       q    Type
REMARK                         _______ _______ _______ _____ _____    ______ ____
ROOT
ATOM      1  C   UNL     1       2.759   6.299  18.648  0.00  0.00    +0.000 A 
ATOM      2  C   UNL     1       3.737   6.415  17.648  0.00  0.00    +0.000 A 
ATOM      3  C   UNL     1       4.436   5.281  17.230  0.00  0.00    +0.000 A 
ATOM      4  C   UNL     1       4.253   4.064  17.895  0.00  0.00    +0.000 A 
ATOM      5  C   UNL     1       3.259   3.941  18.870  0.00  0.00    +0.000 A 
ATOM      6  C   UNL     1       2.483   5.046  19.211  0.00  0.00    +0.000 A 
ENDROOT
BRANCH   3   7
ATOM      7  S   UNL     1       5.645   5.395  15.910  0.00  0.00    +0.000 S 
ATOM      8  O   UNL     1       5.662   4.108  15.257  0.00  0.00    +0.000 OA
ATOM      9  O   UNL     1       5.328   6.615  15.171  0.00  0.00    +0.000 OA
BRANCH   7  10
ATOM     10  N   UNL     1       7.125   5.648  16.672  0.00  0.00    +0.000 NA
ATOM     11  C   UNL     1       7.654   4.672  17.636  0.00  0.00    +0.000 C 
ATOM     12  C   UNL     1       7.567   5.399  18.963  0.00  0.00    +0.000 C 
ATOM     13  C   UNL     1       7.865   6.847  18.610  0.00  0.00    +0.000 C 
ATOM     14  C   UNL     1       7.510   6.999  17.130  0.00  0.00    +0.000 C 
ENDBRANCH   7  10
ENDBRANCH   3   7
BRANCH   1  15
ATOM     15  C   UNL     1       2.146   7.553  19.142  0.00  0.00    +0.000 C 
ATOM     16  O   UNL     1       2.260   8.630  18.582  0.00  0.00    +0.000 OA
BRANCH  15  17
ATOM     17  O   UNL     1       1.703   7.333  20.403  0.00  0.00    +0.000 OA
BRANCH  17  18
ATOM     18  C   UNL     1       1.771   8.444  21.294  0.00  0.00    +0.000 C 
BRANCH  18  20
ATOM     19  O   UNL     1      -0.563   8.702  21.880  0.00  0.00    +0.000 OA
ATOM     20  C   UNL     1       0.422   9.164  21.309  0.00  0.00    +0.000 C 
ATOM     21  N   UNL     1       0.425  10.388  20.672  0.00  0.00    +0.000 N 
ATOM     22  H   UNL     1       1.303  10.721  20.292  0.00  0.00    +0.000 HD
BRANCH  21  23
ATOM     23  C   UNL     1      -0.743  11.231  20.568  0.00  0.00    +0.000 C 
BRANCH  23  24
ATOM     24  C   UNL     1      -1.442  11.017  19.251  0.00  0.00    +0.000 A 
ATOM     25  C   UNL     1      -2.617  11.716  18.935  0.00  0.00    +0.000 A 
ATOM     26  C   UNL     1      -3.273  11.485  17.724  0.00  0.00    +0.000 A 
ATOM     27  C   UNL     1      -2.764  10.555  16.819  0.00  0.00    +0.000 A 
ATOM     28  C   UNL     1      -1.598   9.856  17.123  0.00  0.00    +0.000 A 
ATOM     29  C   UNL     1      -0.942  10.082  18.334  0.00  0.00    +0.000 A 
ENDBRANCH  23  24
ENDBRANCH  21  23
ENDBRANCH  18  20
ENDBRANCH  17  18
ENDBRANCH  15  17
ENDBRANCH   1  15
BRANCH   6  30
ATOM     30  O   UNL     1       1.455   4.893  20.097  0.00  0.00    +0.000 OA
ATOM     31  H   UNL     1       1.470   4.002  20.481  0.00  0.00    +0.000 HD
ENDBRANCH   6  30
TORSDOF 9
ENDMDL
MODEL 8
REMARK VINA RESULT:      -7.6      1.085      1.663
REMARK  Name = 
REMARK  9 active torsions:
REMARK  status: ('A' for Active; 'I' for Inactive)
REMARK    1  A    between atoms: C_2  and  C_3
REMARK    2  A    between atoms: C_3  and  O_4
REMARK    3  A    between atoms: O_4  and  C_5
REMARK    4  A    between atoms: C_5  and  C_7
REMARK    5  A    between atoms: C_9  and  S_10
REMARK    6  A    between atoms: S_10  and  N_13
REMARK    7  A    between atoms: C_20  and  O_21
REMARK    8  A    between atoms: N_22  and  C_23
REMARK    9  A    between atoms: C_23  and  C_24
REMARK                            x       y       z     vdW  Elec       q    Type
REMARK                         _______ _______ _______ _____ _____    ______ ____
ROOT
ATOM      1  C   UNL     1       2.833   6.124  18.644  0.00  0.00    +0.000 A 
ATOM      2  C   UNL     1       3.800   6.375  17.659  0.00  0.00    +0.000 A 
ATOM      3  C   UNL     1       4.365   5.308  16.958  0.00  0.00    +0.000 A 
ATOM      4  C   UNL     1       4.063   3.993  17.326  0.00  0.00    +0.000 A 
ATOM      5  C   UNL     1       3.079   3.743  18.286  0.00  0.00    +0.000 A 
ATOM      6  C   UNL     1       2.433   4.808  18.910  0.00  0.00    +0.000 A 
ENDROOT
BRANCH   3   7
ATOM      7  S   UNL     1       5.556   5.611  15.650  0.00  0.00    +0.000 S 
ATOM      8  O   UNL     1       5.558   4.431  14.818  0.00  0.00    +0.000 OA
ATOM      9  O   UNL     1       5.233   6.925  15.102  0.00  0.00    +0.000 OA
BRANCH   7  10
ATOM     10  N   UNL     1       7.047   5.747  16.420  0.00  0.00    +0.000 NA
ATOM     11  C   UNL     1       7.603   4.627  17.193  0.00  0.00    +0.000 C 
ATOM     12  C   UNL     1       7.534   5.113  18.626  0.00  0.00    +0.000 C 
ATOM     13  C   UNL     1       7.812   6.604  18.523  0.00  0.00    +0.000 C 
ATOM     14  C   UNL     1       7.428   7.004  17.097  0.00  0.00    +0.000 C 
ENDBRANCH   7  10
ENDBRANCH   3   7
BRANCH   1  15
ATOM     15  C   UNL     1       2.368   7.280  19.445  0.00  0.00    +0.000 C 
ATOM     16  O   UNL     1       1.758   7.174  20.496  0.00  0.00    +0.000 OA
BRANCH  15  17
ATOM     17  O   UNL     1       2.498   8.394  18.687  0.00  0.00    +0.000 OA
BRANCH  17  18
ATOM     18  C   UNL     1       1.302   8.889  18.090  0.00  0.00    +0.000 C 
BRANCH  18  20
ATOM     19  O   UNL     1       1.009  10.263  20.062  0.00  0.00    +0.000 OA
ATOM     20  C   UNL     1       0.832  10.128  18.854  0.00  0.00    +0.000 C 
ATOM     21  N   UNL     1       0.241  11.092  18.061  0.00  0.00    +0.000 N 
ATOM     22  H   UNL     1       0.203  10.925  17.064  0.00  0.00    +0.000 HD
BRANCH  21  23
ATOM     23  C   UNL     1      -0.275  12.337  18.580  0.00  0.00    +0.000 C 
BRANCH  23  24
ATOM     24  C   UNL     1      -1.761  12.248  18.806  0.00  0.00    +0.000 A 
ATOM     25  C   UNL     1      -2.346  12.764  19.973  0.00  0.00    +0.000 A 
ATOM     26  C   UNL     1      -3.721  12.648  20.186  0.00  0.00    +0.000 A 
ATOM     27  C   UNL     1      -4.524  12.015  19.238  0.00  0.00    +0.000 A 
ATOM     28  C   UNL     1      -3.954  11.500  18.076  0.00  0.00    +0.000 A 
ATOM     29  C   UNL     1      -2.579  11.611  17.863  0.00  0.00    +0.000 A 
ENDBRANCH  23  24
ENDBRANCH  21  23
ENDBRANCH  18  20
ENDBRANCH  17  18
ENDBRANCH  15  17
ENDBRANCH   1  15
BRANCH   6  30
ATOM     30  O   UNL     1       1.410   4.553  19.778  0.00  0.00    +0.000 OA
ATOM     31  H   UNL     1       1.577   3.730  20.266  0.00  0.00    +0.000 HD
ENDBRANCH   6  30
TORSDOF 9
ENDMDL
MODEL 9
REMARK VINA RESULT:      -7.6      1.907      3.165
REMARK  Name = 
REMARK  9 active torsions:
REMARK  status: ('A' for Active; 'I' for Inactive)
REMARK    1  A    between atoms: C_2  and  C_3
REMARK    2  A    between atoms: C_3  and  O_4
REMARK    3  A    between atoms: O_4  and  C_5
REMARK    4  A    between atoms: C_5  and  C_7
REMARK    5  A    between atoms: C_9  and  S_10
REMARK    6  A    between atoms: S_10  and  N_13
REMARK    7  A    between atoms: C_20  and  O_21
REMARK    8  A    between atoms: N_22  and  C_23
REMARK    9  A    between atoms: C_23  and  C_24
REMARK                            x       y       z     vdW  Elec       q    Type
REMARK                         _______ _______ _______ _____ _____    ______ ____
ROOT
ATOM      1  C   UNL     1       2.912   5.261  18.610  0.00  0.00    +0.000 A 
ATOM      2  C   UNL     1       3.856   5.777  17.708  0.00  0.00    +0.000 A 
ATOM      3  C   UNL     1       4.469   4.925  16.787  0.00  0.00    +0.000 A 
ATOM      4  C   UNL     1       4.239   3.546  16.852  0.00  0.00    +0.000 A 
ATOM      5  C   UNL     1       3.279   3.036  17.730  0.00  0.00    +0.000 A 
ATOM      6  C   UNL     1       2.584   3.900  18.574  0.00  0.00    +0.000 A 
ENDROOT
BRANCH   3   7
ATOM      7  S   UNL     1       5.630   5.574  15.583  0.00  0.00    +0.000 S 
ATOM      8  O   UNL     1       5.773   4.560  14.565  0.00  0.00    +0.000 OA
ATOM      9  O   UNL     1       5.166   6.919  15.254  0.00  0.00    +0.000 OA
BRANCH   7  10
ATOM     10  N   UNL     1       7.089   5.740  16.407  0.00  0.00    +0.000 NA
ATOM     11  C   UNL     1       7.633   4.636  17.210  0.00  0.00    +0.000 C 
ATOM     12  C   UNL     1       7.503   5.134  18.635  0.00  0.00    +0.000 C 
ATOM     13  C   UNL     1       7.762   6.628  18.528  0.00  0.00    +0.000 C 
ATOM     14  C   UNL     1       7.425   7.009  17.085  0.00  0.00    +0.000 C 
ENDBRANCH   7  10
ENDBRANCH   3   7
BRANCH   1  15
ATOM     15  C   UNL     1       2.396   6.183  19.647  0.00  0.00    +0.000 C 
ATOM     16  O   UNL     1       1.892   5.811  20.694  0.00  0.00    +0.000 OA
BRANCH  15  17
ATOM     17  O   UNL     1       2.341   7.426  19.113  0.00  0.00    +0.000 OA
BRANCH  17  18
ATOM     18  C   UNL     1       1.545   8.376  19.818  0.00  0.00    +0.000 C 
BRANCH  18  20
ATOM     19  O   UNL     1       1.735   9.681  17.788  0.00  0.00    +0.000 OA
ATOM     20  C   UNL     1       1.390   9.637  18.966  0.00  0.00    +0.000 C 
ATOM     21  N   UNL     1       0.789  10.693  19.621  0.00  0.00    +0.000 N 
ATOM     22  H   UNL     1       0.471  10.541  20.570  0.00  0.00    +0.000 HD
BRANCH  21  23
ATOM     23  C   UNL     1       0.549  11.975  19.003  0.00  0.00    +0.000 C 
BRANCH  23  24
ATOM     24  C   UNL     1       1.719  12.900  19.214  0.00  0.00    +0.000 A 
ATOM     25  C   UNL     1       2.130  13.261  20.506  0.00  0.00    +0.000 A 
ATOM     26  C   UNL     1       3.197  14.144  20.687  0.00  0.00    +0.000 A 
ATOM     27  C   UNL     1       3.862  14.674  19.583  0.00  0.00    +0.000 A 
ATOM     28  C   UNL     1       3.463  14.320  18.295  0.00  0.00    +0.000 A 
ATOM     29  C   UNL     1       2.394  13.442  18.111  0.00  0.00    +0.000 A 
ENDBRANCH  23  24
ENDBRANCH  21  23
ENDBRANCH  18  20
ENDBRANCH  17  18
ENDBRANCH  15  17
ENDBRANCH   1  15
BRANCH   6  30
ATOM     30  O   UNL     1       1.584   3.404  19.361  0.00  0.00    +0.000 OA
ATOM     31  H   UNL     1       1.815   3.499  20.300  0.00  0.00    +0.000 HD
ENDBRANCH   6  30
TORSDOF 9
ENDMDL
