MODEL 1
REMARK VINA RESULT:      -7.4      0.000      0.000
REMARK  Name = 
REMARK  7 active torsions:
REMARK  status: ('A' for Active; 'I' for Inactive)
REMARK    1  A    between atoms: C_1  and  C_2
REMARK    2  A    between atoms: C_2  and  C_3
REMARK    3  A    between atoms: C_2  and  N_4
REMARK    4  A    between atoms: N_12  and  C_13
REMARK    5  A    between atoms: C_13  and  C_14
REMARK    6  A    between atoms: C_14  and  C_15
REMARK    7  A    between atoms: C_15  and  N_16
REMARK                            x       y       z     vdW  Elec       q    Type
REMARK                         _______ _______ _______ _____ _____    ______ ____
ROOT
ATOM      1  N   UNL     1       1.046   9.500  19.637  0.00  0.00    +0.000 N 
ATOM      2  N   UNL     1       1.759   9.149  18.509  0.00  0.00    +0.000 NA
ATOM      3  C   UNL     1       2.387   8.015  18.514  0.00  0.00    +0.000 A 
ATOM      4  C   UNL     1       2.394   7.076  19.649  0.00  0.00    +0.000 A 
ATOM      5  C   UNL     1       1.651   7.408  20.707  0.00  0.00    +0.000 A 
ATOM      6  C   UNL     1       0.910   8.682  20.754  0.00  0.00    +0.000 A 
ATOM      7  O   UNL     1       0.255   8.946  21.755  0.00  0.00    +0.000 OA
ATOM      8  C   UNL     1       3.211   5.835  19.575  0.00  0.00    +0.000 C 
ATOM      9  N   UNL     1       3.586   5.430  18.209  0.00  0.00    +0.000 NA
ATOM     10  C   UNL     1       4.184   6.568  17.501  0.00  0.00    +0.000 C 
ATOM     11  C   UNL     1       3.116   7.623  17.249  0.00  0.00    +0.000 C 
ENDROOT
BRANCH   1  13
ATOM     12  C   UNL     1       1.259  11.863  18.957  0.00  0.00    +0.000 C 
ATOM     13  C   UNL     1       0.361  10.797  19.586  0.00  0.00    +0.000 C 
ATOM     14  C   UNL     1      -0.966  10.681  18.838  0.00  0.00    +0.000 C 
ENDBRANCH   1  13
BRANCH   9  15
ATOM     15  C   UNL     1       4.491   4.268  18.239  0.00  0.00    +0.000 C 
BRANCH  15  16
ATOM     16  C   UNL     1       3.911   3.028  17.541  0.00  0.00    +0.000 C 
BRANCH  16  17
ATOM     17  C   UNL     1       3.625   1.885  18.518  0.00  0.00    +0.000 C 
BRANCH  17  18
ATOM     18  N   UNL     1       2.662   2.257  19.542  0.00  0.00    +0.000 N 
ATOM     19  C   UNL     1       3.047   2.591  20.894  0.00  0.00    +0.000 C 
ATOM     20  C   UNL     1       1.711   2.672  21.603  0.00  0.00    +0.000 C 
ATOM     21  C   UNL     1       0.770   3.217  20.532  0.00  0.00    +0.000 C 
ATOM     22  C   UNL     1       1.373   2.689  19.251  0.00  0.00    +0.000 C 
ATOM     23  O   UNL     1       0.838   2.712  18.156  0.00  0.00    +0.000 OA
ENDBRANCH  17  18
ENDBRANCH  16  17
ENDBRANCH  15  16
ENDBRANCH   9  15
TORSDOF 5
ENDMDL
MODEL 2
REMARK VINA RESULT:      -7.3      2.579      4.237
REMARK  Name = 
REMARK  7 active torsions:
REMARK  status: ('A' for Active; 'I' for Inactive)
REMARK    1  A    between atoms: C_1  and  C_2
REMARK    2  A    between atoms: C_2  and  C_3
REMARK    3  A    between atoms: C_2  and  N_4
REMARK    4  A    between atoms: N_12  and  C_13
REMARK    5  A    between atoms: C_13  and  C_14
REMARK    6  A    between atoms: C_14  and  C_15
REMARK    7  A    between atoms: C_15  and  N_16
REMARK                            x       y       z     vdW  Elec       q    Type
REMARK                         _______ _______ _______ _____ _____    ______ ____
ROOT
ATOM      1  N   UNL     1       1.036   8.721  20.083  0.00  0.00    +0.000 N 
ATOM      2  N   UNL     1       1.304   7.517  20.701  0.00  0.00    +0.000 NA
ATOM      3  C   UNL     1       1.980   6.631  20.041  0.00  0.00    +0.000 A 
ATOM      4  C   UNL     1       2.479   6.823  18.668  0.00  0.00    +0.000 A 
ATOM      5  C   UNL     1       2.259   8.016  18.110  0.00  0.00    +0.000 A 
ATOM      6  C   UNL     1       1.502   9.064  18.819  0.00  0.00    +0.000 A 
ATOM      7  O   UNL     1       1.314  10.137  18.257  0.00  0.00    +0.000 OA
ATOM      8  C   UNL     1       3.181   5.709  17.974  0.00  0.00    +0.000 C 
ATOM      9  N   UNL     1       3.711   4.669  18.872  0.00  0.00    +0.000 NA
ATOM     10  C   UNL     1       2.656   4.216  19.786  0.00  0.00    +0.000 C 
ATOM     11  C   UNL     1       2.312   5.340  20.754  0.00  0.00    +0.000 C 
ENDROOT
BRANCH   1  13
ATOM     12  C   UNL     1      -0.299   9.036  22.136  0.00  0.00    +0.000 C 
ATOM     13  C   UNL     1       0.259   9.687  20.869  0.00  0.00    +0.000 C 
ATOM     14  C   UNL     1       1.100  10.917  21.205  0.00  0.00    +0.000 C 
ENDBRANCH   1  13
BRANCH   9  15
ATOM     15  C   UNL     1       4.278   3.551  18.097  0.00  0.00    +0.000 C 
BRANCH  15  16
ATOM     16  C   UNL     1       4.513   3.896  16.617  0.00  0.00    +0.000 C 
BRANCH  16  17
ATOM     17  C   UNL     1       5.998   4.056  16.281  0.00  0.00    +0.000 C 
BRANCH  17  18
ATOM     18  N   UNL     1       6.650   5.056  17.111  0.00  0.00    +0.000 N 
ATOM     19  C   UNL     1       7.712   4.734  18.037  0.00  0.00    +0.000 C 
ATOM     20  C   UNL     1       7.882   6.031  18.801  0.00  0.00    +0.000 C 
ATOM     21  C   UNL     1       7.584   7.103  17.758  0.00  0.00    +0.000 C 
ATOM     22  C   UNL     1       6.596   6.419  16.841  0.00  0.00    +0.000 C 
ATOM     23  O   UNL     1       5.934   6.969  15.978  0.00  0.00    +0.000 OA
ENDBRANCH  17  18
ENDBRANCH  16  17
ENDBRANCH  15  16
ENDBRANCH   9  15
TORSDOF 5
ENDMDL
MODEL 3
REMARK VINA RESULT:      -7.1      2.657      4.036
REMARK  Name = 
REMARK  7 active torsions:
REMARK  status: ('A' for Active; 'I' for Inactive)
REMARK    1  A    between atoms: C_1  and  C_2
REMARK    2  A    between atoms: C_2  and  C_3
REMARK    3  A    between atoms: C_2  and  N_4
REMARK    4  A    between atoms: N_12  and  C_13
REMARK    5  A    between atoms: C_13  and  C_14
REMARK    6  A    between atoms: C_14  and  C_15
REMARK    7  A    between atoms: C_15  and  N_16
REMARK                            x       y       z     vdW  Elec       q    Type
REMARK                         _______ _______ _______ _____ _____    ______ ____
ROOT
ATOM      1  N   UNL     1       0.687  10.803  20.588  0.00  0.00    +0.000 N 
ATOM      2  N   UNL     1       1.061  10.335  19.346  0.00  0.00    +0.000 NA
ATOM      3  C   UNL     1       1.481   9.113  19.256  0.00  0.00    +0.000 A 
ATOM      4  C   UNL     1       1.590   8.188  20.398  0.00  0.00    +0.000 A 
ATOM      5  C   UNL     1       1.168   8.642  21.581  0.00  0.00    +0.000 A 
ATOM      6  C   UNL     1       0.674  10.022  21.739  0.00  0.00    +0.000 A 
ATOM      7  O   UNL     1       0.312  10.395  22.849  0.00  0.00    +0.000 OA
ATOM      8  C   UNL     1       2.157   6.827  20.195  0.00  0.00    +0.000 C 
ATOM      9  N   UNL     1       2.144   6.363  18.798  0.00  0.00    +0.000 NA
ATOM     10  C   UNL     1       2.745   7.382  17.930  0.00  0.00    +0.000 C 
ATOM     11  C   UNL     1       1.834   8.601  17.879  0.00  0.00    +0.000 C 
ENDROOT
BRANCH   1  13
ATOM     12  C   UNL     1       1.397  13.163  20.446  0.00  0.00    +0.000 C 
ATOM     13  C   UNL     1       0.228  12.196  20.638  0.00  0.00    +0.000 C 
ATOM     14  C   UNL     1      -0.870  12.445  19.605  0.00  0.00    +0.000 C 
ENDBRANCH   1  13
BRANCH   9  15
ATOM     15  C   UNL     1       2.832   5.066  18.673  0.00  0.00    +0.000 C 
BRANCH  15  16
ATOM     16  C   UNL     1       4.201   5.035  19.372  0.00  0.00    +0.000 C 
BRANCH  16  17
ATOM     17  C   UNL     1       5.313   4.507  18.462  0.00  0.00    +0.000 C 
BRANCH  17  18
ATOM     18  N   UNL     1       6.326   5.512  18.184  0.00  0.00    +0.000 N 
ATOM     19  C   UNL     1       6.165   6.525  17.166  0.00  0.00    +0.000 C 
ATOM     20  C   UNL     1       7.542   7.154  17.111  0.00  0.00    +0.000 C 
ATOM     21  C   UNL     1       8.029   7.075  18.554  0.00  0.00    +0.000 C 
ATOM     22  C   UNL     1       7.341   5.836  19.078  0.00  0.00    +0.000 C 
ATOM     23  O   UNL     1       7.595   5.276  20.130  0.00  0.00    +0.000 OA
ENDBRANCH  17  18
ENDBRANCH  16  17
ENDBRANCH  15  16
ENDBRANCH   9  15
TORSDOF 5
ENDMDL
MODEL 4
REMARK VINA RESULT:      -7.1      5.139      8.525
REMARK  Name = 
REMARK  7 active torsions:
REMARK  status: ('A' for Active; 'I' for Inactive)
REMARK    1  A    between atoms: C_1  and  C_2
REMARK    2  A    between atoms: C_2  and  C_3
REMARK    3  A    between atoms: C_2  and  N_4
REMARK    4  A    between atoms: N_12  and  C_13
REMARK    5  A    between atoms: C_13  and  C_14
REMARK    6  A    between atoms: C_14  and  C_15
REMARK    7  A    between atoms: C_15  and  N_16
REMARK                            x       y       z     vdW  Elec       q    Type
REMARK                         _______ _______ _______ _____ _____    ______ ____
ROOT
ATOM      1  N   UNL     1       3.345   3.731  18.580  0.00  0.00    +0.000 N 
ATOM      2  N   UNL     1       4.671   3.841  18.943  0.00  0.00    +0.000 NA
ATOM      3  C   UNL     1       5.329   4.881  18.538  0.00  0.00    +0.000 A 
ATOM      4  C   UNL     1       4.755   5.955  17.709  0.00  0.00    +0.000 A 
ATOM      5  C   UNL     1       3.455   5.858  17.417  0.00  0.00    +0.000 A 
ATOM      6  C   UNL     1       2.656   4.700  17.858  0.00  0.00    +0.000 A 
ATOM      7  O   UNL     1       1.470   4.652  17.552  0.00  0.00    +0.000 OA
ATOM      8  C   UNL     1       5.622   7.067  17.237  0.00  0.00    +0.000 C 
ATOM      9  N   UNL     1       6.867   7.239  18.004  0.00  0.00    +0.000 NA
ATOM     10  C   UNL     1       7.568   5.954  18.107  0.00  0.00    +0.000 C 
ATOM     11  C   UNL     1       6.765   5.011  18.992  0.00  0.00    +0.000 C 
ENDROOT
BRANCH   1  13
ATOM     12  C   UNL     1       3.403   1.265  18.654  0.00  0.00    +0.000 C 
ATOM     13  C   UNL     1       2.646   2.531  19.055  0.00  0.00    +0.000 C 
ATOM     14  C   UNL     1       2.430   2.590  20.567  0.00  0.00    +0.000 C 
ENDBRANCH   1  13
BRANCH   9  15
ATOM     15  C   UNL     1       7.717   8.277  17.394  0.00  0.00    +0.000 C 
BRANCH  15  16
ATOM     16  C   UNL     1       8.713   8.905  18.383  0.00  0.00    +0.000 C 
BRANCH  16  17
ATOM     17  C   UNL     1       8.727  10.433  18.311  0.00  0.00    +0.000 C 
BRANCH  17  18
ATOM     18  N   UNL     1       9.914  11.006  18.924  0.00  0.00    +0.000 N 
ATOM     19  C   UNL     1      10.978  11.611  18.156  0.00  0.00    +0.000 C 
ATOM     20  C   UNL     1      12.051  11.834  19.203  0.00  0.00    +0.000 C 
ATOM     21  C   UNL     1      11.257  12.146  20.467  0.00  0.00    +0.000 C 
ATOM     22  C   UNL     1       9.977  11.368  20.266  0.00  0.00    +0.000 C 
ATOM     23  O   UNL     1       9.131  11.164  21.119  0.00  0.00    +0.000 OA
ENDBRANCH  17  18
ENDBRANCH  16  17
ENDBRANCH  15  16
ENDBRANCH   9  15
TORSDOF 5
ENDMDL
MODEL 5
REMARK VINA RESULT:      -6.9      1.695      2.184
REMARK  Name = 
REMARK  7 active torsions:
REMARK  status: ('A' for Active; 'I' for Inactive)
REMARK    1  A    between atoms: C_1  and  C_2
REMARK    2  A    between atoms: C_2  and  C_3
REMARK    3  A    between atoms: C_2  and  N_4
REMARK    4  A    between atoms: N_12  and  C_13
REMARK    5  A    between atoms: C_13  and  C_14
REMARK    6  A    between atoms: C_14  and  C_15
REMARK    7  A    between atoms: C_15  and  N_16
REMARK                            x       y       z     vdW  Elec       q    Type
REMARK                         _______ _______ _______ _____ _____    ______ ____
ROOT
ATOM      1  N   UNL     1      -0.303  10.666  20.711  0.00  0.00    +0.000 N 
ATOM      2  N   UNL     1       0.260  10.401  19.480  0.00  0.00    +0.000 NA
ATOM      3  C   UNL     1       1.011   9.351  19.367  0.00  0.00    +0.000 A 
ATOM      4  C   UNL     1       1.307   8.421  20.471  0.00  0.00    +0.000 A 
ATOM      5  C   UNL     1       0.706   8.664  21.638  0.00  0.00    +0.000 A 
ATOM      6  C   UNL     1      -0.164   9.840  21.821  0.00  0.00    +0.000 A 
ATOM      7  O   UNL     1      -0.681  10.026  22.916  0.00  0.00    +0.000 OA
ATOM      8  C   UNL     1       2.244   7.286  20.250  0.00  0.00    +0.000 C 
ATOM      9  N   UNL     1       2.444   6.927  18.836  0.00  0.00    +0.000 NA
ATOM     10  C   UNL     1       2.786   8.126  18.062  0.00  0.00    +0.000 C 
ATOM     11  C   UNL     1       1.574   9.046  17.998  0.00  0.00    +0.000 C 
ENDROOT
BRANCH   1  13
ATOM     12  C   UNL     1      -0.341  13.049  21.355  0.00  0.00    +0.000 C 
ATOM     13  C   UNL     1      -1.136  11.872  20.789  0.00  0.00    +0.000 C 
ATOM     14  C   UNL     1      -1.729  12.212  19.422  0.00  0.00    +0.000 C 
ENDBRANCH   1  13
BRANCH   9  15
ATOM     15  C   UNL     1       3.475   5.881  18.705  0.00  0.00    +0.000 C 
BRANCH  15  16
ATOM     16  C   UNL     1       3.302   5.013  17.447  0.00  0.00    +0.000 C 
BRANCH  16  17
ATOM     17  C   UNL     1       2.999   3.551  17.782  0.00  0.00    +0.000 C 
BRANCH  17  18
ATOM     18  N   UNL     1       2.598   3.370  19.168  0.00  0.00    +0.000 N 
ATOM     19  C   UNL     1       1.214   3.335  19.584  0.00  0.00    +0.000 C 
ATOM     20  C   UNL     1       1.328   3.363  21.095  0.00  0.00    +0.000 C 
ATOM     21  C   UNL     1       2.608   2.582  21.372  0.00  0.00    +0.000 C 
ATOM     22  C   UNL     1       3.443   2.851  20.142  0.00  0.00    +0.000 C 
ATOM     23  O   UNL     1       4.627   2.587  20.019  0.00  0.00    +0.000 OA
ENDBRANCH  17  18
ENDBRANCH  16  17
ENDBRANCH  15  16
ENDBRANCH   9  15
TORSDOF 5
ENDMDL
MODEL 6
REMARK VINA RESULT:      -6.9      3.665      5.324
REMARK  Name = 
REMARK  7 active torsions:
REMARK  status: ('A' for Active; 'I' for Inactive)
REMARK    1  A    between atoms: C_1  and  C_2
REMARK    2  A    between atoms: C_2  and  C_3
REMARK    3  A    between atoms: C_2  and  N_4
REMARK    4  A    between atoms: N_12  and  C_13
REMARK    5  A    between atoms: C_13  and  C_14
REMARK    6  A    between atoms: C_14  and  C_15
REMARK    7  A    between atoms: C_15  and  N_16
REMARK                            x       y       z     vdW  Elec       q    Type
REMARK                         _______ _______ _______ _____ _____    ______ ____
ROOT
ATOM      1  N   UNL     1       1.400   8.609  19.812  0.00  0.00    +0.000 N 
ATOM      2  N   UNL     1       1.751   7.375  20.320  0.00  0.00    +0.000 NA
ATOM      3  C   UNL     1       2.514   6.615  19.600  0.00  0.00    +0.000 A 
ATOM      4  C   UNL     1       3.030   6.980  18.269  0.00  0.00    +0.000 A 
ATOM      5  C   UNL     1       2.727   8.200  17.821  0.00  0.00    +0.000 A 
ATOM      6  C   UNL     1       1.868   9.110  18.602  0.00  0.00    +0.000 A 
ATOM      7  O   UNL     1       1.607  10.215  18.140  0.00  0.00    +0.000 OA
ATOM      8  C   UNL     1       3.839   5.998  17.496  0.00  0.00    +0.000 C 
ATOM      9  N   UNL     1       4.430   4.921  18.307  0.00  0.00    +0.000 NA
ATOM     10  C   UNL     1       3.393   4.298  19.138  0.00  0.00    +0.000 C 
ATOM     11  C   UNL     1       2.933   5.291  20.197  0.00  0.00    +0.000 C 
ENDROOT
BRANCH   1  13
ATOM     12  C   UNL     1      -0.519  10.162  19.820  0.00  0.00    +0.000 C 
ATOM     13  C   UNL     1       0.527   9.427  20.660  0.00  0.00    +0.000 C 
ATOM     14  C   UNL     1      -0.134   8.575  21.743  0.00  0.00    +0.000 C 
ENDBRANCH   1  13
BRANCH   9  15
ATOM     15  C   UNL     1       5.107   3.933  17.448  0.00  0.00    +0.000 C 
BRANCH  15  16
ATOM     16  C   UNL     1       5.212   4.376  15.979  0.00  0.00    +0.000 C 
BRANCH  16  17
ATOM     17  C   UNL     1       6.661   4.475  15.498  0.00  0.00    +0.000 C 
BRANCH  17  18
ATOM     18  N   UNL     1       6.787   4.248  14.068  0.00  0.00    +0.000 N 
ATOM     19  C   UNL     1       5.794   3.533  13.298  0.00  0.00    +0.000 C 
ATOM     20  C   UNL     1       6.479   3.368  11.956  0.00  0.00    +0.000 C 
ATOM     21  C   UNL     1       7.310   4.641  11.819  0.00  0.00    +0.000 C 
ATOM     22  C   UNL     1       7.637   4.988  13.253  0.00  0.00    +0.000 C 
ATOM     23  O   UNL     1       8.452   5.821  13.611  0.00  0.00    +0.000 OA
ENDBRANCH  17  18
ENDBRANCH  16  17
ENDBRANCH  15  16
ENDBRANCH   9  15
TORSDOF 5
ENDMDL
MODEL 7
REMARK VINA RESULT:      -6.8      2.733      4.510
REMARK  Name = 
REMARK  7 active torsions:
REMARK  status: ('A' for Active; 'I' for Inactive)
REMARK    1  A    between atoms: C_1  and  C_2
REMARK    2  A    between atoms: C_2  and  C_3
REMARK    3  A    between atoms: C_2  and  N_4
REMARK    4  A    between atoms: N_12  and  C_13
REMARK    5  A    between atoms: C_13  and  C_14
REMARK    6  A    between atoms: C_14  and  C_15
REMARK    7  A    between atoms: C_15  and  N_16
REMARK                            x       y       z     vdW  Elec       q    Type
REMARK                         _______ _______ _______ _____ _____    ______ ____
ROOT
ATOM      1  N   UNL     1       1.305   8.888  20.155  0.00  0.00    +0.000 N 
ATOM      2  N   UNL     1       1.519   7.615  20.642  0.00  0.00    +0.000 NA
ATOM      3  C   UNL     1       2.104   6.757  19.867  0.00  0.00    +0.000 A 
ATOM      4  C   UNL     1       2.551   7.050  18.494  0.00  0.00    +0.000 A 
ATOM      5  C   UNL     1       2.387   8.303  18.064  0.00  0.00    +0.000 A 
ATOM      6  C   UNL     1       1.735   9.322  18.906  0.00  0.00    +0.000 A 
ATOM      7  O   UNL     1       1.595  10.455  18.458  0.00  0.00    +0.000 OA
ATOM      8  C   UNL     1       3.144   5.967  17.664  0.00  0.00    +0.000 C 
ATOM      9  N   UNL     1       3.644   4.813  18.431  0.00  0.00    +0.000 NA
ATOM     10  C   UNL     1       2.602   4.341  19.352  0.00  0.00    +0.000 C 
ATOM     11  C   UNL     1       2.379   5.384  20.437  0.00  0.00    +0.000 C 
ENDROOT
BRANCH   1  13
ATOM     12  C   UNL     1      -0.786  10.127  20.585  0.00  0.00    +0.000 C 
ATOM     13  C   UNL     1       0.631   9.819  21.068  0.00  0.00    +0.000 C 
ATOM     14  C   UNL     1       0.623   9.272  22.495  0.00  0.00    +0.000 C 
ENDBRANCH   1  13
BRANCH   9  15
ATOM     15  C   UNL     1       4.098   3.742  17.526  0.00  0.00    +0.000 C 
BRANCH  15  16
ATOM     16  C   UNL     1       5.189   4.200  16.544  0.00  0.00    +0.000 C 
BRANCH  16  17
ATOM     17  C   UNL     1       6.590   4.151  17.160  0.00  0.00    +0.000 C 
BRANCH  17  18
ATOM     18  N   UNL     1       7.114   5.475  17.452  0.00  0.00    +0.000 N 
ATOM     19  C   UNL     1       6.611   6.674  16.819  0.00  0.00    +0.000 C 
ATOM     20  C   UNL     1       7.608   7.722  17.270  0.00  0.00    +0.000 C 
ATOM     21  C   UNL     1       7.996   7.268  18.673  0.00  0.00    +0.000 C 
ATOM     22  C   UNL     1       7.849   5.766  18.596  0.00  0.00    +0.000 C 
ATOM     23  O   UNL     1       8.247   4.972  19.432  0.00  0.00    +0.000 OA
ENDBRANCH  17  18
ENDBRANCH  16  17
ENDBRANCH  15  16
ENDBRANCH   9  15
TORSDOF 5
ENDMDL
MODEL 8
REMARK VINA RESULT:      -6.8      1.014      1.487
REMARK  Name = 
REMARK  7 active torsions:
REMARK  status: ('A' for Active; 'I' for Inactive)
REMARK    1  A    between atoms: C_1  and  C_2
REMARK    2  A    between atoms: C_2  and  C_3
REMARK    3  A    between atoms: C_2  and  N_4
REMARK    4  A    between atoms: N_12  and  C_13
REMARK    5  A    between atoms: C_13  and  C_14
REMARK    6  A    between atoms: C_14  and  C_15
REMARK    7  A    between atoms: C_15  and  N_16
REMARK                            x       y       z     vdW  Elec       q    Type
REMARK                         _______ _______ _______ _____ _____    ______ ____
ROOT
ATOM      1  N   UNL     1       1.229   9.537  19.338  0.00  0.00    +0.000 N 
ATOM      2  N   UNL     1       1.999   9.168  18.255  0.00  0.00    +0.000 NA
ATOM      3  C   UNL     1       2.597   8.020  18.295  0.00  0.00    +0.000 A 
ATOM      4  C   UNL     1       2.512   7.080  19.427  0.00  0.00    +0.000 A 
ATOM      5  C   UNL     1       1.715   7.430  20.439  0.00  0.00    +0.000 A 
ATOM      6  C   UNL     1       1.005   8.723  20.443  0.00  0.00    +0.000 A 
ATOM      7  O   UNL     1       0.297   9.003  21.403  0.00  0.00    +0.000 OA
ATOM      8  C   UNL     1       3.301   5.819  19.401  0.00  0.00    +0.000 C 
ATOM      9  N   UNL     1       3.747   5.405  18.059  0.00  0.00    +0.000 NA
ATOM     10  C   UNL     1       4.416   6.527  17.391  0.00  0.00    +0.000 C 
ATOM     11  C   UNL     1       3.392   7.609  17.076  0.00  0.00    +0.000 C 
ENDROOT
BRANCH   1  13
ATOM     12  C   UNL     1      -0.938  10.705  19.165  0.00  0.00    +0.000 C 
ATOM     13  C   UNL     1       0.582  10.851  19.247  0.00  0.00    +0.000 C 
ATOM     14  C   UNL     1       0.989  11.741  20.421  0.00  0.00    +0.000 C 
ENDBRANCH   1  13
BRANCH   9  15
ATOM     15  C   UNL     1       4.620   4.221  18.142  0.00  0.00    +0.000 C 
BRANCH  15  16
ATOM     16  C   UNL     1       3.994   2.961  17.521  0.00  0.00    +0.000 C 
BRANCH  16  17
ATOM     17  C   UNL     1       3.566   1.937  18.576  0.00  0.00    +0.000 C 
BRANCH  17  18
ATOM     18  N   UNL     1       2.570   2.468  19.492  0.00  0.00    +0.000 N 
ATOM     19  C   UNL     1       1.181   2.634  19.129  0.00  0.00    +0.000 C 
ATOM     20  C   UNL     1       0.627   3.412  20.304  0.00  0.00    +0.000 C 
ATOM     21  C   UNL     1       1.425   2.883  21.492  0.00  0.00    +0.000 C 
ATOM     22  C   UNL     1       2.751   2.510  20.871  0.00  0.00    +0.000 C 
ATOM     23  O   UNL     1       3.766   2.229  21.484  0.00  0.00    +0.000 OA
ENDBRANCH  17  18
ENDBRANCH  16  17
ENDBRANCH  15  16
ENDBRANCH   9  15
TORSDOF 5
ENDMDL
MODEL 9
REMARK VINA RESULT:      -6.8      1.090      1.399
REMARK  Name = 
REMARK  7 active torsions:
REMARK  status: ('A' for Active; 'I' for Inactive)
REMARK    1  A    between atoms: C_1  and  C_2
REMARK    2  A    between atoms: C_2  and  C_3
REMARK    3  A    between atoms: C_2  and  N_4
REMARK    4  A    between atoms: N_12  and  C_13
REMARK    5  A    between atoms: C_13  and  C_14
REMARK    6  A    between atoms: C_14  and  C_15
REMARK    7  A    between atoms: C_15  and  N_16
REMARK                            x       y       z     vdW  Elec       q    Type
REMARK                         _______ _______ _______ _____ _____    ______ ____
ROOT
ATOM      1  N   UNL     1       0.994   9.474  19.749  0.00  0.00    +0.000 N 
ATOM      2  N   UNL     1       1.701   9.233  18.589  0.00  0.00    +0.000 NA
ATOM      3  C   UNL     1       2.377   8.130  18.506  0.00  0.00    +0.000 A 
ATOM      4  C   UNL     1       2.444   7.117  19.573  0.00  0.00    +0.000 A 
ATOM      5  C   UNL     1       1.706   7.342  20.663  0.00  0.00    +0.000 A 
ATOM      6  C   UNL     1       0.912   8.576  20.808  0.00  0.00    +0.000 A 
ATOM      7  O   UNL     1       0.263   8.742  21.834  0.00  0.00    +0.000 OA
ATOM      8  C   UNL     1       3.312   5.920  19.402  0.00  0.00    +0.000 C 
ATOM      9  N   UNL     1       3.680   5.627  18.006  0.00  0.00    +0.000 NA
ATOM     10  C   UNL     1       4.217   6.836  17.371  0.00  0.00    +0.000 C 
ATOM     11  C   UNL     1       3.101   7.858  17.208  0.00  0.00    +0.000 C 
ENDROOT
BRANCH   1  13
ATOM     12  C   UNL     1       1.059  11.868  19.152  0.00  0.00    +0.000 C 
ATOM     13  C   UNL     1       0.253  10.740  19.797  0.00  0.00    +0.000 C 
ATOM     14  C   UNL     1      -1.118  10.593  19.139  0.00  0.00    +0.000 C 
ENDBRANCH   1  13
BRANCH   9  15
ATOM     15  C   UNL     1       4.635   4.507  17.943  0.00  0.00    +0.000 C 
BRANCH  15  16
ATOM     16  C   UNL     1       5.042   3.977  19.328  0.00  0.00    +0.000 C 
BRANCH  16  17
ATOM     17  C   UNL     1       4.425   2.611  19.637  0.00  0.00    +0.000 C 
BRANCH  17  18
ATOM     18  N   UNL     1       2.974   2.660  19.708  0.00  0.00    +0.000 N 
ATOM     19  C   UNL     1       2.123   2.247  18.616  0.00  0.00    +0.000 C 
ATOM     20  C   UNL     1       0.753   2.697  19.082  0.00  0.00    +0.000 C 
ATOM     21  C   UNL     1       0.812   2.515  20.595  0.00  0.00    +0.000 C 
ATOM     22  C   UNL     1       2.274   2.737  20.907  0.00  0.00    +0.000 C 
ATOM     23  O   UNL     1       2.745   2.885  22.022  0.00  0.00    +0.000 OA
ENDBRANCH  17  18
ENDBRANCH  16  17
ENDBRANCH  15  16
ENDBRANCH   9  15
TORSDOF 5
ENDMDL
