MODEL 1
REMARK VINA RESULT:      -9.4      0.000      0.000
REMARK  Name = 
REMARK  7 active torsions:
REMARK  status: ('A' for Active; 'I' for Inactive)
REMARK    1  A    between atoms: C_1  and  O_2
REMARK    2  A    between atoms: O_2  and  C_3
REMARK    3  A    between atoms: C_3  and  C_4
REMARK    4  A    between atoms: C_4  and  O_5
REMARK    5  A    between atoms: O_5  and  C_6
REMARK    6  A    between atoms: C_10  and  C_11
REMARK    7  A    between atoms: N_30  and  C_31
REMARK                            x       y       z     vdW  Elec       q    Type
REMARK                         _______ _______ _______ _____ _____    ______ ____
ROOT
ATOM      1  C   UNL     1       4.613   4.944  17.052  0.00  0.00    +0.000 A 
ATOM      2  N   UNL     1       4.524   3.791  17.743  0.00  0.00    +0.000 NA
ATOM      3  C   UNL     1       3.727   3.792  18.802  0.00  0.00    +0.000 A 
ATOM      4  C   UNL     1       3.020   4.898  19.194  0.00  0.00    +0.000 A 
ATOM      5  C   UNL     1       3.139   6.054  18.408  0.00  0.00    +0.000 A 
ATOM      6  N   UNL     1       3.942   6.106  17.325  0.00  0.00    +0.000 NA
ATOM      7  C   UNL     1       2.496   7.275  18.947  0.00  0.00    +0.000 A 
ATOM      8  N   UNL     1       2.078   8.525  18.436  0.00  0.00    +0.000 N 
ATOM      9  C   UNL     1       1.335   9.157  19.438  0.00  0.00    +0.000 A 
ATOM     10  C   UNL     1       1.677   8.543  20.625  0.00  0.00    +0.000 A 
ATOM     11  C   UNL     1       1.972   7.239  20.228  0.00  0.00    +0.000 A 
ATOM     12  C   UNL     1       1.571   6.034  20.963  0.00  0.00    +0.000 C 
ATOM     13  C   UNL     1       2.259   4.781  20.480  0.00  0.00    +0.000 C 
ATOM     14  C   UNL     1       1.091   8.930  21.878  0.00  0.00    +0.000 C 
ATOM     15  O   UNL     1       1.656   9.316  22.864  0.00  0.00    +0.000 OA
ATOM     16  N   UNL     1      -0.267   8.830  21.701  0.00  0.00    +0.000 N 
ATOM     17  C   UNL     1      -0.783   9.889  20.825  0.00  0.00    +0.000 C 
ATOM     18  C   UNL     1       0.243  10.270  19.668  0.00  0.00    +0.000 C 
ATOM     19  C   UNL     1      -0.543  11.073  18.610  0.00  0.00    +0.000 C 
ATOM     20  N   UNL     1      -0.166  12.327  19.321  0.00  0.00    +0.000 NA
ATOM     21  C   UNL     1       0.256  13.364  18.387  0.00  0.00    +0.000 C 
ATOM     22  C   UNL     1       1.001  11.631  19.890  0.00  0.00    +0.000 C 
ATOM     23  H   UNL     1       2.181   8.815  17.469  0.00  0.00    +0.000 HD
ATOM     24  H   UNL     1      -0.779   8.645  22.549  0.00  0.00    +0.000 HD
ENDROOT
BRANCH   1  29
ATOM     25  C   UNL     1       6.113   4.001  13.714  0.00  0.00    +0.000 A 
ATOM     26  C   UNL     1       7.336   4.649  13.844  0.00  0.00    +0.000 A 
ATOM     27  N   UNL     1       7.691   5.396  14.909  0.00  0.00    +0.000 NA
ATOM     28  C   UNL     1       6.777   5.477  15.904  0.00  0.00    +0.000 A 
ATOM     29  C   UNL     1       5.518   4.852  15.902  0.00  0.00    +0.000 A 
ATOM     30  C   UNL     1       5.206   4.104  14.767  0.00  0.00    +0.000 A 
BRANCH  25  31
ATOM     31  O   UNL     1       5.917   3.252  12.594  0.00  0.00    +0.000 OA
BRANCH  31  32
ATOM     32  C   UNL     1       6.993   3.280  11.653  0.00  0.00    +0.000 C 
BRANCH  32  33
ATOM     33  C   UNL     1       7.254   1.862  11.167  0.00  0.00    +0.000 C 
BRANCH  33  35
ATOM     34  C   UNL     1       6.176  -0.225  11.322  0.00  0.00    +0.000 C 
ATOM     35  O   UNL     1       6.014   1.164  11.067  0.00  0.00    +0.000 OA
ENDBRANCH  33  35
ENDBRANCH  32  33
ENDBRANCH  31  32
ENDBRANCH  25  31
ENDBRANCH   1  29
TORSDOF 5
ENDMDL
MODEL 2
REMARK VINA RESULT:      -9.2      1.205      1.355
REMARK  Name = 
REMARK  7 active torsions:
REMARK  status: ('A' for Active; 'I' for Inactive)
REMARK    1  A    between atoms: C_1  and  O_2
REMARK    2  A    between atoms: O_2  and  C_3
REMARK    3  A    between atoms: C_3  and  C_4
REMARK    4  A    between atoms: C_4  and  O_5
REMARK    5  A    between atoms: O_5  and  C_6
REMARK    6  A    between atoms: C_10  and  C_11
REMARK    7  A    between atoms: N_30  and  C_31
REMARK                            x       y       z     vdW  Elec       q    Type
REMARK                         _______ _______ _______ _____ _____    ______ ____
ROOT
ATOM      1  C   UNL     1       4.541   5.010  17.160  0.00  0.00    +0.000 A 
ATOM      2  N   UNL     1       4.445   3.864  17.862  0.00  0.00    +0.000 NA
ATOM      3  C   UNL     1       3.642   3.877  18.915  0.00  0.00    +0.000 A 
ATOM      4  C   UNL     1       2.935   4.988  19.293  0.00  0.00    +0.000 A 
ATOM      5  C   UNL     1       3.061   6.137  18.496  0.00  0.00    +0.000 A 
ATOM      6  N   UNL     1       3.872   6.176  17.418  0.00  0.00    +0.000 NA
ATOM      7  C   UNL     1       2.419   7.364  19.020  0.00  0.00    +0.000 A 
ATOM      8  N   UNL     1       2.007   8.611  18.494  0.00  0.00    +0.000 N 
ATOM      9  C   UNL     1       1.260   9.253  19.485  0.00  0.00    +0.000 A 
ATOM     10  C   UNL     1       1.593   8.650  20.681  0.00  0.00    +0.000 A 
ATOM     11  C   UNL     1       1.887   7.342  20.298  0.00  0.00    +0.000 A 
ATOM     12  C   UNL     1       1.478   6.145  21.042  0.00  0.00    +0.000 C 
ATOM     13  C   UNL     1       2.165   4.885  20.575  0.00  0.00    +0.000 C 
ATOM     14  C   UNL     1       1.000   9.051  21.926  0.00  0.00    +0.000 C 
ATOM     15  O   UNL     1       1.560   9.445  22.912  0.00  0.00    +0.000 OA
ATOM     16  N   UNL     1      -0.357   8.952  21.742  0.00  0.00    +0.000 N 
ATOM     17  C   UNL     1      -0.865  10.004  20.853  0.00  0.00    +0.000 C 
ATOM     18  C   UNL     1       0.168  10.371  19.699  0.00  0.00    +0.000 C 
ATOM     19  C   UNL     1      -0.609  11.167  18.628  0.00  0.00    +0.000 C 
ATOM     20  N   UNL     1      -0.233  12.426  19.329  0.00  0.00    +0.000 NA
ATOM     21  C   UNL     1       0.198  13.453  18.388  0.00  0.00    +0.000 C 
ATOM     22  C   UNL     1       0.929  11.733  19.912  0.00  0.00    +0.000 C 
ATOM     23  H   UNL     1       2.116   8.890  17.525  0.00  0.00    +0.000 HD
ATOM     24  H   UNL     1      -0.875   8.777  22.589  0.00  0.00    +0.000 HD
ENDROOT
BRANCH   1  29
ATOM     25  C   UNL     1       6.030   4.082  13.814  0.00  0.00    +0.000 A 
ATOM     26  C   UNL     1       7.280   4.668  13.971  0.00  0.00    +0.000 A 
ATOM     27  N   UNL     1       7.658   5.372  15.057  0.00  0.00    +0.000 NA
ATOM     28  C   UNL     1       6.738   5.470  16.046  0.00  0.00    +0.000 A 
ATOM     29  C   UNL     1       5.452   4.905  16.016  0.00  0.00    +0.000 A 
ATOM     30  C   UNL     1       5.118   4.200  14.860  0.00  0.00    +0.000 A 
BRANCH  25  31
ATOM     31  O   UNL     1       5.812   3.369  12.673  0.00  0.00    +0.000 OA
BRANCH  31  32
ATOM     32  C   UNL     1       4.693   3.803  11.896  0.00  0.00    +0.000 C 
BRANCH  32  33
ATOM     33  C   UNL     1       4.234   2.649  11.016  0.00  0.00    +0.000 C 
BRANCH  33  35
ATOM     34  C   UNL     1       3.025   4.113   9.625  0.00  0.00    +0.000 C 
ATOM     35  O   UNL     1       2.960   2.963  10.457  0.00  0.00    +0.000 OA
ENDBRANCH  33  35
ENDBRANCH  32  33
ENDBRANCH  31  32
ENDBRANCH  25  31
ENDBRANCH   1  29
TORSDOF 5
ENDMDL
MODEL 3
REMARK VINA RESULT:      -8.2      2.886      9.777
REMARK  Name = 
REMARK  7 active torsions:
REMARK  status: ('A' for Active; 'I' for Inactive)
REMARK    1  A    between atoms: C_1  and  O_2
REMARK    2  A    between atoms: O_2  and  C_3
REMARK    3  A    between atoms: C_3  and  C_4
REMARK    4  A    between atoms: C_4  and  O_5
REMARK    5  A    between atoms: O_5  and  C_6
REMARK    6  A    between atoms: C_10  and  C_11
REMARK    7  A    between atoms: N_30  and  C_31
REMARK                            x       y       z     vdW  Elec       q    Type
REMARK                         _______ _______ _______ _____ _____    ______ ____
ROOT
ATOM      1  C   UNL     1       1.103  10.016  19.529  0.00  0.00    +0.000 A 
ATOM      2  N   UNL     1       0.456   9.664  20.658  0.00  0.00    +0.000 NA
ATOM      3  C   UNL     1       0.622   8.418  21.075  0.00  0.00    +0.000 A 
ATOM      4  C   UNL     1       1.408   7.514  20.410  0.00  0.00    +0.000 A 
ATOM      5  C   UNL     1       2.075   7.961  19.259  0.00  0.00    +0.000 A 
ATOM      6  N   UNL     1       1.933   9.218  18.789  0.00  0.00    +0.000 NA
ATOM      7  C   UNL     1       2.780   6.922  18.472  0.00  0.00    +0.000 A 
ATOM      8  N   UNL     1       3.794   6.894  17.487  0.00  0.00    +0.000 N 
ATOM      9  C   UNL     1       4.163   5.557  17.309  0.00  0.00    +0.000 A 
ATOM     10  C   UNL     1       3.125   4.794  17.803  0.00  0.00    +0.000 A 
ATOM     11  C   UNL     1       2.609   5.593  18.823  0.00  0.00    +0.000 A 
ATOM     12  C   UNL     1       2.178   5.095  20.134  0.00  0.00    +0.000 C 
ATOM     13  C   UNL     1       1.399   6.110  20.935  0.00  0.00    +0.000 C 
ATOM     14  C   UNL     1       3.165   3.359  17.796  0.00  0.00    +0.000 C 
ATOM     15  O   UNL     1       2.387   2.605  17.279  0.00  0.00    +0.000 OA
ATOM     16  N   UNL     1       4.320   3.015  18.454  0.00  0.00    +0.000 N 
ATOM     17  C   UNL     1       5.514   3.321  17.656  0.00  0.00    +0.000 C 
ATOM     18  C   UNL     1       5.340   4.645  16.790  0.00  0.00    +0.000 C 
ATOM     19  C   UNL     1       6.747   5.073  16.323  0.00  0.00    +0.000 C 
ATOM     20  N   UNL     1       6.553   4.269  15.085  0.00  0.00    +0.000 NA
ATOM     21  C   UNL     1       6.999   4.994  13.901  0.00  0.00    +0.000 C 
ATOM     22  C   UNL     1       5.095   4.394  15.255  0.00  0.00    +0.000 C 
ATOM     23  H   UNL     1       4.254   7.716  17.111  0.00  0.00    +0.000 HD
ATOM     24  H   UNL     1       4.286   2.112  18.901  0.00  0.00    +0.000 HD
ENDROOT
BRANCH   1  29
ATOM     25  C   UNL     1       1.622  13.595  18.432  0.00  0.00    +0.000 A 
ATOM     26  C   UNL     1       0.311  14.041  18.546  0.00  0.00    +0.000 A 
ATOM     27  N   UNL     1      -0.728  13.262  18.911  0.00  0.00    +0.000 NA
ATOM     28  C   UNL     1      -0.427  11.974  19.198  0.00  0.00    +0.000 A 
ATOM     29  C   UNL     1       0.859  11.409  19.142  0.00  0.00    +0.000 A 
ATOM     30  C   UNL     1       1.888  12.264  18.746  0.00  0.00    +0.000 A 
BRANCH  25  31
ATOM     31  O   UNL     1       2.568  14.513  18.088  0.00  0.00    +0.000 OA
BRANCH  31  32
ATOM     32  C   UNL     1       2.229  15.869  18.388  0.00  0.00    +0.000 C 
BRANCH  32  33
ATOM     33  C   UNL     1       3.080  16.787  17.523  0.00  0.00    +0.000 C 
BRANCH  33  35
ATOM     34  C   UNL     1       1.036  17.944  17.683  0.00  0.00    +0.000 C 
ATOM     35  O   UNL     1       2.252  17.805  16.962  0.00  0.00    +0.000 OA
ENDBRANCH  33  35
ENDBRANCH  32  33
ENDBRANCH  31  32
ENDBRANCH  25  31
ENDBRANCH   1  29
TORSDOF 5
ENDMDL
MODEL 4
REMARK VINA RESULT:      -8.0      2.492      9.821
REMARK  Name = 
REMARK  7 active torsions:
REMARK  status: ('A' for Active; 'I' for Inactive)
REMARK    1  A    between atoms: C_1  and  O_2
REMARK    2  A    between atoms: O_2  and  C_3
REMARK    3  A    between atoms: C_3  and  C_4
REMARK    4  A    between atoms: C_4  and  O_5
REMARK    5  A    between atoms: O_5  and  C_6
REMARK    6  A    between atoms: C_10  and  C_11
REMARK    7  A    between atoms: N_30  and  C_31
REMARK                            x       y       z     vdW  Elec       q    Type
REMARK                         _______ _______ _______ _____ _____    ______ ____
ROOT
ATOM      1  C   UNL     1       0.985   9.927  19.494  0.00  0.00    +0.000 A 
ATOM      2  N   UNL     1       0.379   9.569  20.643  0.00  0.00    +0.000 NA
ATOM      3  C   UNL     1       0.628   8.348  21.093  0.00  0.00    +0.000 A 
ATOM      4  C   UNL     1       1.458   7.475  20.440  0.00  0.00    +0.000 A 
ATOM      5  C   UNL     1       2.079   7.928  19.265  0.00  0.00    +0.000 A 
ATOM      6  N   UNL     1       1.851   9.159  18.762  0.00  0.00    +0.000 NA
ATOM      7  C   UNL     1       2.834   6.912  18.496  0.00  0.00    +0.000 A 
ATOM      8  N   UNL     1       3.833   6.917  17.495  0.00  0.00    +0.000 N 
ATOM      9  C   UNL     1       4.281   5.601  17.348  0.00  0.00    +0.000 A 
ATOM     10  C   UNL     1       3.300   4.791  17.882  0.00  0.00    +0.000 A 
ATOM     11  C   UNL     1       2.752   5.586  18.887  0.00  0.00    +0.000 A 
ATOM     12  C   UNL     1       2.374   5.101  20.220  0.00  0.00    +0.000 C 
ATOM     13  C   UNL     1       1.545   6.089  21.005  0.00  0.00    +0.000 C 
ATOM     14  C   UNL     1       3.429   3.361  17.915  0.00  0.00    +0.000 C 
ATOM     15  O   UNL     1       2.691   2.545  17.434  0.00  0.00    +0.000 OA
ATOM     16  N   UNL     1       4.614   3.109  18.562  0.00  0.00    +0.000 N 
ATOM     17  C   UNL     1       5.774   3.464  17.735  0.00  0.00    +0.000 C 
ATOM     18  C   UNL     1       5.504   4.749  16.835  0.00  0.00    +0.000 C 
ATOM     19  C   UNL     1       6.875   5.248  16.332  0.00  0.00    +0.000 C 
ATOM     20  N   UNL     1       6.711   4.398  15.121  0.00  0.00    +0.000 NA
ATOM     21  C   UNL     1       7.092   5.114  13.909  0.00  0.00    +0.000 C 
ATOM     22  C   UNL     1       5.251   4.438  15.313  0.00  0.00    +0.000 C 
ATOM     23  H   UNL     1       4.234   7.755  17.088  0.00  0.00    +0.000 HD
ATOM     24  H   UNL     1       4.643   2.219  19.036  0.00  0.00    +0.000 HD
ENDROOT
BRANCH   1  29
ATOM     25  C   UNL     1       1.199  13.626  18.756  0.00  0.00    +0.000 A 
ATOM     26  C   UNL     1      -0.117  13.839  18.365  0.00  0.00    +0.000 A 
ATOM     27  N   UNL     1      -1.052  12.869  18.285  0.00  0.00    +0.000 NA
ATOM     28  C   UNL     1      -0.645  11.627  18.639  0.00  0.00    +0.000 A 
ATOM     29  C   UNL     1       0.648  11.290  19.071  0.00  0.00    +0.000 A 
ATOM     30  C   UNL     1       1.571  12.334  19.121  0.00  0.00    +0.000 A 
BRANCH  25  31
ATOM     31  O   UNL     1       2.015  14.715  18.823  0.00  0.00    +0.000 OA
BRANCH  31  32
ATOM     32  C   UNL     1       1.819  15.546  19.969  0.00  0.00    +0.000 C 
BRANCH  32  33
ATOM     33  C   UNL     1       2.780  15.104  21.063  0.00  0.00    +0.000 C 
BRANCH  33  35
ATOM     34  C   UNL     1       0.676  14.985  22.112  0.00  0.00    +0.000 C 
ATOM     35  O   UNL     1       2.034  14.570  22.156  0.00  0.00    +0.000 OA
ENDBRANCH  33  35
ENDBRANCH  32  33
ENDBRANCH  31  32
ENDBRANCH  25  31
ENDBRANCH   1  29
TORSDOF 5
ENDMDL
MODEL 5
REMARK VINA RESULT:      -7.9      2.848      9.294
REMARK  Name = 
REMARK  7 active torsions:
REMARK  status: ('A' for Active; 'I' for Inactive)
REMARK    1  A    between atoms: C_1  and  O_2
REMARK    2  A    between atoms: O_2  and  C_3
REMARK    3  A    between atoms: C_3  and  C_4
REMARK    4  A    between atoms: C_4  and  O_5
REMARK    5  A    between atoms: O_5  and  C_6
REMARK    6  A    between atoms: C_10  and  C_11
REMARK    7  A    between atoms: N_30  and  C_31
REMARK                            x       y       z     vdW  Elec       q    Type
REMARK                         _______ _______ _______ _____ _____    ______ ____
ROOT
ATOM      1  C   UNL     1       1.093  10.063  19.518  0.00  0.00    +0.000 A 
ATOM      2  N   UNL     1       0.452   9.703  20.647  0.00  0.00    +0.000 NA
ATOM      3  C   UNL     1       0.641   8.462  21.069  0.00  0.00    +0.000 A 
ATOM      4  C   UNL     1       1.443   7.570  20.408  0.00  0.00    +0.000 A 
ATOM      5  C   UNL     1       2.104   8.025  19.256  0.00  0.00    +0.000 A 
ATOM      6  N   UNL     1       1.938   9.277  18.781  0.00  0.00    +0.000 NA
ATOM      7  C   UNL     1       2.828   6.996  18.474  0.00  0.00    +0.000 A 
ATOM      8  N   UNL     1       3.843   6.983  17.489  0.00  0.00    +0.000 N 
ATOM      9  C   UNL     1       4.237   5.653  17.316  0.00  0.00    +0.000 A 
ATOM     10  C   UNL     1       3.213   4.873  17.812  0.00  0.00    +0.000 A 
ATOM     11  C   UNL     1       2.682   5.666  18.829  0.00  0.00    +0.000 A 
ATOM     12  C   UNL     1       2.260   5.165  20.142  0.00  0.00    +0.000 C 
ATOM     13  C   UNL     1       1.461   6.168  20.938  0.00  0.00    +0.000 C 
ATOM     14  C   UNL     1       3.280   3.438  17.811  0.00  0.00    +0.000 C 
ATOM     15  O   UNL     1       2.516   2.668  17.297  0.00  0.00    +0.000 OA
ATOM     16  N   UNL     1       4.441   3.119  18.471  0.00  0.00    +0.000 N 
ATOM     17  C   UNL     1       5.630   3.444  17.673  0.00  0.00    +0.000 C 
ATOM     18  C   UNL     1       5.431   4.761  16.801  0.00  0.00    +0.000 C 
ATOM     19  C   UNL     1       6.831   5.213  16.334  0.00  0.00    +0.000 C 
ATOM     20  N   UNL     1       6.652   4.401  15.099  0.00  0.00    +0.000 NA
ATOM     21  C   UNL     1       7.085   5.130  13.912  0.00  0.00    +0.000 C 
ATOM     22  C   UNL     1       5.192   4.500  15.267  0.00  0.00    +0.000 C 
ATOM     23  H   UNL     1       4.288   7.812  17.110  0.00  0.00    +0.000 HD
ATOM     24  H   UNL     1       4.423   2.217  18.922  0.00  0.00    +0.000 HD
ENDROOT
BRANCH   1  29
ATOM     25  C   UNL     1       1.548  13.658  18.445  0.00  0.00    +0.000 A 
ATOM     26  C   UNL     1       0.222  14.066  18.515  0.00  0.00    +0.000 A 
ATOM     27  N   UNL     1      -0.806  13.257  18.843  0.00  0.00    +0.000 NA
ATOM     28  C   UNL     1      -0.479  11.977  19.138  0.00  0.00    +0.000 A 
ATOM     29  C   UNL     1       0.823  11.449  19.125  0.00  0.00    +0.000 A 
ATOM     30  C   UNL     1       1.840  12.333  18.766  0.00  0.00    +0.000 A 
BRANCH  25  31
ATOM     31  O   UNL     1       2.479  14.603  18.136  0.00  0.00    +0.000 OA
BRANCH  31  32
ATOM     32  C   UNL     1       3.669  14.558  18.926  0.00  0.00    +0.000 C 
BRANCH  32  33
ATOM     33  C   UNL     1       4.778  15.283  18.177  0.00  0.00    +0.000 C 
BRANCH  33  35
ATOM     34  C   UNL     1       7.082  14.802  18.227  0.00  0.00    +0.000 C 
ATOM     35  O   UNL     1       5.797  14.349  17.825  0.00  0.00    +0.000 OA
ENDBRANCH  33  35
ENDBRANCH  32  33
ENDBRANCH  31  32
ENDBRANCH  25  31
ENDBRANCH   1  29
TORSDOF 5
ENDMDL
MODEL 6
REMARK VINA RESULT:      -7.9      2.737      9.156
REMARK  Name = 
REMARK  7 active torsions:
REMARK  status: ('A' for Active; 'I' for Inactive)
REMARK    1  A    between atoms: C_1  and  O_2
REMARK    2  A    between atoms: O_2  and  C_3
REMARK    3  A    between atoms: C_3  and  C_4
REMARK    4  A    between atoms: C_4  and  O_5
REMARK    5  A    between atoms: O_5  and  C_6
REMARK    6  A    between atoms: C_10  and  C_11
REMARK    7  A    between atoms: N_30  and  C_31
REMARK                            x       y       z     vdW  Elec       q    Type
REMARK                         _______ _______ _______ _____ _____    ______ ____
ROOT
ATOM      1  C   UNL     1       0.763   9.463  19.597  0.00  0.00    +0.000 A 
ATOM      2  N   UNL     1       0.304   9.084  20.807  0.00  0.00    +0.000 NA
ATOM      3  C   UNL     1       0.761   7.937  21.284  0.00  0.00    +0.000 A 
ATOM      4  C   UNL     1       1.656   7.156  20.601  0.00  0.00    +0.000 A 
ATOM      5  C   UNL     1       2.113   7.628  19.362  0.00  0.00    +0.000 A 
ATOM      6  N   UNL     1       1.672   8.787  18.829  0.00  0.00    +0.000 NA
ATOM      7  C   UNL     1       2.947   6.689  18.576  0.00  0.00    +0.000 A 
ATOM      8  N   UNL     1       3.854   6.782  17.495  0.00  0.00    +0.000 N 
ATOM      9  C   UNL     1       4.475   5.536  17.367  0.00  0.00    +0.000 A 
ATOM     10  C   UNL     1       3.665   4.625  18.013  0.00  0.00    +0.000 A 
ATOM     11  C   UNL     1       3.087   5.388  19.027  0.00  0.00    +0.000 A 
ATOM     12  C   UNL     1       2.885   4.926  20.405  0.00  0.00    +0.000 C 
ATOM     13  C   UNL     1       1.985   5.828  21.214  0.00  0.00    +0.000 C 
ATOM     14  C   UNL     1       4.002   3.232  18.095  0.00  0.00    +0.000 C 
ATOM     15  O   UNL     1       3.355   2.296  17.711  0.00  0.00    +0.000 OA
ATOM     16  N   UNL     1       5.257   3.183  18.651  0.00  0.00    +0.000 N 
ATOM     17  C   UNL     1       6.287   3.653  17.717  0.00  0.00    +0.000 C 
ATOM     18  C   UNL     1       5.766   4.838  16.789  0.00  0.00    +0.000 C 
ATOM     19  C   UNL     1       7.008   5.498  16.154  0.00  0.00    +0.000 C 
ATOM     20  N   UNL     1       6.877   4.570  14.997  0.00  0.00    +0.000 NA
ATOM     21  C   UNL     1       7.057   5.268  13.729  0.00  0.00    +0.000 C 
ATOM     22  C   UNL     1       5.445   4.415  15.308  0.00  0.00    +0.000 C 
ATOM     23  H   UNL     1       4.099   7.645  17.022  0.00  0.00    +0.000 HD
ATOM     24  H   UNL     1       5.449   2.333  19.157  0.00  0.00    +0.000 HD
ENDROOT
BRANCH   1  29
ATOM     25  C   UNL     1      -1.639  12.116  18.383  0.00  0.00    +0.000 A 
ATOM     26  C   UNL     1      -0.730  13.151  18.198  0.00  0.00    +0.000 A 
ATOM     27  N   UNL     1       0.587  13.065  18.475  0.00  0.00    +0.000 NA
ATOM     28  C   UNL     1       1.015  11.868  18.939  0.00  0.00    +0.000 A 
ATOM     29  C   UNL     1       0.202  10.741  19.148  0.00  0.00    +0.000 A 
ATOM     30  C   UNL     1      -1.152  10.898  18.854  0.00  0.00    +0.000 A 
BRANCH  25  31
ATOM     31  O   UNL     1      -2.932  12.346  18.021  0.00  0.00    +0.000 OA
BRANCH  31  32
ATOM     32  C   UNL     1      -3.658  11.185  17.610  0.00  0.00    +0.000 C 
BRANCH  32  33
ATOM     33  C   UNL     1      -3.904  11.269  16.110  0.00  0.00    +0.000 C 
BRANCH  33  35
ATOM     34  C   UNL     1      -3.318  10.072  14.170  0.00  0.00    +0.000 C 
ATOM     35  O   UNL     1      -2.870  10.565  15.425  0.00  0.00    +0.000 OA
ENDBRANCH  33  35
ENDBRANCH  32  33
ENDBRANCH  31  32
ENDBRANCH  25  31
ENDBRANCH   1  29
TORSDOF 5
ENDMDL
MODEL 7
REMARK VINA RESULT:      -7.8      4.235     11.260
REMARK  Name = 
REMARK  7 active torsions:
REMARK  status: ('A' for Active; 'I' for Inactive)
REMARK    1  A    between atoms: C_1  and  O_2
REMARK    2  A    between atoms: O_2  and  C_3
REMARK    3  A    between atoms: C_3  and  C_4
REMARK    4  A    between atoms: C_4  and  O_5
REMARK    5  A    between atoms: O_5  and  C_6
REMARK    6  A    between atoms: C_10  and  C_11
REMARK    7  A    between atoms: N_30  and  C_31
REMARK                            x       y       z     vdW  Elec       q    Type
REMARK                         _______ _______ _______ _____ _____    ______ ____
ROOT
ATOM      1  C   UNL     1      -0.039  11.433  20.846  0.00  0.00    +0.000 A 
ATOM      2  N   UNL     1       0.306  12.226  19.813  0.00  0.00    +0.000 NA
ATOM      3  C   UNL     1       0.972  11.654  18.820  0.00  0.00    +0.000 A 
ATOM      4  C   UNL     1       1.304  10.325  18.821  0.00  0.00    +0.000 A 
ATOM      5  C   UNL     1       0.884   9.554  19.916  0.00  0.00    +0.000 A 
ATOM      6  N   UNL     1       0.210  10.091  20.955  0.00  0.00    +0.000 NA
ATOM      7  C   UNL     1       1.398   8.166  19.969  0.00  0.00    +0.000 A 
ATOM      8  N   UNL     1       1.049   6.968  20.634  0.00  0.00    +0.000 N 
ATOM      9  C   UNL     1       1.818   5.943  20.075  0.00  0.00    +0.000 A 
ATOM     10  C   UNL     1       2.887   6.552  19.450  0.00  0.00    +0.000 A 
ATOM     11  C   UNL     1       2.357   7.777  19.049  0.00  0.00    +0.000 A 
ATOM     12  C   UNL     1       2.617   8.413  17.752  0.00  0.00    +0.000 C 
ATOM     13  C   UNL     1       2.163   9.851  17.688  0.00  0.00    +0.000 C 
ATOM     14  C   UNL     1       3.888   5.798  18.749  0.00  0.00    +0.000 C 
ATOM     15  O   UNL     1       5.072   5.782  18.952  0.00  0.00    +0.000 OA
ATOM     16  N   UNL     1       3.208   5.040  17.828  0.00  0.00    +0.000 N 
ATOM     17  C   UNL     1       2.452   3.954  18.465  0.00  0.00    +0.000 C 
ATOM     18  C   UNL     1       1.864   4.379  19.883  0.00  0.00    +0.000 C 
ATOM     19  C   UNL     1       0.790   3.337  20.260  0.00  0.00    +0.000 C 
ATOM     20  N   UNL     1       1.840   2.548  20.962  0.00  0.00    +0.000 NA
ATOM     21  C   UNL     1       1.372   2.070  22.258  0.00  0.00    +0.000 C 
ATOM     22  C   UNL     1       2.635   3.778  21.117  0.00  0.00    +0.000 C 
ATOM     23  H   UNL     1       0.274   6.874  21.282  0.00  0.00    +0.000 HD
ATOM     24  H   UNL     1       3.748   4.804  17.010  0.00  0.00    +0.000 HD
ENDROOT
BRANCH   1  29
ATOM     25  C   UNL     1      -2.604  12.359  23.461  0.00  0.00    +0.000 A 
ATOM     26  C   UNL     1      -2.131  13.626  23.779  0.00  0.00    +0.000 A 
ATOM     27  N   UNL     1      -1.026  14.182  23.242  0.00  0.00    +0.000 NA
ATOM     28  C   UNL     1      -0.378  13.432  22.319  0.00  0.00    +0.000 A 
ATOM     29  C   UNL     1      -0.768  12.150  21.897  0.00  0.00    +0.000 A 
ATOM     30  C   UNL     1      -1.912  11.626  22.500  0.00  0.00    +0.000 A 
BRANCH  25  31
ATOM     31  O   UNL     1      -3.757  11.953  24.062  0.00  0.00    +0.000 OA
BRANCH  31  32
ATOM     32  C   UNL     1      -4.600  13.010  24.527  0.00  0.00    +0.000 C 
BRANCH  32  33
ATOM     33  C   UNL     1      -6.025  12.737  24.066  0.00  0.00    +0.000 C 
BRANCH  33  35
ATOM     34  C   UNL     1      -6.033  13.495  21.837  0.00  0.00    +0.000 C 
ATOM     35  O   UNL     1      -6.009  12.359  22.690  0.00  0.00    +0.000 OA
ENDBRANCH  33  35
ENDBRANCH  32  33
ENDBRANCH  31  32
ENDBRANCH  25  31
ENDBRANCH   1  29
TORSDOF 5
ENDMDL
MODEL 8
REMARK VINA RESULT:      -7.7      3.917      6.413
REMARK  Name = 
REMARK  7 active torsions:
REMARK  status: ('A' for Active; 'I' for Inactive)
REMARK    1  A    between atoms: C_1  and  O_2
REMARK    2  A    between atoms: O_2  and  C_3
REMARK    3  A    between atoms: C_3  and  C_4
REMARK    4  A    between atoms: C_4  and  O_5
REMARK    5  A    between atoms: O_5  and  C_6
REMARK    6  A    between atoms: C_10  and  C_11
REMARK    7  A    between atoms: N_30  and  C_31
REMARK                            x       y       z     vdW  Elec       q    Type
REMARK                         _______ _______ _______ _____ _____    ______ ____
ROOT
ATOM      1  C   UNL     1       1.237   8.664  20.295  0.00  0.00    +0.000 A 
ATOM      2  N   UNL     1       0.591   8.013  21.283  0.00  0.00    +0.000 NA
ATOM      3  C   UNL     1      -0.164   8.748  22.085  0.00  0.00    +0.000 A 
ATOM      4  C   UNL     1      -0.298  10.103  21.938  0.00  0.00    +0.000 A 
ATOM      5  C   UNL     1       0.379  10.708  20.868  0.00  0.00    +0.000 A 
ATOM      6  N   UNL     1       1.166  10.005  20.028  0.00  0.00    +0.000 NA
ATOM      7  C   UNL     1       0.349  12.189  20.834  0.00  0.00    +0.000 A 
ATOM      8  N   UNL     1       0.581  13.197  19.871  0.00  0.00    +0.000 N 
ATOM      9  C   UNL     1       0.167  14.410  20.430  0.00  0.00    +0.000 A 
ATOM     10  C   UNL     1       0.129  14.219  21.796  0.00  0.00    +0.000 A 
ATOM     11  C   UNL     1      -0.193  12.867  21.913  0.00  0.00    +0.000 A 
ATOM     12  C   UNL     1      -1.141  12.318  22.890  0.00  0.00    +0.000 C 
ATOM     13  C   UNL     1      -1.088  10.813  22.996  0.00  0.00    +0.000 C 
ATOM     14  C   UNL     1      -0.270  15.261  22.700  0.00  0.00    +0.000 C 
ATOM     15  O   UNL     1       0.361  15.727  23.608  0.00  0.00    +0.000 OA
ATOM     16  N   UNL     1      -1.511  15.668  22.274  0.00  0.00    +0.000 N 
ATOM     17  C   UNL     1      -1.437  16.418  21.014  0.00  0.00    +0.000 C 
ATOM     18  C   UNL     1      -0.297  15.867  20.048  0.00  0.00    +0.000 C 
ATOM     19  C   UNL     1      -0.571  16.447  18.645  0.00  0.00    +0.000 C 
ATOM     20  N   UNL     1       0.308  17.602  18.979  0.00  0.00    +0.000 NA
ATOM     21  C   UNL     1       1.206  17.927  17.877  0.00  0.00    +0.000 C 
ATOM     22  C   UNL     1       0.993  16.766  19.981  0.00  0.00    +0.000 C 
ATOM     23  H   UNL     1       0.852  13.022  18.909  0.00  0.00    +0.000 HD
ATOM     24  H   UNL     1      -2.090  16.052  23.004  0.00  0.00    +0.000 HD
ENDROOT
BRANCH   1  29
ATOM     25  C   UNL     1       3.201   5.681  19.059  0.00  0.00    +0.000 A 
ATOM     26  C   UNL     1       3.679   6.223  17.872  0.00  0.00    +0.000 A 
ATOM     27  N   UNL     1       3.381   7.461  17.427  0.00  0.00    +0.000 NA
ATOM     28  C   UNL     1       2.578   8.199  18.230  0.00  0.00    +0.000 A 
ATOM     29  C   UNL     1       2.050   7.773  19.460  0.00  0.00    +0.000 A 
ATOM     30  C   UNL     1       2.385   6.480  19.859  0.00  0.00    +0.000 A 
BRANCH  25  31
ATOM     31  O   UNL     1       3.624   4.429  19.390  0.00  0.00    +0.000 OA
BRANCH  31  32
ATOM     32  C   UNL     1       4.028   3.617  18.286  0.00  0.00    +0.000 C 
BRANCH  32  33
ATOM     33  C   UNL     1       3.188   2.348  18.280  0.00  0.00    +0.000 C 
BRANCH  33  35
ATOM     34  C   UNL     1       0.878   2.439  18.721  0.00  0.00    +0.000 C 
ATOM     35  O   UNL     1       1.897   2.641  17.751  0.00  0.00    +0.000 OA
ENDBRANCH  33  35
ENDBRANCH  32  33
ENDBRANCH  31  32
ENDBRANCH  25  31
ENDBRANCH   1  29
TORSDOF 5
ENDMDL
MODEL 9
REMARK VINA RESULT:      -7.6      2.544     10.097
REMARK  Name = 
REMARK  7 active torsions:
REMARK  status: ('A' for Active; 'I' for Inactive)
REMARK    1  A    between atoms: C_1  and  O_2
REMARK    2  A    between atoms: O_2  and  C_3
REMARK    3  A    between atoms: C_3  and  C_4
REMARK    4  A    between atoms: C_4  and  O_5
REMARK    5  A    between atoms: O_5  and  C_6
REMARK    6  A    between atoms: C_10  and  C_11
REMARK    7  A    between atoms: N_30  and  C_31
REMARK                            x       y       z     vdW  Elec       q    Type
REMARK                         _______ _______ _______ _____ _____    ______ ____
ROOT
ATOM      1  C   UNL     1       1.099   9.791  19.789  0.00  0.00    +0.000 A 
ATOM      2  N   UNL     1       0.459   9.375  20.899  0.00  0.00    +0.000 NA
ATOM      3  C   UNL     1       0.633   8.109  21.248  0.00  0.00    +0.000 A 
ATOM      4  C   UNL     1       1.421   7.247  20.531  0.00  0.00    +0.000 A 
ATOM      5  C   UNL     1       2.081   7.759  19.404  0.00  0.00    +0.000 A 
ATOM      6  N   UNL     1       1.930   9.038  19.003  0.00  0.00    +0.000 NA
ATOM      7  C   UNL     1       2.788   6.768  18.559  0.00  0.00    +0.000 A 
ATOM      8  N   UNL     1       3.798   6.799  17.569  0.00  0.00    +0.000 N 
ATOM      9  C   UNL     1       4.173   5.476  17.318  0.00  0.00    +0.000 A 
ATOM     10  C   UNL     1       3.141   4.682  17.774  0.00  0.00    +0.000 A 
ATOM     11  C   UNL     1       2.626   5.421  18.837  0.00  0.00    +0.000 A 
ATOM     12  C   UNL     1       2.203   4.850  20.122  0.00  0.00    +0.000 C 
ATOM     13  C   UNL     1       1.422   5.816  20.979  0.00  0.00    +0.000 C 
ATOM     14  C   UNL     1       3.189   3.249  17.689  0.00  0.00    +0.000 C 
ATOM     15  O   UNL     1       2.412   2.520  17.135  0.00  0.00    +0.000 OA
ATOM     16  N   UNL     1       4.349   2.877  18.322  0.00  0.00    +0.000 N 
ATOM     17  C   UNL     1       5.538   3.232  17.537  0.00  0.00    +0.000 C 
ATOM     18  C   UNL     1       5.352   4.600  16.745  0.00  0.00    +0.000 C 
ATOM     19  C   UNL     1       6.756   5.060  16.297  0.00  0.00    +0.000 C 
ATOM     20  N   UNL     1       6.560   4.324  15.017  0.00  0.00    +0.000 NA
ATOM     21  C   UNL     1       6.997   5.115  13.873  0.00  0.00    +0.000 C 
ATOM     22  C   UNL     1       5.102   4.432  15.200  0.00  0.00    +0.000 C 
ATOM     23  H   UNL     1       4.252   7.643  17.237  0.00  0.00    +0.000 HD
ATOM     24  H   UNL     1       4.321   1.951  18.720  0.00  0.00    +0.000 HD
ENDROOT
BRANCH   1  29
ATOM     25  C   UNL     1      -0.505  13.208  19.602  0.00  0.00    +0.000 A 
ATOM     26  C   UNL     1       0.401  13.817  18.742  0.00  0.00    +0.000 A 
ATOM     27  N   UNL     1       1.507  13.218  18.255  0.00  0.00    +0.000 NA
ATOM     28  C   UNL     1       1.698  11.933  18.635  0.00  0.00    +0.000 A 
ATOM     29  C   UNL     1       0.846  11.202  19.479  0.00  0.00    +0.000 A 
ATOM     30  C   UNL     1      -0.274  11.881  19.959  0.00  0.00    +0.000 A 
BRANCH  25  31
ATOM     31  O   UNL     1      -1.595  13.932  19.978  0.00  0.00    +0.000 OA
BRANCH  31  32
ATOM     32  C   UNL     1      -2.695  13.159  20.462  0.00  0.00    +0.000 C 
BRANCH  32  33
ATOM     33  C   UNL     1      -2.929  13.507  21.926  0.00  0.00    +0.000 C 
BRANCH  33  35
ATOM     34  C   UNL     1      -3.911  12.674  23.896  0.00  0.00    +0.000 C 
ATOM     35  O   UNL     1      -3.387  12.346  22.617  0.00  0.00    +0.000 OA
ENDBRANCH  33  35
ENDBRANCH  32  33
ENDBRANCH  31  32
ENDBRANCH  25  31
ENDBRANCH   1  29
TORSDOF 5
ENDMDL
