MODEL 1
REMARK VINA RESULT:      -7.5      0.000      0.000
REMARK  Name = 
REMARK  9 active torsions:
REMARK  status: ('A' for Active; 'I' for Inactive)
REMARK    1  A    between atoms: C_1  and  C_2
REMARK    2  A    between atoms: C_2  and  O_3
REMARK    3  A    between atoms: O_3  and  C_4
REMARK    4  A    between atoms: N_9  and  C_10
REMARK    5  A    between atoms: C_12  and  C_13
REMARK    6  A    between atoms: C_13  and  C_14
REMARK    7  A    between atoms: C_14  and  N_15
REMARK    8  A    between atoms: C_19  and  C_20
REMARK    9  A    between atoms: C_21  and  C_22
REMARK                            x       y       z     vdW  Elec       q    Type
REMARK                         _______ _______ _______ _____ _____    ______ ____
ROOT
ATOM      1  C   UNL     1       3.091   5.753  18.793  0.00  0.00    +0.000 A 
ATOM      2  N   UNL     1       3.110   4.659  19.620  0.00  0.00    +0.000 NA
ATOM      3  C   UNL     1       2.470   4.673  20.800  0.00  0.00    +0.000 A 
ATOM      4  N   UNL     1       1.795   5.705  21.297  0.00  0.00    +0.000 NA
ATOM      5  C   UNL     1       1.778   6.770  20.498  0.00  0.00    +0.000 A 
ATOM      6  S   UNL     1       0.954   8.153  21.030  0.00  0.00    +0.000 S 
ATOM      7  C   UNL     1       1.357   9.022  19.632  0.00  0.00    +0.000 A 
ATOM      8  C   UNL     1       0.872  10.430  19.496  0.00  0.00    +0.000 C 
ATOM      9  C   UNL     1       2.138   8.277  18.750  0.00  0.00    +0.000 A 
ATOM     10  C   UNL     1       2.647   8.863  17.471  0.00  0.00    +0.000 C 
ATOM     11  C   UNL     1       2.377   6.909  19.250  0.00  0.00    +0.000 A 
ENDROOT
BRANCH   1  17
ATOM     12  C   UNL     1       6.857   4.630  15.202  0.00  0.00    +0.000 C 
ATOM     13  O   UNL     1       7.713   5.469  14.955  0.00  0.00    +0.000 OA
ATOM     14  N   UNL     1       6.173   4.553  16.396  0.00  0.00    +0.000 N 
ATOM     15  C   UNL     1       6.319   5.611  17.390  0.00  0.00    +0.000 C 
ATOM     16  C   UNL     1       5.044   6.480  17.463  0.00  0.00    +0.000 C 
ATOM     17  N   UNL     1       3.818   5.668  17.610  0.00  0.00    +0.000 N 
ATOM     18  C   UNL     1       3.715   4.468  16.772  0.00  0.00    +0.000 C 
ATOM     19  C   UNL     1       5.029   3.681  16.628  0.00  0.00    +0.000 C 
BRANCH  12  20
ATOM     20  O   UNL     1       6.443   3.692  14.302  0.00  0.00    +0.000 OA
BRANCH  20  22
ATOM     21  C   UNL     1       5.744   3.128  12.090  0.00  0.00    +0.000 C 
ATOM     22  C   UNL     1       6.638   4.029  12.920  0.00  0.00    +0.000 C 
ENDBRANCH  20  22
ENDBRANCH  12  20
ENDBRANCH   1  17
BRANCH   3  23
ATOM     23  C   UNL     1       2.540   3.450  21.685  0.00  0.00    +0.000 C 
BRANCH  23  24
ATOM     24  C   UNL     1       1.296   2.567  21.517  0.00  0.00    +0.000 C 
BRANCH  24  25
ATOM     25  N   UNL     1       0.495   2.960  20.352  0.00  0.00    +0.000 NA
ATOM     26  H   UNL     1       0.935   3.747  19.878  0.00  0.00    +0.000 HD
ATOM     27  H   UNL     1      -0.416   3.290  20.670  0.00  0.00    +0.000 HD
ENDBRANCH  24  25
ENDBRANCH  23  24
ENDBRANCH   3  23
TORSDOF 6
ENDMDL
MODEL 2
REMARK VINA RESULT:      -6.6      1.059      1.269
REMARK  Name = 
REMARK  9 active torsions:
REMARK  status: ('A' for Active; 'I' for Inactive)
REMARK    1  A    between atoms: C_1  and  C_2
REMARK    2  A    between atoms: C_2  and  O_3
REMARK    3  A    between atoms: O_3  and  C_4
REMARK    4  A    between atoms: N_9  and  C_10
REMARK    5  A    between atoms: C_12  and  C_13
REMARK    6  A    between atoms: C_13  and  C_14
REMARK    7  A    between atoms: C_14  and  N_15
REMARK    8  A    between atoms: C_19  and  C_20
REMARK    9  A    between atoms: C_21  and  C_22
REMARK                            x       y       z     vdW  Elec       q    Type
REMARK                         _______ _______ _______ _____ _____    ______ ____
ROOT
ATOM      1  C   UNL     1       3.322   5.206  18.466  0.00  0.00    +0.000 A 
ATOM      2  N   UNL     1       3.396   4.049  19.199  0.00  0.00    +0.000 NA
ATOM      3  C   UNL     1       2.811   3.955  20.404  0.00  0.00    +0.000 A 
ATOM      4  N   UNL     1       2.142   4.929  21.013  0.00  0.00    +0.000 NA
ATOM      5  C   UNL     1       2.073   6.056  20.306  0.00  0.00    +0.000 A 
ATOM      6  S   UNL     1       1.253   7.374  20.986  0.00  0.00    +0.000 S 
ATOM      7  C   UNL     1       1.578   8.362  19.647  0.00  0.00    +0.000 A 
ATOM      8  C   UNL     1       1.065   9.766  19.649  0.00  0.00    +0.000 C 
ATOM      9  C   UNL     1       2.329   7.706  18.673  0.00  0.00    +0.000 A 
ATOM     10  C   UNL     1       2.770   8.404  17.425  0.00  0.00    +0.000 C 
ATOM     11  C   UNL     1       2.612   6.307  19.048  0.00  0.00    +0.000 A 
ENDROOT
BRANCH   1  17
ATOM     12  C   UNL     1       7.034   4.657  14.689  0.00  0.00    +0.000 C 
ATOM     13  O   UNL     1       7.744   5.613  14.410  0.00  0.00    +0.000 OA
ATOM     14  N   UNL     1       6.426   4.477  15.914  0.00  0.00    +0.000 N 
ATOM     15  C   UNL     1       6.464   5.543  16.910  0.00  0.00    +0.000 C 
ATOM     16  C   UNL     1       5.081   6.215  17.052  0.00  0.00    +0.000 C 
ATOM     17  N   UNL     1       3.996   5.231  17.249  0.00  0.00    +0.000 N 
ATOM     18  C   UNL     1       4.029   4.031  16.406  0.00  0.00    +0.000 C 
ATOM     19  C   UNL     1       5.436   3.446  16.193  0.00  0.00    +0.000 C 
BRANCH  12  20
ATOM     20  O   UNL     1       6.718   3.670  13.802  0.00  0.00    +0.000 OA
BRANCH  20  22
ATOM     21  C   UNL     1       5.254   3.338  11.945  0.00  0.00    +0.000 C 
ATOM     22  C   UNL     1       6.458   4.104  12.458  0.00  0.00    +0.000 C 
ENDBRANCH  20  22
ENDBRANCH  12  20
ENDBRANCH   1  17
BRANCH   3  23
ATOM     23  C   UNL     1       2.939   2.665  21.181  0.00  0.00    +0.000 C 
BRANCH  23  24
ATOM     24  C   UNL     1       4.370   2.115  21.119  0.00  0.00    +0.000 C 
BRANCH  24  25
ATOM     25  N   UNL     1       4.700   1.586  19.791  0.00  0.00    +0.000 NA
ATOM     26  H   UNL     1       5.303   0.770  19.882  0.00  0.00    +0.000 HD
ATOM     27  H   UNL     1       5.238   2.284  19.278  0.00  0.00    +0.000 HD
ENDBRANCH  24  25
ENDBRANCH  23  24
ENDBRANCH   3  23
TORSDOF 6
ENDMDL
MODEL 3
REMARK VINA RESULT:      -6.3      3.862      7.078
REMARK  Name = 
REMARK  9 active torsions:
REMARK  status: ('A' for Active; 'I' for Inactive)
REMARK    1  A    between atoms: C_1  and  C_2
REMARK    2  A    between atoms: C_2  and  O_3
REMARK    3  A    between atoms: O_3  and  C_4
REMARK    4  A    between atoms: N_9  and  C_10
REMARK    5  A    between atoms: C_12  and  C_13
REMARK    6  A    between atoms: C_13  and  C_14
REMARK    7  A    between atoms: C_14  and  N_15
REMARK    8  A    between atoms: C_19  and  C_20
REMARK    9  A    between atoms: C_21  and  C_22
REMARK                            x       y       z     vdW  Elec       q    Type
REMARK                         _______ _______ _______ _____ _____    ______ ____
ROOT
ATOM      1  C   UNL     1       2.481   6.169  19.265  0.00  0.00    +0.000 A 
ATOM      2  N   UNL     1       1.637   5.313  19.926  0.00  0.00    +0.000 NA
ATOM      3  C   UNL     1       1.640   3.997  19.661  0.00  0.00    +0.000 A 
ATOM      4  N   UNL     1       2.405   3.397  18.754  0.00  0.00    +0.000 NA
ATOM      5  C   UNL     1       3.222   4.226  18.107  0.00  0.00    +0.000 A 
ATOM      6  S   UNL     1       4.240   3.575  16.918  0.00  0.00    +0.000 S 
ATOM      7  C   UNL     1       4.899   5.092  16.547  0.00  0.00    +0.000 A 
ATOM      8  C   UNL     1       5.948   5.179  15.485  0.00  0.00    +0.000 C 
ATOM      9  C   UNL     1       4.341   6.115  17.311  0.00  0.00    +0.000 A 
ATOM     10  C   UNL     1       4.743   7.544  17.117  0.00  0.00    +0.000 C 
ATOM     11  C   UNL     1       3.347   5.602  18.274  0.00  0.00    +0.000 A 
ENDROOT
BRANCH   1  17
ATOM     12  C   UNL     1       0.566  11.051  20.187  0.00  0.00    +0.000 C 
ATOM     13  O   UNL     1       0.587  11.878  19.285  0.00  0.00    +0.000 OA
ATOM     14  N   UNL     1       0.535   9.688  19.984  0.00  0.00    +0.000 N 
ATOM     15  C   UNL     1       0.705   9.146  18.639  0.00  0.00    +0.000 C 
ATOM     16  C   UNL     1       2.090   8.482  18.483  0.00  0.00    +0.000 C 
ATOM     17  N   UNL     1       2.379   7.523  19.570  0.00  0.00    +0.000 N 
ATOM     18  C   UNL     1       2.032   7.943  20.932  0.00  0.00    +0.000 C 
ATOM     19  C   UNL     1       0.697   8.699  21.041  0.00  0.00    +0.000 C 
BRANCH  12  20
ATOM     20  O   UNL     1       0.619  11.379  21.510  0.00  0.00    +0.000 OA
BRANCH  20  22
ATOM     21  C   UNL     1      -1.283  11.348  22.953  0.00  0.00    +0.000 C 
ATOM     22  C   UNL     1      -0.465  12.188  21.991  0.00  0.00    +0.000 C 
ENDBRANCH  20  22
ENDBRANCH  12  20
ENDBRANCH   1  17
BRANCH   3  23
ATOM     23  C   UNL     1       0.676   3.099  20.401  0.00  0.00    +0.000 C 
BRANCH  23  24
ATOM     24  C   UNL     1       1.309   2.533  21.679  0.00  0.00    +0.000 C 
BRANCH  24  25
ATOM     25  N   UNL     1       2.606   3.152  21.973  0.00  0.00    +0.000 NA
ATOM     26  H   UNL     1       3.092   2.618  22.691  0.00  0.00    +0.000 HD
ATOM     27  H   UNL     1       2.451   4.082  22.364  0.00  0.00    +0.000 HD
ENDBRANCH  24  25
ENDBRANCH  23  24
ENDBRANCH   3  23
TORSDOF 6
ENDMDL
MODEL 4
REMARK VINA RESULT:      -6.1      3.776      6.927
REMARK  Name = 
REMARK  9 active torsions:
REMARK  status: ('A' for Active; 'I' for Inactive)
REMARK    1  A    between atoms: C_1  and  C_2
REMARK    2  A    between atoms: C_2  and  O_3
REMARK    3  A    between atoms: O_3  and  C_4
REMARK    4  A    between atoms: N_9  and  C_10
REMARK    5  A    between atoms: C_12  and  C_13
REMARK    6  A    between atoms: C_13  and  C_14
REMARK    7  A    between atoms: C_14  and  N_15
REMARK    8  A    between atoms: C_19  and  C_20
REMARK    9  A    between atoms: C_21  and  C_22
REMARK                            x       y       z     vdW  Elec       q    Type
REMARK                         _______ _______ _______ _____ _____    ______ ____
ROOT
ATOM      1  C   UNL     1       2.927   5.959  18.349  0.00  0.00    +0.000 A 
ATOM      2  N   UNL     1       1.914   5.097  18.681  0.00  0.00    +0.000 NA
ATOM      3  C   UNL     1       1.921   3.823  18.256  0.00  0.00    +0.000 A 
ATOM      4  N   UNL     1       2.853   3.277  17.480  0.00  0.00    +0.000 NA
ATOM      5  C   UNL     1       3.836   4.113  17.152  0.00  0.00    +0.000 A 
ATOM      6  S   UNL     1       5.078   3.531  16.155  0.00  0.00    +0.000 S 
ATOM      7  C   UNL     1       5.873   5.028  16.146  0.00  0.00    +0.000 A 
ATOM      8  C   UNL     1       7.147   5.160  15.375  0.00  0.00    +0.000 C 
ATOM      9  C   UNL     1       5.194   5.994  16.887  0.00  0.00    +0.000 A 
ATOM     10  C   UNL     1       5.693   7.402  16.977  0.00  0.00    +0.000 C 
ATOM     11  C   UNL     1       3.978   5.448  17.519  0.00  0.00    +0.000 A 
ENDROOT
BRANCH   1  17
ATOM     12  C   UNL     1       0.987  10.726  19.710  0.00  0.00    +0.000 C 
ATOM     13  O   UNL     1       1.051  11.646  18.906  0.00  0.00    +0.000 OA
ATOM     14  N   UNL     1       0.960   9.393  19.359  0.00  0.00    +0.000 N 
ATOM     15  C   UNL     1       1.190   9.000  17.972  0.00  0.00    +0.000 C 
ATOM     16  C   UNL     1       2.579   8.345  17.807  0.00  0.00    +0.000 C 
ATOM     17  N   UNL     1       2.816   7.272  18.795  0.00  0.00    +0.000 N 
ATOM     18  C   UNL     1       2.408   7.544  20.178  0.00  0.00    +0.000 C 
ATOM     19  C   UNL     1       1.072   8.294  20.308  0.00  0.00    +0.000 C 
BRANCH  12  20
ATOM     20  O   UNL     1       0.980  10.908  21.062  0.00  0.00    +0.000 OA
BRANCH  20  22
ATOM     21  C   UNL     1      -0.765  10.767  22.686  0.00  0.00    +0.000 C 
ATOM     22  C   UNL     1      -0.154  11.615  21.587  0.00  0.00    +0.000 C 
ENDBRANCH  20  22
ENDBRANCH  12  20
ENDBRANCH   1  17
BRANCH   3  23
ATOM     23  C   UNL     1       0.770   2.919  18.631  0.00  0.00    +0.000 C 
BRANCH  23  24
ATOM     24  C   UNL     1       0.921   2.387  20.062  0.00  0.00    +0.000 C 
BRANCH  24  25
ATOM     25  N   UNL     1       2.258   2.646  20.608  0.00  0.00    +0.000 NA
ATOM     26  H   UNL     1       2.275   3.556  21.068  0.00  0.00    +0.000 HD
ATOM     27  H   UNL     1       2.927   2.701  19.841  0.00  0.00    +0.000 HD
ENDBRANCH  24  25
ENDBRANCH  23  24
ENDBRANCH   3  23
TORSDOF 6
ENDMDL
MODEL 5
REMARK VINA RESULT:      -5.7      3.846      7.118
REMARK  Name = 
REMARK  9 active torsions:
REMARK  status: ('A' for Active; 'I' for Inactive)
REMARK    1  A    between atoms: C_1  and  C_2
REMARK    2  A    between atoms: C_2  and  O_3
REMARK    3  A    between atoms: O_3  and  C_4
REMARK    4  A    between atoms: N_9  and  C_10
REMARK    5  A    between atoms: C_12  and  C_13
REMARK    6  A    between atoms: C_13  and  C_14
REMARK    7  A    between atoms: C_14  and  N_15
REMARK    8  A    between atoms: C_19  and  C_20
REMARK    9  A    between atoms: C_21  and  C_22
REMARK                            x       y       z     vdW  Elec       q    Type
REMARK                         _______ _______ _______ _____ _____    ______ ____
ROOT
ATOM      1  C   UNL     1       3.140   6.231  18.737  0.00  0.00    +0.000 A 
ATOM      2  N   UNL     1       4.265   6.649  18.072  0.00  0.00    +0.000 NA
ATOM      3  C   UNL     1       5.356   5.870  18.001  0.00  0.00    +0.000 A 
ATOM      4  N   UNL     1       5.483   4.670  18.560  0.00  0.00    +0.000 NA
ATOM      5  C   UNL     1       4.394   4.264  19.211  0.00  0.00    +0.000 A 
ATOM      6  S   UNL     1       4.440   2.751  19.974  0.00  0.00    +0.000 S 
ATOM      7  C   UNL     1       2.860   2.918  20.563  0.00  0.00    +0.000 A 
ATOM      8  C   UNL     1       2.277   1.809  21.380  0.00  0.00    +0.000 C 
ATOM      9  C   UNL     1       2.283   4.133  20.201  0.00  0.00    +0.000 A 
ATOM     10  C   UNL     1       0.907   4.511  20.652  0.00  0.00    +0.000 C 
ATOM     11  C   UNL     1       3.189   4.943  19.364  0.00  0.00    +0.000 A 
ENDROOT
BRANCH   1  17
ATOM     12  C   UNL     1       0.191  10.605  19.456  0.00  0.00    +0.000 C 
ATOM     13  O   UNL     1      -0.422  10.743  20.506  0.00  0.00    +0.000 OA
ATOM     14  N   UNL     1       1.336   9.848  19.323  0.00  0.00    +0.000 N 
ATOM     15  C   UNL     1       1.788   9.009  20.429  0.00  0.00    +0.000 C 
ATOM     16  C   UNL     1       1.545   7.515  20.122  0.00  0.00    +0.000 C 
ATOM     17  N   UNL     1       2.072   7.120  18.799  0.00  0.00    +0.000 N 
ATOM     18  C   UNL     1       1.820   8.041  17.685  0.00  0.00    +0.000 C 
ATOM     19  C   UNL     1       1.963   9.528  18.048  0.00  0.00    +0.000 C 
BRANCH  12  20
ATOM     20  O   UNL     1      -0.213  11.149  18.272  0.00  0.00    +0.000 OA
BRANCH  20  22
ATOM     21  C   UNL     1      -1.913   9.952  17.098  0.00  0.00    +0.000 C 
ATOM     22  C   UNL     1      -1.627  11.118  18.026  0.00  0.00    +0.000 C 
ENDBRANCH  20  22
ENDBRANCH  12  20
ENDBRANCH   1  17
BRANCH   3  23
ATOM     23  C   UNL     1       6.577   6.385  17.275  0.00  0.00    +0.000 C 
BRANCH  23  24
ATOM     24  C   UNL     1       7.112   5.349  16.277  0.00  0.00    +0.000 C 
BRANCH  24  25
ATOM     25  N   UNL     1       7.863   4.279  16.944  0.00  0.00    +0.000 NA
ATOM     26  H   UNL     1       7.957   4.487  17.937  0.00  0.00    +0.000 HD
ATOM     27  H   UNL     1       8.811   4.252  16.566  0.00  0.00    +0.000 HD
ENDBRANCH  24  25
ENDBRANCH  23  24
ENDBRANCH   3  23
TORSDOF 6
ENDMDL
MODEL 6
REMARK VINA RESULT:      -5.5      1.754      1.982
REMARK  Name = 
REMARK  9 active torsions:
REMARK  status: ('A' for Active; 'I' for Inactive)
REMARK    1  A    between atoms: C_1  and  C_2
REMARK    2  A    between atoms: C_2  and  O_3
REMARK    3  A    between atoms: O_3  and  C_4
REMARK    4  A    between atoms: N_9  and  C_10
REMARK    5  A    between atoms: C_12  and  C_13
REMARK    6  A    between atoms: C_13  and  C_14
REMARK    7  A    between atoms: C_14  and  N_15
REMARK    8  A    between atoms: C_19  and  C_20
REMARK    9  A    between atoms: C_21  and  C_22
REMARK                            x       y       z     vdW  Elec       q    Type
REMARK                         _______ _______ _______ _____ _____    ______ ____
ROOT
ATOM      1  C   UNL     1       4.308   5.134  17.815  0.00  0.00    +0.000 A 
ATOM      2  N   UNL     1       4.601   3.906  18.352  0.00  0.00    +0.000 NA
ATOM      3  C   UNL     1       4.058   3.513  19.515  0.00  0.00    +0.000 A 
ATOM      4  N   UNL     1       3.231   4.237  20.262  0.00  0.00    +0.000 NA
ATOM      5  C   UNL     1       2.948   5.432  19.745  0.00  0.00    +0.000 A 
ATOM      6  S   UNL     1       1.910   6.451  20.615  0.00  0.00    +0.000 S 
ATOM      7  C   UNL     1       2.033   7.685  19.460  0.00  0.00    +0.000 A 
ATOM      8  C   UNL     1       1.273   8.953  19.680  0.00  0.00    +0.000 C 
ATOM      9  C   UNL     1       2.878   7.344  18.406  0.00  0.00    +0.000 A 
ATOM     10  C   UNL     1       3.169   8.304  17.295  0.00  0.00    +0.000 C 
ATOM     11  C   UNL     1       3.417   5.977  18.554  0.00  0.00    +0.000 A 
ENDROOT
BRANCH   1  17
ATOM     12  C   UNL     1       7.597   5.161  13.628  0.00  0.00    +0.000 C 
ATOM     13  O   UNL     1       8.600   5.862  13.664  0.00  0.00    +0.000 OA
ATOM     14  N   UNL     1       6.963   4.663  14.746  0.00  0.00    +0.000 N 
ATOM     15  C   UNL     1       7.371   5.105  16.075  0.00  0.00    +0.000 C 
ATOM     16  C   UNL     1       6.314   6.046  16.693  0.00  0.00    +0.000 C 
ATOM     17  N   UNL     1       4.951   5.478  16.629  0.00  0.00    +0.000 N 
ATOM     18  C   UNL     1       4.561   4.833  15.371  0.00  0.00    +0.000 C 
ATOM     19  C   UNL     1       5.671   3.990  14.721  0.00  0.00    +0.000 C 
BRANCH  12  20
ATOM     20  O   UNL     1       6.956   4.826  12.472  0.00  0.00    +0.000 OA
BRANCH  20  22
ATOM     21  C   UNL     1       6.096   2.762  11.633  0.00  0.00    +0.000 C 
ATOM     22  C   UNL     1       7.351   3.577  11.884  0.00  0.00    +0.000 C 
ENDBRANCH  20  22
ENDBRANCH  12  20
ENDBRANCH   1  17
BRANCH   3  23
ATOM     23  C   UNL     1       4.430   2.159  20.075  0.00  0.00    +0.000 C 
BRANCH  23  24
ATOM     24  C   UNL     1       3.674   1.031  19.361  0.00  0.00    +0.000 C 
BRANCH  24  25
ATOM     25  N   UNL     1       2.806   1.540  18.293  0.00  0.00    +0.000 NA
ATOM     26  H   UNL     1       3.371   1.834  17.497  0.00  0.00    +0.000 HD
ATOM     27  H   UNL     1       2.324   2.375  18.625  0.00  0.00    +0.000 HD
ENDBRANCH  24  25
ENDBRANCH  23  24
ENDBRANCH   3  23
TORSDOF 6
ENDMDL
MODEL 7
REMARK VINA RESULT:      -5.5      8.493      9.972
REMARK  Name = 
REMARK  9 active torsions:
REMARK  status: ('A' for Active; 'I' for Inactive)
REMARK    1  A    between atoms: C_1  and  C_2
REMARK    2  A    between atoms: C_2  and  O_3
REMARK    3  A    between atoms: O_3  and  C_4
REMARK    4  A    between atoms: N_9  and  C_10
REMARK    5  A    between atoms: C_12  and  C_13
REMARK    6  A    between atoms: C_13  and  C_14
REMARK    7  A    between atoms: C_14  and  N_15
REMARK    8  A    between atoms: C_19  and  C_20
REMARK    9  A    between atoms: C_21  and  C_22
REMARK                            x       y       z     vdW  Elec       q    Type
REMARK                         _______ _______ _______ _____ _____    ______ ____
ROOT
ATOM      1  C   UNL     1      -2.147  12.469  19.430  0.00  0.00    +0.000 A 
ATOM      2  N   UNL     1      -1.904  11.495  18.496  0.00  0.00    +0.000 NA
ATOM      3  C   UNL     1      -2.907  10.772  17.973  0.00  0.00    +0.000 A 
ATOM      4  N   UNL     1      -4.191  10.890  18.298  0.00  0.00    +0.000 NA
ATOM      5  C   UNL     1      -4.429  11.833  19.209  0.00  0.00    +0.000 A 
ATOM      6  S   UNL     1      -6.031  12.069  19.711  0.00  0.00    +0.000 S 
ATOM      7  C   UNL     1      -5.588  13.291  20.799  0.00  0.00    +0.000 A 
ATOM      8  C   UNL     1      -6.656  13.954  21.608  0.00  0.00    +0.000 C 
ATOM      9  C   UNL     1      -4.214  13.523  20.805  0.00  0.00    +0.000 A 
ATOM     10  C   UNL     1      -3.596  14.529  21.725  0.00  0.00    +0.000 C 
ATOM     11  C   UNL     1      -3.507  12.668  19.832  0.00  0.00    +0.000 A 
ENDROOT
BRANCH   1  17
ATOM     12  C   UNL     1       2.838  13.989  20.522  0.00  0.00    +0.000 C 
ATOM     13  O   UNL     1       3.381  13.564  21.533  0.00  0.00    +0.000 OA
ATOM     14  N   UNL     1       1.823  13.334  19.858  0.00  0.00    +0.000 N 
ATOM     15  C   UNL     1       1.211  12.148  20.448  0.00  0.00    +0.000 C 
ATOM     16  C   UNL     1      -0.210  12.460  20.967  0.00  0.00    +0.000 C 
ATOM     17  N   UNL     1      -1.043  13.138  19.951  0.00  0.00    +0.000 N 
ATOM     18  C   UNL     1      -0.405  14.210  19.180  0.00  0.00    +0.000 C 
ATOM     19  C   UNL     1       1.048  13.916  18.770  0.00  0.00    +0.000 C 
BRANCH  12  20
ATOM     20  O   UNL     1       3.142  15.191  19.954  0.00  0.00    +0.000 OA
BRANCH  20  22
ATOM     21  C   UNL     1       4.903  14.771  18.397  0.00  0.00    +0.000 C 
ATOM     22  C   UNL     1       4.537  15.429  19.714  0.00  0.00    +0.000 C 
ENDBRANCH  20  22
ENDBRANCH  12  20
ENDBRANCH   1  17
BRANCH   3  23
ATOM     23  C   UNL     1      -2.586   9.696  16.962  0.00  0.00    +0.000 C 
BRANCH  23  24
ATOM     24  C   UNL     1      -2.884  10.164  15.532  0.00  0.00    +0.000 C 
BRANCH  24  25
ATOM     25  N   UNL     1      -3.170  11.602  15.472  0.00  0.00    +0.000 NA
ATOM     26  H   UNL     1      -3.334  11.963  16.410  0.00  0.00    +0.000 HD
ATOM     27  H   UNL     1      -4.037  11.747  14.954  0.00  0.00    +0.000 HD
ENDBRANCH  24  25
ENDBRANCH  23  24
ENDBRANCH   3  23
TORSDOF 6
ENDMDL
MODEL 8
REMARK VINA RESULT:      -5.4      8.118     12.276
REMARK  Name = 
REMARK  9 active torsions:
REMARK  status: ('A' for Active; 'I' for Inactive)
REMARK    1  A    between atoms: C_1  and  C_2
REMARK    2  A    between atoms: C_2  and  O_3
REMARK    3  A    between atoms: O_3  and  C_4
REMARK    4  A    between atoms: N_9  and  C_10
REMARK    5  A    between atoms: C_12  and  C_13
REMARK    6  A    between atoms: C_13  and  C_14
REMARK    7  A    between atoms: C_14  and  N_15
REMARK    8  A    between atoms: C_19  and  C_20
REMARK    9  A    between atoms: C_21  and  C_22
REMARK                            x       y       z     vdW  Elec       q    Type
REMARK                         _______ _______ _______ _____ _____    ______ ____
ROOT
ATOM      1  C   UNL     1      -0.627  13.191  20.661  0.00  0.00    +0.000 A 
ATOM      2  N   UNL     1      -0.395  14.539  20.770  0.00  0.00    +0.000 NA
ATOM      3  C   UNL     1       0.608  15.125  20.097  0.00  0.00    +0.000 A 
ATOM      4  N   UNL     1       1.470  14.498  19.301  0.00  0.00    +0.000 NA
ATOM      5  C   UNL     1       1.250  13.189  19.197  0.00  0.00    +0.000 A 
ATOM      6  S   UNL     1       2.293  12.281  18.216  0.00  0.00    +0.000 S 
ATOM      7  C   UNL     1       1.484  10.834  18.569  0.00  0.00    +0.000 A 
ATOM      8  C   UNL     1       1.973   9.567  17.942  0.00  0.00    +0.000 C 
ATOM      9  C   UNL     1       0.420  11.020  19.450  0.00  0.00    +0.000 A 
ATOM     10  C   UNL     1      -0.405   9.869  19.933  0.00  0.00    +0.000 C 
ATOM     11  C   UNL     1       0.253  12.440  19.816  0.00  0.00    +0.000 A 
ENDROOT
BRANCH   1  17
ATOM     12  C   UNL     1      -4.692  12.661  24.058  0.00  0.00    +0.000 C 
ATOM     13  O   UNL     1      -4.466  12.290  25.203  0.00  0.00    +0.000 OA
ATOM     14  N   UNL     1      -3.774  13.312  23.262  0.00  0.00    +0.000 N 
ATOM     15  C   UNL     1      -2.388  13.441  23.702  0.00  0.00    +0.000 C 
ATOM     16  C   UNL     1      -1.462  12.512  22.886  0.00  0.00    +0.000 C 
ATOM     17  N   UNL     1      -1.659  12.660  21.429  0.00  0.00    +0.000 N 
ATOM     18  C   UNL     1      -3.044  12.744  20.953  0.00  0.00    +0.000 C 
ATOM     19  C   UNL     1      -3.970  13.588  21.845  0.00  0.00    +0.000 C 
BRANCH  12  20
ATOM     20  O   UNL     1      -5.871  12.431  23.413  0.00  0.00    +0.000 OA
BRANCH  20  22
ATOM     21  C   UNL     1      -7.412  14.179  23.931  0.00  0.00    +0.000 C 
ATOM     22  C   UNL     1      -7.058  12.723  24.166  0.00  0.00    +0.000 C 
ENDBRANCH  20  22
ENDBRANCH  12  20
ENDBRANCH   1  17
BRANCH   3  23
ATOM     23  C   UNL     1       0.836  16.609  20.267  0.00  0.00    +0.000 C 
BRANCH  23  24
ATOM     24  C   UNL     1       0.055  17.418  19.223  0.00  0.00    +0.000 C 
BRANCH  24  25
ATOM     25  N   UNL     1      -0.777  16.561  18.372  0.00  0.00    +0.000 NA
ATOM     26  H   UNL     1      -1.101  17.086  17.561  0.00  0.00    +0.000 HD
ATOM     27  H   UNL     1      -1.613  16.288  18.889  0.00  0.00    +0.000 HD
ENDBRANCH  24  25
ENDBRANCH  23  24
ENDBRANCH   3  23
TORSDOF 6
ENDMDL
MODEL 9
REMARK VINA RESULT:      -5.4      4.168      7.075
REMARK  Name = 
REMARK  9 active torsions:
REMARK  status: ('A' for Active; 'I' for Inactive)
REMARK    1  A    between atoms: C_1  and  C_2
REMARK    2  A    between atoms: C_2  and  O_3
REMARK    3  A    between atoms: O_3  and  C_4
REMARK    4  A    between atoms: N_9  and  C_10
REMARK    5  A    between atoms: C_12  and  C_13
REMARK    6  A    between atoms: C_13  and  C_14
REMARK    7  A    between atoms: C_14  and  N_15
REMARK    8  A    between atoms: C_19  and  C_20
REMARK    9  A    between atoms: C_21  and  C_22
REMARK                            x       y       z     vdW  Elec       q    Type
REMARK                         _______ _______ _______ _____ _____    ______ ____
ROOT
ATOM      1  C   UNL     1       3.305   5.956  18.847  0.00  0.00    +0.000 A 
ATOM      2  N   UNL     1       4.536   6.506  18.595  0.00  0.00    +0.000 NA
ATOM      3  C   UNL     1       5.644   5.749  18.591  0.00  0.00    +0.000 A 
ATOM      4  N   UNL     1       5.686   4.444  18.844  0.00  0.00    +0.000 NA
ATOM      5  C   UNL     1       4.492   3.908  19.094  0.00  0.00    +0.000 A 
ATOM      6  S   UNL     1       4.420   2.250  19.440  0.00  0.00    +0.000 S 
ATOM      7  C   UNL     1       2.740   2.294  19.659  0.00  0.00    +0.000 A 
ATOM      8  C   UNL     1       2.028   1.026  20.008  0.00  0.00    +0.000 C 
ATOM      9  C   UNL     1       2.215   3.574  19.488  0.00  0.00    +0.000 A 
ATOM     10  C   UNL     1       0.757   3.852  19.680  0.00  0.00    +0.000 C 
ATOM     11  C   UNL     1       3.258   4.551  19.122  0.00  0.00    +0.000 A 
ENDROOT
BRANCH   1  17
ATOM     12  C   UNL     1       0.238  10.259  19.493  0.00  0.00    +0.000 C 
ATOM     13  O   UNL     1      -0.420  10.372  20.519  0.00  0.00    +0.000 OA
ATOM     14  N   UNL     1       1.402   9.528  19.399  0.00  0.00    +0.000 N 
ATOM     15  C   UNL     1       1.827   8.685  20.512  0.00  0.00    +0.000 C 
ATOM     16  C   UNL     1       1.628   7.190  20.180  0.00  0.00    +0.000 C 
ATOM     17  N   UNL     1       2.216   6.822  18.875  0.00  0.00    +0.000 N 
ATOM     18  C   UNL     1       1.990   7.751  17.762  0.00  0.00    +0.000 C 
ATOM     19  C   UNL     1       2.087   9.236  18.147  0.00  0.00    +0.000 C 
BRANCH  12  20
ATOM     20  O   UNL     1      -0.130  10.809  18.300  0.00  0.00    +0.000 OA
BRANCH  20  22
ATOM     21  C   UNL     1      -1.948   9.917  17.035  0.00  0.00    +0.000 C 
ATOM     22  C   UNL     1      -1.543  10.935  18.085  0.00  0.00    +0.000 C 
ENDBRANCH  20  22
ENDBRANCH  12  20
ENDBRANCH   1  17
BRANCH   3  23
ATOM     23  C   UNL     1       6.980   6.406  18.329  0.00  0.00    +0.000 C 
BRANCH  23  24
ATOM     24  C   UNL     1       8.130   5.601  18.947  0.00  0.00    +0.000 C 
BRANCH  24  25
ATOM     25  N   UNL     1       8.041   5.545  20.410  0.00  0.00    +0.000 NA
ATOM     26  H   UNL     1       8.965   5.390  20.809  0.00  0.00    +0.000 HD
ATOM     27  H   UNL     1       7.474   4.741  20.679  0.00  0.00    +0.000 HD
ENDBRANCH  24  25
ENDBRANCH  23  24
ENDBRANCH   3  23
TORSDOF 6
ENDMDL
