MODEL 1
REMARK VINA RESULT:      -7.0      0.000      0.000
REMARK  Name = 
REMARK  6 active torsions:
REMARK  status: ('A' for Active; 'I' for Inactive)
REMARK    1  A    between atoms: C_1  and  N_2
REMARK    2  A    between atoms: C_6  and  S_7
REMARK    3  A    between atoms: S_7  and  C_8
REMARK    4  A    between atoms: C_14  and  N_15
REMARK    5  A    between atoms: C_16  and  C_18
REMARK    6  A    between atoms: C_18  and  C_19
REMARK                            x       y       z     vdW  Elec       q    Type
REMARK                         _______ _______ _______ _____ _____    ______ ____
ROOT
ATOM      1  C   UNL     1       1.224   9.035  21.690  0.00  0.00    +0.000 C 
ATOM      2  N   UNL     1       1.278   8.559  20.314  0.00  0.00    +0.000 N 
ATOM      3  C   UNL     1       1.711   7.261  20.006  0.00  0.00    +0.000 A 
ATOM      4  C   UNL     1       1.607   6.118  20.810  0.00  0.00    +0.000 A 
ATOM      5  C   UNL     1       1.957   4.852  20.293  0.00  0.00    +0.000 A 
ATOM      6  C   UNL     1       2.412   4.734  18.971  0.00  0.00    +0.000 A 
ATOM      7  C   UNL     1       2.557   5.862  18.173  0.00  0.00    +0.000 A 
ATOM      8  C   UNL     1       2.225   7.093  18.713  0.00  0.00    +0.000 A 
ATOM      9  S   UNL     1       2.413   8.630  17.875  0.00  0.00    +0.000 S 
ATOM     10  C   UNL     1       1.737   9.524  19.301  0.00  0.00    +0.000 C 
ENDROOT
BRANCH   6  11
ATOM     11  S   UNL     1       2.752   3.145  18.246  0.00  0.00    +0.000 S 
ATOM     12  C   UNL     1       1.772   2.030  19.230  0.00  0.00    +0.000 C 
ATOM     13  O   UNL     1       2.207   3.152  16.904  0.00  0.00    +0.000 OA
ATOM     14  O   UNL     1       4.141   2.845  18.483  0.00  0.00    +0.000 OA
ENDBRANCH   6  11
BRANCH  10  15
ATOM     15  N   UNL     1       0.601  10.285  18.877  0.00  0.00    +0.000 N 
ATOM     16  C   UNL     1       0.584  11.646  19.097  0.00  0.00    +0.000 C 
ATOM     17  O   UNL     1       1.460  12.202  19.755  0.00  0.00    +0.000 OA
ATOM     18  H   UNL     1       0.010   9.845  18.189  0.00  0.00    +0.000 HD
BRANCH  16  19
ATOM     19  C   UNL     1      -0.621  12.388  18.525  0.00  0.00    +0.000 C 
BRANCH  19  20
ATOM     20  C   UNL     1      -2.010  11.720  18.742  0.00  0.00    +0.000 C 
ATOM     21  C   UNL     1      -2.655  11.165  17.452  0.00  0.00    +0.000 C 
ATOM     22  C   UNL     1      -4.056  10.584  17.676  0.00  0.00    +0.000 C 
ATOM     23  C   UNL     1      -4.954  11.592  18.382  0.00  0.00    +0.000 C 
ATOM     24 BR   UNL     1      -6.717  10.807  18.682  0.00  0.00    +0.000 Br
ATOM     25  C   UNL     1      -4.354  12.016  19.715  0.00  0.00    +0.000 C 
ATOM     26  C   UNL     1      -2.973  12.644  19.512  0.00  0.00    +0.000 C 
ENDBRANCH  19  20
ENDBRANCH  16  19
ENDBRANCH  10  15
TORSDOF 4
ENDMDL
MODEL 2
REMARK VINA RESULT:      -6.8      1.139      1.268
REMARK  Name = 
REMARK  6 active torsions:
REMARK  status: ('A' for Active; 'I' for Inactive)
REMARK    1  A    between atoms: C_1  and  N_2
REMARK    2  A    between atoms: C_6  and  S_7
REMARK    3  A    between atoms: S_7  and  C_8
REMARK    4  A    between atoms: C_14  and  N_15
REMARK    5  A    between atoms: C_16  and  C_18
REMARK    6  A    between atoms: C_18  and  C_19
REMARK                            x       y       z     vdW  Elec       q    Type
REMARK                         _______ _______ _______ _____ _____    ______ ____
ROOT
ATOM      1  C   UNL     1       0.640   8.981  21.528  0.00  0.00    +0.000 C 
ATOM      2  N   UNL     1       0.957   8.560  20.170  0.00  0.00    +0.000 N 
ATOM      3  C   UNL     1       1.754   7.432  19.922  0.00  0.00    +0.000 A 
ATOM      4  C   UNL     1       1.883   6.290  20.723  0.00  0.00    +0.000 A 
ATOM      5  C   UNL     1       2.611   5.174  20.259  0.00  0.00    +0.000 A 
ATOM      6  C   UNL     1       3.210   5.205  18.991  0.00  0.00    +0.000 A 
ATOM      7  C   UNL     1       3.125   6.343  18.199  0.00  0.00    +0.000 A 
ATOM      8  C   UNL     1       2.421   7.430  18.689  0.00  0.00    +0.000 A 
ATOM      9  S   UNL     1       2.270   8.975  17.858  0.00  0.00    +0.000 S 
ATOM     10  C   UNL     1       1.238   9.629  19.198  0.00  0.00    +0.000 C 
ENDROOT
BRANCH   6  11
ATOM     11  S   UNL     1       4.038   3.779  18.321  0.00  0.00    +0.000 S 
ATOM     12  C   UNL     1       2.742   2.559  18.235  0.00  0.00    +0.000 C 
ATOM     13  O   UNL     1       4.437   4.102  16.967  0.00  0.00    +0.000 OA
ATOM     14  O   UNL     1       5.003   3.336  19.295  0.00  0.00    +0.000 OA
ENDBRANCH   6  11
BRANCH  10  15
ATOM     15  N   UNL     1      -0.013  10.063  18.653  0.00  0.00    +0.000 N 
ATOM     16  C   UNL     1      -0.300  11.411  18.617  0.00  0.00    +0.000 C 
ATOM     17  O   UNL     1       0.435  12.238  19.151  0.00  0.00    +0.000 OA
ATOM     18  H   UNL     1      -0.490   9.396  18.066  0.00  0.00    +0.000 HD
BRANCH  16  19
ATOM     19  C   UNL     1      -1.610  11.785  17.931  0.00  0.00    +0.000 C 
BRANCH  19  20
ATOM     20  C   UNL     1      -2.904  11.623  18.781  0.00  0.00    +0.000 C 
ATOM     21  C   UNL     1      -4.205  11.562  17.949  0.00  0.00    +0.000 C 
ATOM     22  C   UNL     1      -5.472  11.484  18.810  0.00  0.00    +0.000 C 
ATOM     23  C   UNL     1      -5.498  12.606  19.839  0.00  0.00    +0.000 C 
ATOM     24 BR   UNL     1      -7.106  12.454  20.939  0.00  0.00    +0.000 Br
ATOM     25  C   UNL     1      -4.266  12.555  20.732  0.00  0.00    +0.000 C 
ATOM     26  C   UNL     1      -2.988  12.680  19.899  0.00  0.00    +0.000 C 
ENDBRANCH  19  20
ENDBRANCH  16  19
ENDBRANCH  10  15
TORSDOF 4
ENDMDL
MODEL 3
REMARK VINA RESULT:      -6.8      1.732      2.398
REMARK  Name = 
REMARK  6 active torsions:
REMARK  status: ('A' for Active; 'I' for Inactive)
REMARK    1  A    between atoms: C_1  and  N_2
REMARK    2  A    between atoms: C_6  and  S_7
REMARK    3  A    between atoms: S_7  and  C_8
REMARK    4  A    between atoms: C_14  and  N_15
REMARK    5  A    between atoms: C_16  and  C_18
REMARK    6  A    between atoms: C_18  and  C_19
REMARK                            x       y       z     vdW  Elec       q    Type
REMARK                         _______ _______ _______ _____ _____    ______ ____
ROOT
ATOM      1  C   UNL     1       1.295   8.847  21.873  0.00  0.00    +0.000 C 
ATOM      2  N   UNL     1       1.242   8.474  20.466  0.00  0.00    +0.000 N 
ATOM      3  C   UNL     1       1.853   7.301  19.997  0.00  0.00    +0.000 A 
ATOM      4  C   UNL     1       2.067   6.112  20.707  0.00  0.00    +0.000 A 
ATOM      5  C   UNL     1       2.562   4.969  20.044  0.00  0.00    +0.000 A 
ATOM      6  C   UNL     1       2.843   5.019  18.671  0.00  0.00    +0.000 A 
ATOM      7  C   UNL     1       2.673   6.200  17.960  0.00  0.00    +0.000 A 
ATOM      8  C   UNL     1       2.205   7.312  18.640  0.00  0.00    +0.000 A 
ATOM      9  S   UNL     1       1.998   8.905  17.920  0.00  0.00    +0.000 S 
ATOM     10  C   UNL     1       1.377   9.567  19.489  0.00  0.00    +0.000 C 
ENDROOT
BRANCH   6  11
ATOM     11  S   UNL     1       3.358   3.569  17.776  0.00  0.00    +0.000 S 
ATOM     12  C   UNL     1       4.638   4.188  16.701  0.00  0.00    +0.000 C 
ATOM     13  O   UNL     1       3.972   2.665  18.726  0.00  0.00    +0.000 OA
ATOM     14  O   UNL     1       2.252   3.147  16.955  0.00  0.00    +0.000 OA
ENDBRANCH   6  11
BRANCH  10  15
ATOM     15  N   UNL     1       0.075  10.125  19.277  0.00  0.00    +0.000 N 
ATOM     16  C   UNL     1      -0.060  11.493  19.172  0.00  0.00    +0.000 C 
ATOM     17  O   UNL     1       0.885  12.251  19.378  0.00  0.00    +0.000 OA
ATOM     18  H   UNL     1      -0.623   9.488  18.929  0.00  0.00    +0.000 HD
BRANCH  16  19
ATOM     19  C   UNL     1      -1.466  11.990  18.849  0.00  0.00    +0.000 C 
BRANCH  19  20
ATOM     20  C   UNL     1      -2.240  12.677  20.012  0.00  0.00    +0.000 C 
ATOM     21  C   UNL     1      -1.812  12.208  21.421  0.00  0.00    +0.000 C 
ATOM     22  C   UNL     1      -2.642  12.836  22.548  0.00  0.00    +0.000 C 
ATOM     23  C   UNL     1      -4.131  12.635  22.300  0.00  0.00    +0.000 C 
ATOM     24 BR   UNL     1      -5.156  13.478  23.734  0.00  0.00    +0.000 Br
ATOM     25  C   UNL     1      -4.547  13.229  20.962  0.00  0.00    +0.000 C 
ATOM     26  C   UNL     1      -3.766  12.583  19.816  0.00  0.00    +0.000 C 
ENDBRANCH  19  20
ENDBRANCH  16  19
ENDBRANCH  10  15
TORSDOF 4
ENDMDL
MODEL 4
REMARK VINA RESULT:      -6.7      1.206      1.512
REMARK  Name = 
REMARK  6 active torsions:
REMARK  status: ('A' for Active; 'I' for Inactive)
REMARK    1  A    between atoms: C_1  and  N_2
REMARK    2  A    between atoms: C_6  and  S_7
REMARK    3  A    between atoms: S_7  and  C_8
REMARK    4  A    between atoms: C_14  and  N_15
REMARK    5  A    between atoms: C_16  and  C_18
REMARK    6  A    between atoms: C_18  and  C_19
REMARK                            x       y       z     vdW  Elec       q    Type
REMARK                         _______ _______ _______ _____ _____    ______ ____
ROOT
ATOM      1  C   UNL     1       0.717   9.317  21.605  0.00  0.00    +0.000 C 
ATOM      2  N   UNL     1       0.945   8.830  20.252  0.00  0.00    +0.000 N 
ATOM      3  C   UNL     1       1.655   7.644  20.012  0.00  0.00    +0.000 A 
ATOM      4  C   UNL     1       1.747   6.524  20.849  0.00  0.00    +0.000 A 
ATOM      5  C   UNL     1       2.380   5.347  20.396  0.00  0.00    +0.000 A 
ATOM      6  C   UNL     1       2.923   5.296  19.103  0.00  0.00    +0.000 A 
ATOM      7  C   UNL     1       2.875   6.409  18.274  0.00  0.00    +0.000 A 
ATOM      8  C   UNL     1       2.265   7.556  18.753  0.00  0.00    +0.000 A 
ATOM      9  S   UNL     1       2.176   9.077  17.871  0.00  0.00    +0.000 S 
ATOM     10  C   UNL     1       1.250   9.844  19.229  0.00  0.00    +0.000 C 
ENDROOT
BRANCH   6  11
ATOM     11  S   UNL     1       3.626   3.796  18.452  0.00  0.00    +0.000 S 
ATOM     12  C   UNL     1       5.379   4.114  18.500  0.00  0.00    +0.000 C 
ATOM     13  O   UNL     1       3.339   2.734  19.395  0.00  0.00    +0.000 OA
ATOM     14  O   UNL     1       3.230   3.691  17.071  0.00  0.00    +0.000 OA
ENDBRANCH   6  11
BRANCH  10  15
ATOM     15  N   UNL     1       0.006  10.340  18.723  0.00  0.00    +0.000 N 
ATOM     16  C   UNL     1      -0.293  11.678  18.867  0.00  0.00    +0.000 C 
ATOM     17  O   UNL     1       0.422  12.429  19.526  0.00  0.00    +0.000 OA
ATOM     18  H   UNL     1      -0.452   9.758  18.039  0.00  0.00    +0.000 HD
BRANCH  16  19
ATOM     19  C   UNL     1      -1.593  12.135  18.211  0.00  0.00    +0.000 C 
BRANCH  19  20
ATOM     20  C   UNL     1      -2.906  11.807  18.981  0.00  0.00    +0.000 C 
ATOM     21  C   UNL     1      -4.144  11.626  18.074  0.00  0.00    +0.000 C 
ATOM     22  C   UNL     1      -5.440  11.384  18.858  0.00  0.00    +0.000 C 
ATOM     23  C   UNL     1      -5.648  12.468  19.907  0.00  0.00    +0.000 C 
ATOM     24 BR   UNL     1      -7.287  12.110  20.908  0.00  0.00    +0.000 Br
ATOM     25  C   UNL     1      -4.469  12.530  20.869  0.00  0.00    +0.000 C 
ATOM     26  C   UNL     1      -3.170  12.818  20.114  0.00  0.00    +0.000 C 
ENDBRANCH  19  20
ENDBRANCH  16  19
ENDBRANCH  10  15
TORSDOF 4
ENDMDL
MODEL 5
REMARK VINA RESULT:      -6.6      4.576      9.328
REMARK  Name = 
REMARK  6 active torsions:
REMARK  status: ('A' for Active; 'I' for Inactive)
REMARK    1  A    between atoms: C_1  and  N_2
REMARK    2  A    between atoms: C_6  and  S_7
REMARK    3  A    between atoms: S_7  and  C_8
REMARK    4  A    between atoms: C_14  and  N_15
REMARK    5  A    between atoms: C_16  and  C_18
REMARK    6  A    between atoms: C_18  and  C_19
REMARK                            x       y       z     vdW  Elec       q    Type
REMARK                         _______ _______ _______ _____ _____    ______ ____
ROOT
ATOM      1  C   UNL     1      -1.908  10.101  16.812  0.00  0.00    +0.000 C 
ATOM      2  N   UNL     1      -1.713  10.549  18.185  0.00  0.00    +0.000 N 
ATOM      3  C   UNL     1      -2.627  11.411  18.809  0.00  0.00    +0.000 A 
ATOM      4  C   UNL     1      -4.001  11.522  18.554  0.00  0.00    +0.000 A 
ATOM      5  C   UNL     1      -4.812  12.334  19.375  0.00  0.00    +0.000 A 
ATOM      6  C   UNL     1      -4.245  13.035  20.450  0.00  0.00    +0.000 A 
ATOM      7  C   UNL     1      -2.879  12.966  20.693  0.00  0.00    +0.000 A 
ATOM      8  C   UNL     1      -2.105  12.178  19.860  0.00  0.00    +0.000 A 
ATOM      9  S   UNL     1      -0.354  12.029  19.974  0.00  0.00    +0.000 S 
ATOM     10  C   UNL     1      -0.332  10.863  18.586  0.00  0.00    +0.000 C 
ENDROOT
BRANCH   6  11
ATOM     11  S   UNL     1      -5.251  13.977  21.577  0.00  0.00    +0.000 S 
ATOM     12  C   UNL     1      -4.888  13.241  23.158  0.00  0.00    +0.000 C 
ATOM     13  O   UNL     1      -4.741  15.332  21.588  0.00  0.00    +0.000 OA
ATOM     14  O   UNL     1      -6.630  13.703  21.264  0.00  0.00    +0.000 OA
ENDBRANCH   6  11
BRANCH  10  15
ATOM     15  N   UNL     1       0.286   9.643  19.012  0.00  0.00    +0.000 N 
ATOM     16  C   UNL     1       1.447   9.227  18.397  0.00  0.00    +0.000 C 
ATOM     17  O   UNL     1       1.897   9.809  17.412  0.00  0.00    +0.000 OA
ATOM     18  H   UNL     1       0.009   9.306  19.921  0.00  0.00    +0.000 HD
BRANCH  16  19
ATOM     19  C   UNL     1       2.087   7.971  18.982  0.00  0.00    +0.000 C 
BRANCH  19  20
ATOM     20  C   UNL     1       2.726   6.984  17.962  0.00  0.00    +0.000 C 
ATOM     21  C   UNL     1       2.705   5.506  18.413  0.00  0.00    +0.000 C 
ATOM     22  C   UNL     1       3.411   4.562  17.431  0.00  0.00    +0.000 C 
ATOM     23  C   UNL     1       4.820   5.053  17.127  0.00  0.00    +0.000 C 
ATOM     24 BR   UNL     1       5.676   3.849  15.849  0.00  0.00    +0.000 Br
ATOM     25  C   UNL     1       4.796   6.464  16.557  0.00  0.00    +0.000 C 
ATOM     26  C   UNL     1       4.138   7.434  17.540  0.00  0.00    +0.000 C 
ENDBRANCH  19  20
ENDBRANCH  16  19
ENDBRANCH  10  15
TORSDOF 4
ENDMDL
MODEL 6
REMARK VINA RESULT:      -6.6      1.491      1.831
REMARK  Name = 
REMARK  6 active torsions:
REMARK  status: ('A' for Active; 'I' for Inactive)
REMARK    1  A    between atoms: C_1  and  N_2
REMARK    2  A    between atoms: C_6  and  S_7
REMARK    3  A    between atoms: S_7  and  C_8
REMARK    4  A    between atoms: C_14  and  N_15
REMARK    5  A    between atoms: C_16  and  C_18
REMARK    6  A    between atoms: C_18  and  C_19
REMARK                            x       y       z     vdW  Elec       q    Type
REMARK                         _______ _______ _______ _____ _____    ______ ____
ROOT
ATOM      1  C   UNL     1       1.220   8.871  21.859  0.00  0.00    +0.000 C 
ATOM      2  N   UNL     1       1.208   8.494  20.452  0.00  0.00    +0.000 N 
ATOM      3  C   UNL     1       1.818   7.312  20.007  0.00  0.00    +0.000 A 
ATOM      4  C   UNL     1       1.992   6.123  20.727  0.00  0.00    +0.000 A 
ATOM      5  C   UNL     1       2.492   4.970  20.085  0.00  0.00    +0.000 A 
ATOM      6  C   UNL     1       2.819   5.012  18.721  0.00  0.00    +0.000 A 
ATOM      7  C   UNL     1       2.690   6.193  18.002  0.00  0.00    +0.000 A 
ATOM      8  C   UNL     1       2.215   7.313  18.663  0.00  0.00    +0.000 A 
ATOM      9  S   UNL     1       2.054   8.906  17.931  0.00  0.00    +0.000 S 
ATOM     10  C   UNL     1       1.391   9.583  19.477  0.00  0.00    +0.000 C 
ENDROOT
BRANCH   6  11
ATOM     11  S   UNL     1       3.343   3.552  17.848  0.00  0.00    +0.000 S 
ATOM     12  C   UNL     1       3.644   2.381  19.157  0.00  0.00    +0.000 C 
ATOM     13  O   UNL     1       2.214   3.077  17.075  0.00  0.00    +0.000 OA
ATOM     14  O   UNL     1       4.604   3.849  17.217  0.00  0.00    +0.000 OA
ENDBRANCH   6  11
BRANCH  10  15
ATOM     15  N   UNL     1       0.105  10.158  19.220  0.00  0.00    +0.000 N 
ATOM     16  C   UNL     1       0.018  11.498  18.907  0.00  0.00    +0.000 C 
ATOM     17  O   UNL     1       1.000  12.235  18.963  0.00  0.00    +0.000 OA
ATOM     18  H   UNL     1      -0.631   9.506  18.997  0.00  0.00    +0.000 HD
BRANCH  16  19
ATOM     19  C   UNL     1      -1.378  12.000  18.553  0.00  0.00    +0.000 C 
BRANCH  19  20
ATOM     20  C   UNL     1      -2.372  12.169  19.739  0.00  0.00    +0.000 C 
ATOM     21  C   UNL     1      -3.856  12.254  19.316  0.00  0.00    +0.000 C 
ATOM     22  C   UNL     1      -4.808  12.501  20.492  0.00  0.00    +0.000 C 
ATOM     23  C   UNL     1      -4.369  13.715  21.299  0.00  0.00    +0.000 C 
ATOM     24 BR   UNL     1      -5.583  13.979  22.807  0.00  0.00    +0.000 Br
ATOM     25  C   UNL     1      -2.948  13.541  21.817  0.00  0.00    +0.000 C 
ATOM     26  C   UNL     1      -1.970  13.341  20.657  0.00  0.00    +0.000 C 
ENDBRANCH  19  20
ENDBRANCH  16  19
ENDBRANCH  10  15
TORSDOF 4
ENDMDL
MODEL 7
REMARK VINA RESULT:      -6.5      1.615      1.924
REMARK  Name = 
REMARK  6 active torsions:
REMARK  status: ('A' for Active; 'I' for Inactive)
REMARK    1  A    between atoms: C_1  and  N_2
REMARK    2  A    between atoms: C_6  and  S_7
REMARK    3  A    between atoms: S_7  and  C_8
REMARK    4  A    between atoms: C_14  and  N_15
REMARK    5  A    between atoms: C_16  and  C_18
REMARK    6  A    between atoms: C_18  and  C_19
REMARK                            x       y       z     vdW  Elec       q    Type
REMARK                         _______ _______ _______ _____ _____    ______ ____
ROOT
ATOM      1  C   UNL     1       1.243   8.803  22.072  0.00  0.00    +0.000 C 
ATOM      2  N   UNL     1       1.186   8.421  20.667  0.00  0.00    +0.000 N 
ATOM      3  C   UNL     1       1.907   7.321  20.179  0.00  0.00    +0.000 A 
ATOM      4  C   UNL     1       2.273   6.166  20.882  0.00  0.00    +0.000 A 
ATOM      5  C   UNL     1       2.869   5.080  20.205  0.00  0.00    +0.000 A 
ATOM      6  C   UNL     1       3.099   5.156  18.823  0.00  0.00    +0.000 A 
ATOM      7  C   UNL     1       2.778   6.308  18.118  0.00  0.00    +0.000 A 
ATOM      8  C   UNL     1       2.212   7.365  18.812  0.00  0.00    +0.000 A 
ATOM      9  S   UNL     1       1.809   8.922  18.098  0.00  0.00    +0.000 S 
ATOM     10  C   UNL     1       1.169   9.519  19.686  0.00  0.00    +0.000 C 
ENDROOT
BRANCH   6  11
ATOM     11  S   UNL     1       3.741   3.768  17.913  0.00  0.00    +0.000 S 
ATOM     12  C   UNL     1       3.776   2.465  19.128  0.00  0.00    +0.000 C 
ATOM     13  O   UNL     1       2.760   3.414  16.908  0.00  0.00    +0.000 OA
ATOM     14  O   UNL     1       5.101   4.075  17.549  0.00  0.00    +0.000 OA
ENDBRANCH   6  11
BRANCH  10  15
ATOM     15  N   UNL     1      -0.192   9.930  19.516  0.00  0.00    +0.000 N 
ATOM     16  C   UNL     1      -0.525  11.253  19.717  0.00  0.00    +0.000 C 
ATOM     17  O   UNL     1       0.290  12.060  20.158  0.00  0.00    +0.000 OA
ATOM     18  H   UNL     1      -0.775   9.305  18.982  0.00  0.00    +0.000 HD
BRANCH  16  19
ATOM     19  C   UNL     1      -1.976  11.617  19.418  0.00  0.00    +0.000 C 
BRANCH  19  20
ATOM     20  C   UNL     1      -2.623  10.918  18.187  0.00  0.00    +0.000 C 
ATOM     21  C   UNL     1      -1.609  10.444  17.122  0.00  0.00    +0.000 C 
ATOM     22  C   UNL     1      -2.273   9.831  15.883  0.00  0.00    +0.000 C 
ATOM     23  C   UNL     1      -3.318  10.776  15.305  0.00  0.00    +0.000 C 
ATOM     24 BR   UNL     1      -4.167   9.950  13.751  0.00  0.00    +0.000 Br
ATOM     25  C   UNL     1      -4.379  11.117  16.342  0.00  0.00    +0.000 C 
ATOM     26  C   UNL     1      -3.745  11.774  17.569  0.00  0.00    +0.000 C 
ENDBRANCH  19  20
ENDBRANCH  16  19
ENDBRANCH  10  15
TORSDOF 4
ENDMDL
MODEL 8
REMARK VINA RESULT:      -6.5      4.543      9.332
REMARK  Name = 
REMARK  6 active torsions:
REMARK  status: ('A' for Active; 'I' for Inactive)
REMARK    1  A    between atoms: C_1  and  N_2
REMARK    2  A    between atoms: C_6  and  S_7
REMARK    3  A    between atoms: S_7  and  C_8
REMARK    4  A    between atoms: C_14  and  N_15
REMARK    5  A    between atoms: C_16  and  C_18
REMARK    6  A    between atoms: C_18  and  C_19
REMARK                            x       y       z     vdW  Elec       q    Type
REMARK                         _______ _______ _______ _____ _____    ______ ____
ROOT
ATOM      1  C   UNL     1      -1.409  10.464  17.815  0.00  0.00    +0.000 C 
ATOM      2  N   UNL     1      -0.828  10.805  19.106  0.00  0.00    +0.000 N 
ATOM      3  C   UNL     1      -1.391  11.798  19.922  0.00  0.00    +0.000 A 
ATOM      4  C   UNL     1      -2.737  12.181  19.987  0.00  0.00    +0.000 A 
ATOM      5  C   UNL     1      -3.169  13.097  20.970  0.00  0.00    +0.000 A 
ATOM      6  C   UNL     1      -2.248  13.629  21.886  0.00  0.00    +0.000 A 
ATOM      7  C   UNL     1      -0.904  13.289  21.811  0.00  0.00    +0.000 A 
ATOM      8  C   UNL     1      -0.506  12.404  20.824  0.00  0.00    +0.000 A 
ATOM      9  S   UNL     1       1.161  11.918  20.536  0.00  0.00    +0.000 S 
ATOM     10  C   UNL     1       0.642  10.830  19.181  0.00  0.00    +0.000 C 
ENDROOT
BRANCH   6  11
ATOM     11  S   UNL     1      -2.771  14.695  23.212  0.00  0.00    +0.000 S 
ATOM     12  C   UNL     1      -4.289  13.943  23.765  0.00  0.00    +0.000 C 
ATOM     13  O   UNL     1      -1.799  14.574  24.279  0.00  0.00    +0.000 OA
ATOM     14  O   UNL     1      -3.092  15.978  22.640  0.00  0.00    +0.000 OA
ENDBRANCH   6  11
BRANCH  10  15
ATOM     15  N   UNL     1       1.088   9.498  19.456  0.00  0.00    +0.000 N 
ATOM     16  C   UNL     1       1.818   8.823  18.501  0.00  0.00    +0.000 C 
ATOM     17  O   UNL     1       1.989   9.287  17.377  0.00  0.00    +0.000 OA
ATOM     18  H   UNL     1       1.099   9.231  20.428  0.00  0.00    +0.000 HD
BRANCH  16  19
ATOM     19  C   UNL     1       2.333   7.448  18.919  0.00  0.00    +0.000 C 
BRANCH  19  20
ATOM     20  C   UNL     1       2.997   6.591  17.802  0.00  0.00    +0.000 C 
ATOM     21  C   UNL     1       3.102   5.086  18.137  0.00  0.00    +0.000 C 
ATOM     22  C   UNL     1       3.831   4.275  17.058  0.00  0.00    +0.000 C 
ATOM     23  C   UNL     1       5.187   4.892  16.740  0.00  0.00    +0.000 C 
ATOM     24 BR   UNL     1       6.070   3.855  15.340  0.00  0.00    +0.000 Br
ATOM     25  C   UNL     1       5.036   6.336  16.283  0.00  0.00    +0.000 C 
ATOM     26  C   UNL     1       4.353   7.177  17.364  0.00  0.00    +0.000 C 
ENDBRANCH  19  20
ENDBRANCH  16  19
ENDBRANCH  10  15
TORSDOF 4
ENDMDL
MODEL 9
REMARK VINA RESULT:      -6.5      1.660      2.201
REMARK  Name = 
REMARK  6 active torsions:
REMARK  status: ('A' for Active; 'I' for Inactive)
REMARK    1  A    between atoms: C_1  and  N_2
REMARK    2  A    between atoms: C_6  and  S_7
REMARK    3  A    between atoms: S_7  and  C_8
REMARK    4  A    between atoms: C_14  and  N_15
REMARK    5  A    between atoms: C_16  and  C_18
REMARK    6  A    between atoms: C_18  and  C_19
REMARK                            x       y       z     vdW  Elec       q    Type
REMARK                         _______ _______ _______ _____ _____    ______ ____
ROOT
ATOM      1  C   UNL     1       1.053   8.826  21.991  0.00  0.00    +0.000 C 
ATOM      2  N   UNL     1       1.081   8.479  20.577  0.00  0.00    +0.000 N 
ATOM      3  C   UNL     1       1.821   7.385  20.107  0.00  0.00    +0.000 A 
ATOM      4  C   UNL     1       2.134   6.209  20.802  0.00  0.00    +0.000 A 
ATOM      5  C   UNL     1       2.762   5.135  20.136  0.00  0.00    +0.000 A 
ATOM      6  C   UNL     1       3.078   5.242  18.774  0.00  0.00    +0.000 A 
ATOM      7  C   UNL     1       2.810   6.415  18.079  0.00  0.00    +0.000 A 
ATOM      8  C   UNL     1       2.211   7.459  18.763  0.00  0.00    +0.000 A 
ATOM      9  S   UNL     1       1.866   9.037  18.064  0.00  0.00    +0.000 S 
ATOM     10  C   UNL     1       1.133   9.601  19.624  0.00  0.00    +0.000 C 
ENDROOT
BRANCH   6  11
ATOM     11  S   UNL     1       3.764   3.871  17.870  0.00  0.00    +0.000 S 
ATOM     12  C   UNL     1       4.838   4.659  16.687  0.00  0.00    +0.000 C 
ATOM     13  O   UNL     1       4.591   3.114  18.788  0.00  0.00    +0.000 OA
ATOM     14  O   UNL     1       2.689   3.242  17.146  0.00  0.00    +0.000 OA
ENDBRANCH   6  11
BRANCH  10  15
ATOM     15  N   UNL     1      -0.211  10.029  19.380  0.00  0.00    +0.000 N 
ATOM     16  C   UNL     1      -0.627  11.249  19.870  0.00  0.00    +0.000 C 
ATOM     17  O   UNL     1       0.085  11.920  20.614  0.00  0.00    +0.000 OA
ATOM     18  H   UNL     1      -0.690   9.561  18.627  0.00  0.00    +0.000 HD
BRANCH  16  19
ATOM     19  C   UNL     1      -2.042  11.665  19.478  0.00  0.00    +0.000 C 
BRANCH  19  20
ATOM     20  C   UNL     1      -2.656  10.944  18.243  0.00  0.00    +0.000 C 
ATOM     21  C   UNL     1      -1.619  10.508  17.184  0.00  0.00    +0.000 C 
ATOM     22  C   UNL     1      -2.253   9.873  15.940  0.00  0.00    +0.000 C 
ATOM     23  C   UNL     1      -3.327  10.781  15.356  0.00  0.00    +0.000 C 
ATOM     24 BR   UNL     1      -4.136   9.927  13.796  0.00  0.00    +0.000 Br
ATOM     25  C   UNL     1      -4.406  11.083  16.386  0.00  0.00    +0.000 C 
ATOM     26  C   UNL     1      -3.804  11.762  17.618  0.00  0.00    +0.000 C 
ENDBRANCH  19  20
ENDBRANCH  16  19
ENDBRANCH  10  15
TORSDOF 4
ENDMDL
