MODEL 1
REMARK VINA RESULT:      -7.4      0.000      0.000
REMARK  Name = 
REMARK  13 active torsions:
REMARK  status: ('A' for Active; 'I' for Inactive)
REMARK    1  A    between atoms: C_1  and  O_2
REMARK    2  A    between atoms: O_2  and  C_3
REMARK    3  A    between atoms: C_6  and  C_7
REMARK    4  A    between atoms: C_8  and  C_9
REMARK    5  A    between atoms: C_8  and  S_11
REMARK    6  A    between atoms: S_11  and  C_13
REMARK    7  A    between atoms: C_15  and  O_16
REMARK    8  A    between atoms: O_16  and  C_17
REMARK    9  A    between atoms: C_18  and  O_19
REMARK   10  A    between atoms: O_19  and  C_20
REMARK   11  A    between atoms: C_21  and  O_22
REMARK   12  A    between atoms: O_22  and  C_23
REMARK   13  A    between atoms: C_26  and  O_27
REMARK                            x       y       z     vdW  Elec       q    Type
REMARK                         _______ _______ _______ _____ _____    ______ ____
ROOT
ATOM      1  C   UNL     1       3.314   5.711  19.459  0.00  0.00    +0.000 C 
ATOM      2  C   UNL     1       3.064   4.617  18.713  0.00  0.00    +0.000 C 
ENDROOT
BRANCH   1   6
ATOM      3  C   UNL     1       1.023   9.374  19.524  0.00  0.00    +0.000 A 
ATOM      4  C   UNL     1       1.051   8.525  20.639  0.00  0.00    +0.000 A 
ATOM      5  C   UNL     1       1.779   7.323  20.626  0.00  0.00    +0.000 A 
ATOM      6  C   UNL     1       2.517   6.958  19.495  0.00  0.00    +0.000 A 
ATOM      7  C   UNL     1       2.560   7.858  18.426  0.00  0.00    +0.000 A 
ATOM      8  C   UNL     1       1.774   9.010  18.408  0.00  0.00    +0.000 A 
BRANCH   3  10
ATOM      9  C   UNL     1       0.695  11.500  20.559  0.00  0.00    +0.000 C 
ATOM     10  O   UNL     1       0.232  10.479  19.680  0.00  0.00    +0.000 OA
ENDBRANCH   3  10
BRANCH   8  11
ATOM     11  O   UNL     1       1.776   9.740  17.251  0.00  0.00    +0.000 OA
ATOM     12  H   UNL     1       0.934   9.580  16.790  0.00  0.00    +0.000 HD
ENDBRANCH   8  11
ENDBRANCH   1   6
BRANCH   2  13
ATOM     13  C   UNL     1       1.928   4.463  17.858  0.00  0.00    +0.000 C 
ATOM     14  N   UNL     1       0.988   4.371  17.182  0.00  0.00    +0.000 NA
ENDBRANCH   2  13
BRANCH   2  15
ATOM     15  S   UNL     1       4.333   3.360  18.536  0.00  0.00    +0.000 S 
ATOM     16  O   UNL     1       3.636   2.059  17.999  0.00  0.00    +0.000 OA
BRANCH  15  17
ATOM     17  C   UNL     1       5.423   3.968  17.223  0.00  0.00    +0.000 A 
ATOM     18  C   UNL     1       5.357   3.449  15.927  0.00  0.00    +0.000 A 
ATOM     19  C   UNL     1       6.139   3.976  14.884  0.00  0.00    +0.000 A 
ATOM     20  C   UNL     1       6.937   5.113  15.127  0.00  0.00    +0.000 A 
ATOM     21  C   UNL     1       6.974   5.664  16.431  0.00  0.00    +0.000 A 
ATOM     22  C   UNL     1       6.245   5.071  17.468  0.00  0.00    +0.000 A 
BRANCH  19  23
ATOM     23  O   UNL     1       6.142   3.432  13.627  0.00  0.00    +0.000 OA
ATOM     24  C   UNL     1       4.982   3.570  12.817  0.00  0.00    +0.000 C 
ENDBRANCH  19  23
BRANCH  20  25
ATOM     25  O   UNL     1       7.712   5.796  14.220  0.00  0.00    +0.000 OA
ATOM     26  C   UNL     1       8.048   5.206  12.976  0.00  0.00    +0.000 C 
ENDBRANCH  20  25
BRANCH  21  27
ATOM     27  O   UNL     1       7.742   6.796  16.588  0.00  0.00    +0.000 OA
ATOM     28  C   UNL     1       7.684   7.473  17.837  0.00  0.00    +0.000 C 
ENDBRANCH  21  27
ENDBRANCH  15  17
ENDBRANCH   2  15
TORSDOF 9
ENDMDL
MODEL 2
REMARK VINA RESULT:      -7.2      0.655      1.327
REMARK  Name = 
REMARK  13 active torsions:
REMARK  status: ('A' for Active; 'I' for Inactive)
REMARK    1  A    between atoms: C_1  and  O_2
REMARK    2  A    between atoms: O_2  and  C_3
REMARK    3  A    between atoms: C_6  and  C_7
REMARK    4  A    between atoms: C_8  and  C_9
REMARK    5  A    between atoms: C_8  and  S_11
REMARK    6  A    between atoms: S_11  and  C_13
REMARK    7  A    between atoms: C_15  and  O_16
REMARK    8  A    between atoms: O_16  and  C_17
REMARK    9  A    between atoms: C_18  and  O_19
REMARK   10  A    between atoms: O_19  and  C_20
REMARK   11  A    between atoms: C_21  and  O_22
REMARK   12  A    between atoms: O_22  and  C_23
REMARK   13  A    between atoms: C_26  and  O_27
REMARK                            x       y       z     vdW  Elec       q    Type
REMARK                         _______ _______ _______ _____ _____    ______ ____
ROOT
ATOM      1  C   UNL     1       3.343   5.927  19.154  0.00  0.00    +0.000 C 
ATOM      2  C   UNL     1       3.035   4.757  18.563  0.00  0.00    +0.000 C 
ENDROOT
BRANCH   1   6
ATOM      3  C   UNL     1       1.030   9.574  19.022  0.00  0.00    +0.000 A 
ATOM      4  C   UNL     1       1.679   9.094  17.876  0.00  0.00    +0.000 A 
ATOM      5  C   UNL     1       2.447   7.918  17.909  0.00  0.00    +0.000 A 
ATOM      6  C   UNL     1       2.561   7.183  19.093  0.00  0.00    +0.000 A 
ATOM      7  C   UNL     1       1.832   7.618  20.204  0.00  0.00    +0.000 A 
ATOM      8  C   UNL     1       1.135   8.826  20.193  0.00  0.00    +0.000 A 
BRANCH   3  10
ATOM      9  C   UNL     1       1.123  11.955  18.890  0.00  0.00    +0.000 C 
ATOM     10  O   UNL     1       0.362  10.753  18.837  0.00  0.00    +0.000 OA
ENDBRANCH   3  10
BRANCH   8  11
ATOM     11  O   UNL     1       0.584   9.230  21.378  0.00  0.00    +0.000 OA
ATOM     12  H   UNL     1       0.215   8.447  21.824  0.00  0.00    +0.000 HD
ENDBRANCH   8  11
ENDBRANCH   1   6
BRANCH   2  13
ATOM     13  C   UNL     1       1.842   4.520  17.809  0.00  0.00    +0.000 C 
ATOM     14  N   UNL     1       0.870   4.292  17.217  0.00  0.00    +0.000 NA
ENDBRANCH   2  13
BRANCH   2  15
ATOM     15  S   UNL     1       4.278   3.466  18.455  0.00  0.00    +0.000 S 
ATOM     16  O   UNL     1       3.566   2.168  17.930  0.00  0.00    +0.000 OA
BRANCH  15  17
ATOM     17  C   UNL     1       5.420   4.015  17.160  0.00  0.00    +0.000 A 
ATOM     18  C   UNL     1       5.381   3.462  15.877  0.00  0.00    +0.000 A 
ATOM     19  C   UNL     1       6.205   3.944  14.845  0.00  0.00    +0.000 A 
ATOM     20  C   UNL     1       7.019   5.071  15.081  0.00  0.00    +0.000 A 
ATOM     21  C   UNL     1       7.029   5.657  16.370  0.00  0.00    +0.000 A 
ATOM     22  C   UNL     1       6.257   5.108  17.399  0.00  0.00    +0.000 A 
BRANCH  19  23
ATOM     23  O   UNL     1       6.235   3.365  13.604  0.00  0.00    +0.000 OA
ATOM     24  C   UNL     1       5.094   3.487  12.763  0.00  0.00    +0.000 C 
ENDBRANCH  19  23
BRANCH  20  25
ATOM     25  O   UNL     1       7.835   5.712  14.179  0.00  0.00    +0.000 OA
ATOM     26  C   UNL     1       7.935   5.247  12.844  0.00  0.00    +0.000 C 
ENDBRANCH  20  25
BRANCH  21  27
ATOM     27  O   UNL     1       7.816   6.777  16.519  0.00  0.00    +0.000 OA
ATOM     28  C   UNL     1       7.727   7.495  17.743  0.00  0.00    +0.000 C 
ENDBRANCH  21  27
ENDBRANCH  15  17
ENDBRANCH   2  15
TORSDOF 9
ENDMDL
MODEL 3
REMARK VINA RESULT:      -6.9      3.660      8.982
REMARK  Name = 
REMARK  13 active torsions:
REMARK  status: ('A' for Active; 'I' for Inactive)
REMARK    1  A    between atoms: C_1  and  O_2
REMARK    2  A    between atoms: O_2  and  C_3
REMARK    3  A    between atoms: C_6  and  C_7
REMARK    4  A    between atoms: C_8  and  C_9
REMARK    5  A    between atoms: C_8  and  S_11
REMARK    6  A    between atoms: S_11  and  C_13
REMARK    7  A    between atoms: C_15  and  O_16
REMARK    8  A    between atoms: O_16  and  C_17
REMARK    9  A    between atoms: C_18  and  O_19
REMARK   10  A    between atoms: O_19  and  C_20
REMARK   11  A    between atoms: C_21  and  O_22
REMARK   12  A    between atoms: O_22  and  C_23
REMARK   13  A    between atoms: C_26  and  O_27
REMARK                            x       y       z     vdW  Elec       q    Type
REMARK                         _______ _______ _______ _____ _____    ______ ____
ROOT
ATOM      1  C   UNL     1       2.284   7.976  18.142  0.00  0.00    +0.000 C 
ATOM      2  C   UNL     1       1.680   8.757  19.057  0.00  0.00    +0.000 C 
ENDROOT
BRANCH   1   6
ATOM      3  C   UNL     1       3.752   3.953  18.716  0.00  0.00    +0.000 A 
ATOM      4  C   UNL     1       2.437   4.182  18.289  0.00  0.00    +0.000 A 
ATOM      5  C   UNL     1       1.942   5.486  18.114  0.00  0.00    +0.000 A 
ATOM      6  C   UNL     1       2.769   6.591  18.341  0.00  0.00    +0.000 A 
ATOM      7  C   UNL     1       4.106   6.349  18.673  0.00  0.00    +0.000 A 
ATOM      8  C   UNL     1       4.574   5.059  18.924  0.00  0.00    +0.000 A 
BRANCH   3  10
ATOM      9  C   UNL     1       3.381   1.686  18.068  0.00  0.00    +0.000 C 
ATOM     10  O   UNL     1       4.066   2.632  18.883  0.00  0.00    +0.000 OA
ENDBRANCH   3  10
BRANCH   8  11
ATOM     11  O   UNL     1       5.855   4.949  19.389  0.00  0.00    +0.000 OA
ATOM     12  H   UNL     1       6.069   4.002  19.468  0.00  0.00    +0.000 HD
ENDBRANCH   8  11
ENDBRANCH   1   6
BRANCH   2  13
ATOM     13  C   UNL     1       1.352   8.342  20.386  0.00  0.00    +0.000 C 
ATOM     14  N   UNL     1       1.100   7.967  21.456  0.00  0.00    +0.000 NA
ENDBRANCH   2  13
BRANCH   2  15
ATOM     15  S   UNL     1       1.496  10.514  18.737  0.00  0.00    +0.000 S 
ATOM     16  O   UNL     1       2.256  10.832  17.400  0.00  0.00    +0.000 OA
BRANCH  15  17
ATOM     17  C   UNL     1      -0.272  10.756  18.422  0.00  0.00    +0.000 A 
ATOM     18  C   UNL     1      -0.942  10.013  17.446  0.00  0.00    +0.000 A 
ATOM     19  C   UNL     1      -2.330  10.133  17.256  0.00  0.00    +0.000 A 
ATOM     20  C   UNL     1      -3.078  10.949  18.130  0.00  0.00    +0.000 A 
ATOM     21  C   UNL     1      -2.404  11.672  19.145  0.00  0.00    +0.000 A 
ATOM     22  C   UNL     1      -1.012  11.592  19.261  0.00  0.00    +0.000 A 
BRANCH  19  23
ATOM     23  O   UNL     1      -2.991   9.470  16.256  0.00  0.00    +0.000 OA
ATOM     24  C   UNL     1      -2.927   9.988  14.933  0.00  0.00    +0.000 C 
ENDBRANCH  19  23
BRANCH  20  25
ATOM     25  O   UNL     1      -4.440  11.137  18.134  0.00  0.00    +0.000 OA
ATOM     26  C   UNL     1      -5.057  11.935  17.138  0.00  0.00    +0.000 C 
ENDBRANCH  20  25
BRANCH  21  27
ATOM     27  O   UNL     1      -3.199  12.418  19.986  0.00  0.00    +0.000 OA
ATOM     28  C   UNL     1      -2.559  13.284  20.914  0.00  0.00    +0.000 C 
ENDBRANCH  21  27
ENDBRANCH  15  17
ENDBRANCH   2  15
TORSDOF 9
ENDMDL
MODEL 4
REMARK VINA RESULT:      -6.8      3.794      9.212
REMARK  Name = 
REMARK  13 active torsions:
REMARK  status: ('A' for Active; 'I' for Inactive)
REMARK    1  A    between atoms: C_1  and  O_2
REMARK    2  A    between atoms: O_2  and  C_3
REMARK    3  A    between atoms: C_6  and  C_7
REMARK    4  A    between atoms: C_8  and  C_9
REMARK    5  A    between atoms: C_8  and  S_11
REMARK    6  A    between atoms: S_11  and  C_13
REMARK    7  A    between atoms: C_15  and  O_16
REMARK    8  A    between atoms: O_16  and  C_17
REMARK    9  A    between atoms: C_18  and  O_19
REMARK   10  A    between atoms: O_19  and  C_20
REMARK   11  A    between atoms: C_21  and  O_22
REMARK   12  A    between atoms: O_22  and  C_23
REMARK   13  A    between atoms: C_26  and  O_27
REMARK                            x       y       z     vdW  Elec       q    Type
REMARK                         _______ _______ _______ _____ _____    ______ ____
ROOT
ATOM      1  C   UNL     1       1.953   8.731  18.085  0.00  0.00    +0.000 C 
ATOM      2  C   UNL     1       1.402   9.225  19.211  0.00  0.00    +0.000 C 
ENDROOT
BRANCH   1   6
ATOM      3  C   UNL     1       3.837   4.878  17.564  0.00  0.00    +0.000 A 
ATOM      4  C   UNL     1       2.486   4.973  17.925  0.00  0.00    +0.000 A 
ATOM      5  C   UNL     1       1.865   6.219  18.113  0.00  0.00    +0.000 A 
ATOM      6  C   UNL     1       2.585   7.403  17.919  0.00  0.00    +0.000 A 
ATOM      7  C   UNL     1       3.904   7.297  17.465  0.00  0.00    +0.000 A 
ATOM      8  C   UNL     1       4.542   6.062  17.356  0.00  0.00    +0.000 A 
BRANCH   3  10
ATOM      9  C   UNL     1       3.408   2.543  17.807  0.00  0.00    +0.000 C 
ATOM     10  O   UNL     1       4.303   3.595  17.465  0.00  0.00    +0.000 OA
ENDBRANCH   3  10
BRANCH   8  11
ATOM     11  O   UNL     1       5.875   6.083  17.051  0.00  0.00    +0.000 OA
ATOM     12  H   UNL     1       6.354   5.599  17.748  0.00  0.00    +0.000 HD
ENDBRANCH   8  11
ENDBRANCH   1   6
BRANCH   2  13
ATOM     13  C   UNL     1       1.287   8.503  20.440  0.00  0.00    +0.000 C 
ATOM     14  N   UNL     1       1.179   7.885  21.417  0.00  0.00    +0.000 NA
ENDBRANCH   2  13
BRANCH   2  15
ATOM     15  S   UNL     1       1.015  10.976  19.311  0.00  0.00    +0.000 S 
ATOM     16  O   UNL     1       1.900  11.716  18.245  0.00  0.00    +0.000 OA
BRANCH  15  17
ATOM     17  C   UNL     1      -0.708  11.113  18.771  0.00  0.00    +0.000 A 
ATOM     18  C   UNL     1      -1.213  10.306  17.748  0.00  0.00    +0.000 A 
ATOM     19  C   UNL     1      -2.571  10.347  17.383  0.00  0.00    +0.000 A 
ATOM     20  C   UNL     1      -3.461  11.148  18.127  0.00  0.00    +0.000 A 
ATOM     21  C   UNL     1      -2.957  11.936  19.190  0.00  0.00    +0.000 A 
ATOM     22  C   UNL     1      -1.588  11.934  19.480  0.00  0.00    +0.000 A 
BRANCH  19  23
ATOM     23  O   UNL     1      -3.067   9.619  16.334  0.00  0.00    +0.000 OA
ATOM     24  C   UNL     1      -2.952  10.148  15.018  0.00  0.00    +0.000 C 
ENDBRANCH  19  23
BRANCH  20  25
ATOM     25  O   UNL     1      -4.820  11.263  17.955  0.00  0.00    +0.000 OA
ATOM     26  C   UNL     1      -5.349  12.160  16.993  0.00  0.00    +0.000 C 
ENDBRANCH  20  25
BRANCH  21  27
ATOM     27  O   UNL     1      -3.887  12.663  19.898  0.00  0.00    +0.000 OA
ATOM     28  C   UNL     1      -3.664  12.856  21.289  0.00  0.00    +0.000 C 
ENDBRANCH  21  27
ENDBRANCH  15  17
ENDBRANCH   2  15
TORSDOF 9
ENDMDL
MODEL 5
REMARK VINA RESULT:      -6.8      1.124      1.175
REMARK  Name = 
REMARK  13 active torsions:
REMARK  status: ('A' for Active; 'I' for Inactive)
REMARK    1  A    between atoms: C_1  and  O_2
REMARK    2  A    between atoms: O_2  and  C_3
REMARK    3  A    between atoms: C_6  and  C_7
REMARK    4  A    between atoms: C_8  and  C_9
REMARK    5  A    between atoms: C_8  and  S_11
REMARK    6  A    between atoms: S_11  and  C_13
REMARK    7  A    between atoms: C_15  and  O_16
REMARK    8  A    between atoms: O_16  and  C_17
REMARK    9  A    between atoms: C_18  and  O_19
REMARK   10  A    between atoms: O_19  and  C_20
REMARK   11  A    between atoms: C_21  and  O_22
REMARK   12  A    between atoms: O_22  and  C_23
REMARK   13  A    between atoms: C_26  and  O_27
REMARK                            x       y       z     vdW  Elec       q    Type
REMARK                         _______ _______ _______ _____ _____    ______ ____
ROOT
ATOM      1  C   UNL     1       3.122   5.906  18.128  0.00  0.00    +0.000 C 
ATOM      2  C   UNL     1       3.177   4.690  18.704  0.00  0.00    +0.000 C 
ENDROOT
BRANCH   1   6
ATOM      3  C   UNL     1       1.282   9.482  19.709  0.00  0.00    +0.000 A 
ATOM      4  C   UNL     1       1.439   8.342  20.509  0.00  0.00    +0.000 A 
ATOM      5  C   UNL     1       2.021   7.167  20.003  0.00  0.00    +0.000 A 
ATOM      6  C   UNL     1       2.482   7.120  18.683  0.00  0.00    +0.000 A 
ATOM      7  C   UNL     1       2.408   8.293  17.924  0.00  0.00    +0.000 A 
ATOM      8  C   UNL     1       1.759   9.431  18.400  0.00  0.00    +0.000 A 
BRANCH   3  10
ATOM      9  C   UNL     1      -0.719  10.743  20.034  0.00  0.00    +0.000 C 
ATOM     10  O   UNL     1       0.656  10.525  20.334  0.00  0.00    +0.000 OA
ENDBRANCH   3  10
BRANCH   8  11
ATOM     11  O   UNL     1       1.611  10.469  17.521  0.00  0.00    +0.000 OA
ATOM     12  H   UNL     1       0.664  10.558  17.314  0.00  0.00    +0.000 HD
ENDBRANCH   8  11
ENDBRANCH   1   6
BRANCH   2  13
ATOM     13  C   UNL     1       2.662   4.385  20.003  0.00  0.00    +0.000 C 
ATOM     14  N   UNL     1       2.272   4.108  21.061  0.00  0.00    +0.000 NA
ENDBRANCH   2  13
BRANCH   2  15
ATOM     15  S   UNL     1       3.674   3.269  17.725  0.00  0.00    +0.000 S 
ATOM     16  O   UNL     1       2.476   2.908  16.776  0.00  0.00    +0.000 OA
BRANCH  15  17
ATOM     17  C   UNL     1       5.030   3.864  16.680  0.00  0.00    +0.000 A 
ATOM     18  C   UNL     1       5.153   3.454  15.350  0.00  0.00    +0.000 A 
ATOM     19  C   UNL     1       6.151   3.978  14.510  0.00  0.00    +0.000 A 
ATOM     20  C   UNL     1       6.986   5.008  14.989  0.00  0.00    +0.000 A 
ATOM     21  C   UNL     1       6.835   5.453  16.325  0.00  0.00    +0.000 A 
ATOM     22  C   UNL     1       5.884   4.858  17.163  0.00  0.00    +0.000 A 
BRANCH  19  23
ATOM     23  O   UNL     1       6.334   3.532  13.227  0.00  0.00    +0.000 OA
ATOM     24  C   UNL     1       5.195   3.362  12.392  0.00  0.00    +0.000 C 
ENDBRANCH  19  23
BRANCH  20  25
ATOM     25  O   UNL     1       7.966   5.677  14.295  0.00  0.00    +0.000 OA
ATOM     26  C   UNL     1       8.148   5.447  12.909  0.00  0.00    +0.000 C 
ENDBRANCH  20  25
BRANCH  21  27
ATOM     27  O   UNL     1       7.656   6.487  16.715  0.00  0.00    +0.000 OA
ATOM     28  C   UNL     1       7.717   6.803  18.100  0.00  0.00    +0.000 C 
ENDBRANCH  21  27
ENDBRANCH  15  17
ENDBRANCH   2  15
TORSDOF 9
ENDMDL
MODEL 6
REMARK VINA RESULT:      -6.8      3.597      9.310
REMARK  Name = 
REMARK  13 active torsions:
REMARK  status: ('A' for Active; 'I' for Inactive)
REMARK    1  A    between atoms: C_1  and  O_2
REMARK    2  A    between atoms: O_2  and  C_3
REMARK    3  A    between atoms: C_6  and  C_7
REMARK    4  A    between atoms: C_8  and  C_9
REMARK    5  A    between atoms: C_8  and  S_11
REMARK    6  A    between atoms: S_11  and  C_13
REMARK    7  A    between atoms: C_15  and  O_16
REMARK    8  A    between atoms: O_16  and  C_17
REMARK    9  A    between atoms: C_18  and  O_19
REMARK   10  A    between atoms: O_19  and  C_20
REMARK   11  A    between atoms: C_21  and  O_22
REMARK   12  A    between atoms: O_22  and  C_23
REMARK   13  A    between atoms: C_26  and  O_27
REMARK                            x       y       z     vdW  Elec       q    Type
REMARK                         _______ _______ _______ _____ _____    ______ ____
ROOT
ATOM      1  C   UNL     1       2.305   7.895  18.093  0.00  0.00    +0.000 C 
ATOM      2  C   UNL     1       1.695   8.651  19.026  0.00  0.00    +0.000 C 
ENDROOT
BRANCH   1   6
ATOM      3  C   UNL     1       3.836   3.885  18.588  0.00  0.00    +0.000 A 
ATOM      4  C   UNL     1       2.521   4.102  18.152  0.00  0.00    +0.000 A 
ATOM      5  C   UNL     1       2.005   5.401  18.002  0.00  0.00    +0.000 A 
ATOM      6  C   UNL     1       2.811   6.514  18.265  0.00  0.00    +0.000 A 
ATOM      7  C   UNL     1       4.148   6.287  18.604  0.00  0.00    +0.000 A 
ATOM      8  C   UNL     1       4.636   5.000  18.831  0.00  0.00    +0.000 A 
BRANCH   3  10
ATOM      9  C   UNL     1       4.302   2.057  20.050  0.00  0.00    +0.000 C 
ATOM     10  O   UNL     1       4.170   2.565  18.726  0.00  0.00    +0.000 OA
ENDBRANCH   3  10
BRANCH   8  11
ATOM     11  O   UNL     1       5.915   4.900  19.306  0.00  0.00    +0.000 OA
ATOM     12  H   UNL     1       5.914   5.176  20.239  0.00  0.00    +0.000 HD
ENDBRANCH   8  11
ENDBRANCH   1   6
BRANCH   2  13
ATOM     13  C   UNL     1       1.382   8.208  20.350  0.00  0.00    +0.000 C 
ATOM     14  N   UNL     1       1.141   7.809  21.413  0.00  0.00    +0.000 NA
ENDBRANCH   2  13
BRANCH   2  15
ATOM     15  S   UNL     1       1.483  10.411  18.738  0.00  0.00    +0.000 S 
ATOM     16  O   UNL     1       2.134  10.743  17.348  0.00  0.00    +0.000 OA
BRANCH  15  17
ATOM     17  C   UNL     1      -0.304  10.651  18.568  0.00  0.00    +0.000 A 
ATOM     18  C   UNL     1      -0.988  11.585  19.350  0.00  0.00    +0.000 A 
ATOM     19  C   UNL     1      -2.358  11.838  19.163  0.00  0.00    +0.000 A 
ATOM     20  C   UNL     1      -3.037  11.206  18.101  0.00  0.00    +0.000 A 
ATOM     21  C   UNL     1      -2.336  10.288  17.283  0.00  0.00    +0.000 A 
ATOM     22  C   UNL     1      -0.991   9.998  17.541  0.00  0.00    +0.000 A 
BRANCH  19  23
ATOM     23  O   UNL     1      -3.060  12.695  19.969  0.00  0.00    +0.000 OA
ATOM     24  C   UNL     1      -2.382  13.805  20.544  0.00  0.00    +0.000 C 
ENDBRANCH  19  23
BRANCH  20  25
ATOM     25  O   UNL     1      -4.351  11.379  17.732  0.00  0.00    +0.000 OA
ATOM     26  C   UNL     1      -5.389  10.739  18.454  0.00  0.00    +0.000 C 
ENDBRANCH  20  25
BRANCH  21  27
ATOM     27  O   UNL     1      -3.049   9.737  16.242  0.00  0.00    +0.000 OA
ATOM     28  C   UNL     1      -2.868  10.289  14.944  0.00  0.00    +0.000 C 
ENDBRANCH  21  27
ENDBRANCH  15  17
ENDBRANCH   2  15
TORSDOF 9
ENDMDL
MODEL 7
REMARK VINA RESULT:      -6.8      0.315      2.471
REMARK  Name = 
REMARK  13 active torsions:
REMARK  status: ('A' for Active; 'I' for Inactive)
REMARK    1  A    between atoms: C_1  and  O_2
REMARK    2  A    between atoms: O_2  and  C_3
REMARK    3  A    between atoms: C_6  and  C_7
REMARK    4  A    between atoms: C_8  and  C_9
REMARK    5  A    between atoms: C_8  and  S_11
REMARK    6  A    between atoms: S_11  and  C_13
REMARK    7  A    between atoms: C_15  and  O_16
REMARK    8  A    between atoms: O_16  and  C_17
REMARK    9  A    between atoms: C_18  and  O_19
REMARK   10  A    between atoms: O_19  and  C_20
REMARK   11  A    between atoms: C_21  and  O_22
REMARK   12  A    between atoms: O_22  and  C_23
REMARK   13  A    between atoms: C_26  and  O_27
REMARK                            x       y       z     vdW  Elec       q    Type
REMARK                         _______ _______ _______ _____ _____    ______ ____
ROOT
ATOM      1  C   UNL     1       3.263   5.870  19.415  0.00  0.00    +0.000 C 
ATOM      2  C   UNL     1       2.983   4.768  18.693  0.00  0.00    +0.000 C 
ENDROOT
BRANCH   1   6
ATOM      3  C   UNL     1       0.944   9.512  19.585  0.00  0.00    +0.000 A 
ATOM      4  C   UNL     1       1.009   8.650  20.688  0.00  0.00    +0.000 A 
ATOM      5  C   UNL     1       1.746   7.455  20.642  0.00  0.00    +0.000 A 
ATOM      6  C   UNL     1       2.457   7.110  19.488  0.00  0.00    +0.000 A 
ATOM      7  C   UNL     1       2.465   8.023  18.428  0.00  0.00    +0.000 A 
ATOM      8  C   UNL     1       1.669   9.168  18.445  0.00  0.00    +0.000 A 
BRANCH   3  10
ATOM      9  C   UNL     1       0.304  11.330  20.992  0.00  0.00    +0.000 C 
ATOM     10  O   UNL     1       0.149  10.609  19.775  0.00  0.00    +0.000 OA
ENDBRANCH   3  10
BRANCH   8  11
ATOM     11  O   UNL     1       1.635   9.912  17.298  0.00  0.00    +0.000 OA
ATOM     12  H   UNL     1       2.521   9.891  16.896  0.00  0.00    +0.000 HD
ENDBRANCH   8  11
ENDBRANCH   1   6
BRANCH   2  13
ATOM     13  C   UNL     1       1.801   4.596  17.905  0.00  0.00    +0.000 C 
ATOM     14  N   UNL     1       0.862   4.476  17.233  0.00  0.00    +0.000 NA
ENDBRANCH   2  13
BRANCH   2  15
ATOM     15  S   UNL     1       4.252   3.522  18.453  0.00  0.00    +0.000 S 
ATOM     16  O   UNL     1       3.550   2.236  17.887  0.00  0.00    +0.000 OA
BRANCH  15  17
ATOM     17  C   UNL     1       5.317   4.176  17.141  0.00  0.00    +0.000 A 
ATOM     18  C   UNL     1       6.222   5.211  17.391  0.00  0.00    +0.000 A 
ATOM     19  C   UNL     1       7.112   5.664  16.401  0.00  0.00    +0.000 A 
ATOM     20  C   UNL     1       7.158   4.998  15.159  0.00  0.00    +0.000 A 
ATOM     21  C   UNL     1       6.268   3.923  14.918  0.00  0.00    +0.000 A 
ATOM     22  C   UNL     1       5.341   3.544  15.895  0.00  0.00    +0.000 A 
BRANCH  19  23
ATOM     23  O   UNL     1       7.952   6.725  16.605  0.00  0.00    +0.000 OA
ATOM     24  C   UNL     1       7.567   7.738  17.526  0.00  0.00    +0.000 C 
ENDBRANCH  19  23
BRANCH  20  25
ATOM     25  O   UNL     1       8.000   5.260  14.104  0.00  0.00    +0.000 OA
ATOM     26  C   UNL     1       7.516   5.918  12.946  0.00  0.00    +0.000 C 
ENDBRANCH  20  25
BRANCH  21  27
ATOM     27  O   UNL     1       6.394   3.293  13.700  0.00  0.00    +0.000 OA
ATOM     28  C   UNL     1       5.340   3.446  12.759  0.00  0.00    +0.000 C 
ENDBRANCH  21  27
ENDBRANCH  15  17
ENDBRANCH   2  15
TORSDOF 9
ENDMDL
MODEL 8
REMARK VINA RESULT:      -6.7      3.771      9.244
REMARK  Name = 
REMARK  13 active torsions:
REMARK  status: ('A' for Active; 'I' for Inactive)
REMARK    1  A    between atoms: C_1  and  O_2
REMARK    2  A    between atoms: O_2  and  C_3
REMARK    3  A    between atoms: C_6  and  C_7
REMARK    4  A    between atoms: C_8  and  C_9
REMARK    5  A    between atoms: C_8  and  S_11
REMARK    6  A    between atoms: S_11  and  C_13
REMARK    7  A    between atoms: C_15  and  O_16
REMARK    8  A    between atoms: O_16  and  C_17
REMARK    9  A    between atoms: C_18  and  O_19
REMARK   10  A    between atoms: O_19  and  C_20
REMARK   11  A    between atoms: C_21  and  O_22
REMARK   12  A    between atoms: O_22  and  C_23
REMARK   13  A    between atoms: C_26  and  O_27
REMARK                            x       y       z     vdW  Elec       q    Type
REMARK                         _______ _______ _______ _____ _____    ______ ____
ROOT
ATOM      1  C   UNL     1       1.935   8.620  18.068  0.00  0.00    +0.000 C 
ATOM      2  C   UNL     1       1.434   9.206  19.173  0.00  0.00    +0.000 C 
ENDROOT
BRANCH   1   6
ATOM      3  C   UNL     1       3.540   4.617  17.801  0.00  0.00    +0.000 A 
ATOM      4  C   UNL     1       4.391   5.728  17.883  0.00  0.00    +0.000 A 
ATOM      5  C   UNL     1       3.883   7.036  17.954  0.00  0.00    +0.000 A 
ATOM      6  C   UNL     1       2.502   7.256  17.969  0.00  0.00    +0.000 A 
ATOM      7  C   UNL     1       1.662   6.138  17.986  0.00  0.00    +0.000 A 
ATOM      8  C   UNL     1       2.165   4.845  17.834  0.00  0.00    +0.000 A 
BRANCH   3  10
ATOM      9  C   UNL     1       4.241   2.591  18.849  0.00  0.00    +0.000 C 
ATOM     10  O   UNL     1       4.189   3.419  17.692  0.00  0.00    +0.000 OA
ENDBRANCH   3  10
BRANCH   8  11
ATOM     11  O   UNL     1       1.248   3.838  17.711  0.00  0.00    +0.000 OA
ATOM     12  H   UNL     1       1.045   3.726  16.765  0.00  0.00    +0.000 HD
ENDBRANCH   8  11
ENDBRANCH   1   6
BRANCH   2  13
ATOM     13  C   UNL     1       1.317   8.566  20.447  0.00  0.00    +0.000 C 
ATOM     14  N   UNL     1       1.256   8.066  21.493  0.00  0.00    +0.000 NA
ENDBRANCH   2  13
BRANCH   2  15
ATOM     15  S   UNL     1       1.131  10.976  19.175  0.00  0.00    +0.000 S 
ATOM     16  O   UNL     1       1.974  11.601  18.007  0.00  0.00    +0.000 OA
BRANCH  15  17
ATOM     17  C   UNL     1      -0.617  11.158  18.735  0.00  0.00    +0.000 A 
ATOM     18  C   UNL     1      -1.213  10.332  17.778  0.00  0.00    +0.000 A 
ATOM     19  C   UNL     1      -2.588  10.410  17.494  0.00  0.00    +0.000 A 
ATOM     20  C   UNL     1      -3.402  11.272  18.258  0.00  0.00    +0.000 A 
ATOM     21  C   UNL     1      -2.805  12.080  19.256  0.00  0.00    +0.000 A 
ATOM     22  C   UNL     1      -1.422  12.038  19.463  0.00  0.00    +0.000 A 
BRANCH  19  23
ATOM     23  O   UNL     1      -3.174   9.663  16.507  0.00  0.00    +0.000 OA
ATOM     24  C   UNL     1      -2.949  10.024  15.150  0.00  0.00    +0.000 C 
ENDBRANCH  19  23
BRANCH  20  25
ATOM     25  O   UNL     1      -4.764  11.431  18.164  0.00  0.00    +0.000 OA
ATOM     26  C   UNL     1      -5.331  12.133  17.071  0.00  0.00    +0.000 C 
ENDBRANCH  20  25
BRANCH  21  27
ATOM     27  O   UNL     1      -3.663  12.868  19.990  0.00  0.00    +0.000 OA
ATOM     28  C   UNL     1      -3.698  12.683  21.399  0.00  0.00    +0.000 C 
ENDBRANCH  21  27
ENDBRANCH  15  17
ENDBRANCH   2  15
TORSDOF 9
ENDMDL
MODEL 9
REMARK VINA RESULT:      -6.7      1.227      1.716
REMARK  Name = 
REMARK  13 active torsions:
REMARK  status: ('A' for Active; 'I' for Inactive)
REMARK    1  A    between atoms: C_1  and  O_2
REMARK    2  A    between atoms: O_2  and  C_3
REMARK    3  A    between atoms: C_6  and  C_7
REMARK    4  A    between atoms: C_8  and  C_9
REMARK    5  A    between atoms: C_8  and  S_11
REMARK    6  A    between atoms: S_11  and  C_13
REMARK    7  A    between atoms: C_15  and  O_16
REMARK    8  A    between atoms: O_16  and  C_17
REMARK    9  A    between atoms: C_18  and  O_19
REMARK   10  A    between atoms: O_19  and  C_20
REMARK   11  A    between atoms: C_21  and  O_22
REMARK   12  A    between atoms: O_22  and  C_23
REMARK   13  A    between atoms: C_26  and  O_27
REMARK                            x       y       z     vdW  Elec       q    Type
REMARK                         _______ _______ _______ _____ _____    ______ ____
ROOT
ATOM      1  C   UNL     1       3.037   6.128  18.060  0.00  0.00    +0.000 C 
ATOM      2  C   UNL     1       3.151   4.973  18.744  0.00  0.00    +0.000 C 
ENDROOT
BRANCH   1   6
ATOM      3  C   UNL     1       1.116   9.732  19.472  0.00  0.00    +0.000 A 
ATOM      4  C   UNL     1       1.421   9.566  18.114  0.00  0.00    +0.000 A 
ATOM      5  C   UNL     1       2.059   8.406  17.643  0.00  0.00    +0.000 A 
ATOM      6  C   UNL     1       2.386   7.373  18.528  0.00  0.00    +0.000 A 
ATOM      7  C   UNL     1       1.991   7.508  19.863  0.00  0.00    +0.000 A 
ATOM      8  C   UNL     1       1.430   8.691  20.343  0.00  0.00    +0.000 A 
BRANCH   3  10
ATOM      9  C   UNL     1       1.392  11.977  20.235  0.00  0.00    +0.000 C 
ATOM     10  O   UNL     1       0.538  10.935  19.774  0.00  0.00    +0.000 OA
ENDBRANCH   3  10
BRANCH   8  11
ATOM     11  O   UNL     1       1.223   8.771  21.692  0.00  0.00    +0.000 OA
ATOM     12  H   UNL     1       0.273   8.638  21.862  0.00  0.00    +0.000 HD
ENDBRANCH   8  11
ENDBRANCH   1   6
BRANCH   2  13
ATOM     13  C   UNL     1       2.698   4.779  20.087  0.00  0.00    +0.000 C 
ATOM     14  N   UNL     1       2.323   4.663  21.179  0.00  0.00    +0.000 NA
ENDBRANCH   2  13
BRANCH   2  15
ATOM     15  S   UNL     1       3.647   3.480  17.879  0.00  0.00    +0.000 S 
ATOM     16  O   UNL     1       2.444   3.037  16.973  0.00  0.00    +0.000 OA
BRANCH  15  17
ATOM     17  C   UNL     1       4.991   3.994  16.778  0.00  0.00    +0.000 A 
ATOM     18  C   UNL     1       5.040   3.567  15.448  0.00  0.00    +0.000 A 
ATOM     19  C   UNL     1       6.031   4.031  14.564  0.00  0.00    +0.000 A 
ATOM     20  C   UNL     1       6.937   5.019  15.002  0.00  0.00    +0.000 A 
ATOM     21  C   UNL     1       6.863   5.481  16.338  0.00  0.00    +0.000 A 
ATOM     22  C   UNL     1       5.915   4.945  17.217  0.00  0.00    +0.000 A 
BRANCH  19  23
ATOM     23  O   UNL     1       6.140   3.567  13.280  0.00  0.00    +0.000 OA
ATOM     24  C   UNL     1       4.966   3.480  12.481  0.00  0.00    +0.000 C 
ENDBRANCH  19  23
BRANCH  20  25
ATOM     25  O   UNL     1       7.923   5.630  14.263  0.00  0.00    +0.000 OA
ATOM     26  C   UNL     1       8.064   5.349  12.881  0.00  0.00    +0.000 C 
ENDBRANCH  20  25
BRANCH  21  27
ATOM     27  O   UNL     1       7.751   6.473  16.686  0.00  0.00    +0.000 OA
ATOM     28  C   UNL     1       7.479   7.231  17.858  0.00  0.00    +0.000 C 
ENDBRANCH  21  27
ENDBRANCH  15  17
ENDBRANCH   2  15
TORSDOF 9
ENDMDL
