MODEL 1
REMARK VINA RESULT:      -8.2      0.000      0.000
REMARK  Name = 
REMARK  6 active torsions:
REMARK  status: ('A' for Active; 'I' for Inactive)
REMARK    1  A    between atoms: C_1  and  C_2
REMARK    2  A    between atoms: N_4  and  C_5
REMARK    3  A    between atoms: C_5  and  C_6
REMARK    4  A    between atoms: C_10  and  C_11
REMARK    5  A    between atoms: N_24  and  C_25
REMARK    6  A    between atoms: C_28  and  C_29
REMARK                            x       y       z     vdW  Elec       q    Type
REMARK                         _______ _______ _______ _____ _____    ______ ____
ROOT
ATOM      1  C   UNL     1      -0.150  14.342  19.936  0.00  0.00    +0.000 C 
ENDROOT
BRANCH   1   5
ATOM      2  C   UNL     1      -0.324  10.440  22.186  0.00  0.00    +0.000 C 
ATOM      3  C   UNL     1       0.751  10.805  21.161  0.00  0.00    +0.000 C 
ATOM      4  C   UNL     1       0.824  12.338  20.928  0.00  0.00    +0.000 C 
ATOM      5  N   UNL     1      -0.341  12.909  20.207  0.00  0.00    +0.000 NA
ATOM      6  C   UNL     1      -0.540  12.178  18.934  0.00  0.00    +0.000 C 
ATOM      7  C   UNL     1      -0.635  10.646  19.096  0.00  0.00    +0.000 C 
ATOM      8  N   UNL     1       0.507  10.138  19.870  0.00  0.00    +0.000 N 
BRANCH   8   9
ATOM      9  C   UNL     1       1.308   9.120  19.403  0.00  0.00    +0.000 A 
ATOM     10  C   UNL     1       1.835   9.145  18.107  0.00  0.00    +0.000 A 
ATOM     11  C   UNL     1       2.574   8.077  17.590  0.00  0.00    +0.000 A 
ATOM     12  C   UNL     1       2.828   6.948  18.373  0.00  0.00    +0.000 A 
ATOM     13  C   UNL     1       2.358   6.930  19.692  0.00  0.00    +0.000 A 
ATOM     14  C   UNL     1       1.619   8.005  20.194  0.00  0.00    +0.000 A 
BRANCH  12  15
ATOM     15  C   UNL     1       3.579   5.772  17.813  0.00  0.00    +0.000 C 
ATOM     16  F   UNL     1       4.430   5.200  18.711  0.00  0.00    +0.000 F 
ATOM     17  F   UNL     1       2.752   4.775  17.397  0.00  0.00    +0.000 F 
ATOM     18  F   UNL     1       4.344   6.103  16.737  0.00  0.00    +0.000 F 
ENDBRANCH  12  15
ENDBRANCH   8   9
ENDBRANCH   1   5
BRANCH   1  19
ATOM     19  C   UNL     1      -0.019  15.109  21.214  0.00  0.00    +0.000 A 
ATOM     20  C   UNL     1       1.085  15.833  21.619  0.00  0.00    +0.000 A 
ATOM     21  N   UNL     1       0.823  16.260  22.881  0.00  0.00    +0.000 N 
ATOM     22  N   UNL     1      -0.398  15.928  23.314  0.00  0.00    +0.000 NA
ATOM     23  C   UNL     1      -0.950  15.242  22.298  0.00  0.00    +0.000 A 
ATOM     24  H   UNL     1       1.430  16.778  23.508  0.00  0.00    +0.000 HD
BRANCH  23  25
ATOM     25  C   UNL     1      -2.326  14.743  22.403  0.00  0.00    +0.000 A 
ATOM     26  C   UNL     1      -3.351  15.256  21.594  0.00  0.00    +0.000 A 
ATOM     27  C   UNL     1      -4.661  14.808  21.705  0.00  0.00    +0.000 A 
ATOM     28  C   UNL     1      -4.955  13.855  22.668  0.00  0.00    +0.000 A 
ATOM     29  C   UNL     1      -3.977  13.344  23.510  0.00  0.00    +0.000 A 
ATOM     30  C   UNL     1      -2.655  13.771  23.360  0.00  0.00    +0.000 A 
ATOM     31  C   UNL     1      -4.358  12.320  24.517  0.00  0.00    +0.000 C 
ATOM     32  N   UNL     1      -5.764  12.333  24.785  0.00  0.00    +0.000 N 
ATOM     33  C   UNL     1      -6.705  12.700  23.866  0.00  0.00    +0.000 C 
ATOM     34  O   UNL     1      -7.882  12.405  24.027  0.00  0.00    +0.000 OA
ATOM     35  O   UNL     1      -6.287  13.441  22.763  0.00  0.00    +0.000 OA
ATOM     36  H   UNL     1      -6.134  11.747  25.520  0.00  0.00    +0.000 HD
ENDBRANCH  23  25
ENDBRANCH   1  19
TORSDOF 5
ENDMDL
MODEL 2
REMARK VINA RESULT:      -8.2      6.732     11.474
REMARK  Name = 
REMARK  6 active torsions:
REMARK  status: ('A' for Active; 'I' for Inactive)
REMARK    1  A    between atoms: C_1  and  C_2
REMARK    2  A    between atoms: N_4  and  C_5
REMARK    3  A    between atoms: C_5  and  C_6
REMARK    4  A    between atoms: C_10  and  C_11
REMARK    5  A    between atoms: N_24  and  C_25
REMARK    6  A    between atoms: C_28  and  C_29
REMARK                            x       y       z     vdW  Elec       q    Type
REMARK                         _______ _______ _______ _____ _____    ______ ____
ROOT
ATOM      1  C   UNL     1       2.606   6.643  20.215  0.00  0.00    +0.000 C 
ENDROOT
BRANCH   1   5
ATOM      2  C   UNL     1       0.001   9.079  17.458  0.00  0.00    +0.000 C 
ATOM      3  C   UNL     1       1.332   9.556  18.044  0.00  0.00    +0.000 C 
ATOM      4  C   UNL     1       2.199   8.368  18.539  0.00  0.00    +0.000 C 
ATOM      5  N   UNL     1       1.680   7.687  19.752  0.00  0.00    +0.000 NA
ATOM      6  C   UNL     1       1.469   8.686  20.825  0.00  0.00    +0.000 C 
ATOM      7  C   UNL     1       0.601   9.890  20.403  0.00  0.00    +0.000 C 
ATOM      8  N   UNL     1       1.118  10.489  19.164  0.00  0.00    +0.000 N 
BRANCH   8   9
ATOM      9  C   UNL     1       1.405  11.832  19.070  0.00  0.00    +0.000 A 
ATOM     10  C   UNL     1       2.398  12.305  18.203  0.00  0.00    +0.000 A 
ATOM     11  C   UNL     1       2.761  13.654  18.163  0.00  0.00    +0.000 A 
ATOM     12  C   UNL     1       2.118  14.584  18.985  0.00  0.00    +0.000 A 
ATOM     13  C   UNL     1       1.083  14.139  19.816  0.00  0.00    +0.000 A 
ATOM     14  C   UNL     1       0.732  12.786  19.845  0.00  0.00    +0.000 A 
BRANCH  12  15
ATOM     15  C   UNL     1       2.532  16.029  18.988  0.00  0.00    +0.000 C 
ATOM     16  F   UNL     1       2.070  16.724  17.909  0.00  0.00    +0.000 F 
ATOM     17  F   UNL     1       2.082  16.699  20.083  0.00  0.00    +0.000 F 
ATOM     18  F   UNL     1       3.885  16.187  18.978  0.00  0.00    +0.000 F 
ENDBRANCH  12  15
ENDBRANCH   8   9
ENDBRANCH   1   5
BRANCH   1  19
ATOM     19  C   UNL     1       2.213   5.306  19.668  0.00  0.00    +0.000 A 
ATOM     20  C   UNL     1       1.125   4.554  20.066  0.00  0.00    +0.000 A 
ATOM     21  N   UNL     1       1.215   3.371  19.405  0.00  0.00    +0.000 N 
ATOM     22  N   UNL     1       2.244   3.312  18.553  0.00  0.00    +0.000 NA
ATOM     23  C   UNL     1       2.861   4.500  18.673  0.00  0.00    +0.000 A 
ATOM     24  H   UNL     1       0.614   2.557  19.488  0.00  0.00    +0.000 HD
BRANCH  23  25
ATOM     25  C   UNL     1       4.032   4.814  17.847  0.00  0.00    +0.000 A 
ATOM     26  C   UNL     1       4.867   5.900  18.148  0.00  0.00    +0.000 A 
ATOM     27  C   UNL     1       5.963   6.219  17.356  0.00  0.00    +0.000 A 
ATOM     28  C   UNL     1       6.205   5.458  16.223  0.00  0.00    +0.000 A 
ATOM     29  C   UNL     1       5.385   4.394  15.872  0.00  0.00    +0.000 A 
ATOM     30  C   UNL     1       4.311   4.056  16.699  0.00  0.00    +0.000 A 
ATOM     31  C   UNL     1       5.703   3.615  14.647  0.00  0.00    +0.000 C 
ATOM     32  N   UNL     1       6.545   4.348  13.752  0.00  0.00    +0.000 N 
ATOM     33  C   UNL     1       7.453   5.284  14.164  0.00  0.00    +0.000 C 
ATOM     34  O   UNL     1       8.350   5.651  13.418  0.00  0.00    +0.000 OA
ATOM     35  O   UNL     1       7.305   5.819  15.440  0.00  0.00    +0.000 OA
ATOM     36  H   UNL     1       6.757   3.964  12.842  0.00  0.00    +0.000 HD
ENDBRANCH  23  25
ENDBRANCH   1  19
TORSDOF 5
ENDMDL
MODEL 3
REMARK VINA RESULT:      -8.1      6.772     11.608
REMARK  Name = 
REMARK  6 active torsions:
REMARK  status: ('A' for Active; 'I' for Inactive)
REMARK    1  A    between atoms: C_1  and  C_2
REMARK    2  A    between atoms: N_4  and  C_5
REMARK    3  A    between atoms: C_5  and  C_6
REMARK    4  A    between atoms: C_10  and  C_11
REMARK    5  A    between atoms: N_24  and  C_25
REMARK    6  A    between atoms: C_28  and  C_29
REMARK                            x       y       z     vdW  Elec       q    Type
REMARK                         _______ _______ _______ _____ _____    ______ ____
ROOT
ATOM      1  C   UNL     1       2.646   6.492  20.099  0.00  0.00    +0.000 C 
ENDROOT
BRANCH   1   5
ATOM      2  C   UNL     1       0.019   9.157  17.586  0.00  0.00    +0.000 C 
ATOM      3  C   UNL     1       1.327   9.598  18.246  0.00  0.00    +0.000 C 
ATOM      4  C   UNL     1       2.218   8.383  18.620  0.00  0.00    +0.000 C 
ATOM      5  N   UNL     1       1.699   7.558  19.739  0.00  0.00    +0.000 NA
ATOM      6  C   UNL     1       1.446   8.425  20.914  0.00  0.00    +0.000 C 
ATOM      7  C   UNL     1       0.552   9.647  20.614  0.00  0.00    +0.000 C 
ATOM      8  N   UNL     1       1.072  10.394  19.459  0.00  0.00    +0.000 N 
BRANCH   8   9
ATOM      9  C   UNL     1       1.325  11.746  19.521  0.00  0.00    +0.000 A 
ATOM     10  C   UNL     1       1.095  12.477  20.693  0.00  0.00    +0.000 A 
ATOM     11  C   UNL     1       1.262  13.863  20.743  0.00  0.00    +0.000 A 
ATOM     12  C   UNL     1       1.690  14.565  19.613  0.00  0.00    +0.000 A 
ATOM     13  C   UNL     1       1.981  13.844  18.448  0.00  0.00    +0.000 A 
ATOM     14  C   UNL     1       1.808  12.457  18.414  0.00  0.00    +0.000 A 
BRANCH  12  15
ATOM     15  C   UNL     1       1.827  16.062  19.638  0.00  0.00    +0.000 C 
ATOM     16  F   UNL     1       0.663  16.704  19.943  0.00  0.00    +0.000 F 
ATOM     17  F   UNL     1       2.737  16.487  20.556  0.00  0.00    +0.000 F 
ATOM     18  F   UNL     1       2.229  16.573  18.442  0.00  0.00    +0.000 F 
ENDBRANCH  12  15
ENDBRANCH   8   9
ENDBRANCH   1   5
BRANCH   1  19
ATOM     19  C   UNL     1       2.244   5.194  19.471  0.00  0.00    +0.000 A 
ATOM     20  C   UNL     1       1.140   4.436  19.806  0.00  0.00    +0.000 A 
ATOM     21  N   UNL     1       1.226   3.291  19.081  0.00  0.00    +0.000 N 
ATOM     22  N   UNL     1       2.268   3.266  18.244  0.00  0.00    +0.000 NA
ATOM     23  C   UNL     1       2.899   4.437  18.442  0.00  0.00    +0.000 A 
ATOM     24  H   UNL     1       0.613   2.483  19.107  0.00  0.00    +0.000 HD
BRANCH  23  25
ATOM     25  C   UNL     1       4.088   4.780  17.655  0.00  0.00    +0.000 A 
ATOM     26  C   UNL     1       4.898   5.873  17.997  0.00  0.00    +0.000 A 
ATOM     27  C   UNL     1       6.012   6.221  17.242  0.00  0.00    +0.000 A 
ATOM     28  C   UNL     1       6.296   5.482  16.104  0.00  0.00    +0.000 A 
ATOM     29  C   UNL     1       5.502   4.412  15.712  0.00  0.00    +0.000 A 
ATOM     30  C   UNL     1       4.410   4.046  16.504  0.00  0.00    +0.000 A 
ATOM     31  C   UNL     1       5.866   3.658  14.485  0.00  0.00    +0.000 C 
ATOM     32  N   UNL     1       6.723   4.418  13.626  0.00  0.00    +0.000 N 
ATOM     33  C   UNL     1       7.604   5.359  14.079  0.00  0.00    +0.000 C 
ATOM     34  O   UNL     1       8.517   5.751  13.364  0.00  0.00    +0.000 OA
ATOM     35  O   UNL     1       7.413   5.872  15.359  0.00  0.00    +0.000 OA
ATOM     36  H   UNL     1       6.965   4.051  12.716  0.00  0.00    +0.000 HD
ENDBRANCH  23  25
ENDBRANCH   1  19
TORSDOF 5
ENDMDL
MODEL 4
REMARK VINA RESULT:      -8.1      0.378      1.080
REMARK  Name = 
REMARK  6 active torsions:
REMARK  status: ('A' for Active; 'I' for Inactive)
REMARK    1  A    between atoms: C_1  and  C_2
REMARK    2  A    between atoms: N_4  and  C_5
REMARK    3  A    between atoms: C_5  and  C_6
REMARK    4  A    between atoms: C_10  and  C_11
REMARK    5  A    between atoms: N_24  and  C_25
REMARK    6  A    between atoms: C_28  and  C_29
REMARK                            x       y       z     vdW  Elec       q    Type
REMARK                         _______ _______ _______ _____ _____    ______ ____
ROOT
ATOM      1  C   UNL     1       0.072  14.624  20.066  0.00  0.00    +0.000 C 
ENDROOT
BRANCH   1   5
ATOM      2  C   UNL     1      -0.479  10.663  22.146  0.00  0.00    +0.000 C 
ATOM      3  C   UNL     1       0.656  10.982  21.170  0.00  0.00    +0.000 C 
ATOM      4  C   UNL     1       0.854  12.513  21.004  0.00  0.00    +0.000 C 
ATOM      5  N   UNL     1      -0.238  13.201  20.271  0.00  0.00    +0.000 NA
ATOM      6  C   UNL     1      -0.448  12.537  18.963  0.00  0.00    +0.000 C 
ATOM      7  C   UNL     1      -0.666  11.013  19.059  0.00  0.00    +0.000 C 
ATOM      8  N   UNL     1       0.406  10.387  19.847  0.00  0.00    +0.000 N 
BRANCH   8   9
ATOM      9  C   UNL     1       1.142   9.328  19.363  0.00  0.00    +0.000 A 
ATOM     10  C   UNL     1       1.447   8.225  20.170  0.00  0.00    +0.000 A 
ATOM     11  C   UNL     1       2.267   7.187  19.721  0.00  0.00    +0.000 A 
ATOM     12  C   UNL     1       2.794   7.212  18.427  0.00  0.00    +0.000 A 
ATOM     13  C   UNL     1       2.453   8.278  17.585  0.00  0.00    +0.000 A 
ATOM     14  C   UNL     1       1.632   9.310  18.051  0.00  0.00    +0.000 A 
BRANCH  12  15
ATOM     15  C   UNL     1       3.717   6.126  17.948  0.00  0.00    +0.000 C 
ATOM     16  F   UNL     1       3.093   4.927  17.771  0.00  0.00    +0.000 F 
ATOM     17  F   UNL     1       4.296   6.423  16.753  0.00  0.00    +0.000 F 
ATOM     18  F   UNL     1       4.740   5.887  18.814  0.00  0.00    +0.000 F 
ENDBRANCH  12  15
ENDBRANCH   8   9
ENDBRANCH   1   5
BRANCH   1  19
ATOM     19  C   UNL     1       0.246  15.322  21.378  0.00  0.00    +0.000 A 
ATOM     20  C   UNL     1       1.374  16.000  21.795  0.00  0.00    +0.000 A 
ATOM     21  N   UNL     1       1.146  16.368  23.083  0.00  0.00    +0.000 N 
ATOM     22  N   UNL     1      -0.073  16.041  23.525  0.00  0.00    +0.000 NA
ATOM     23  C   UNL     1      -0.661  15.419  22.487  0.00  0.00    +0.000 A 
ATOM     24  H   UNL     1       1.777  16.840  23.722  0.00  0.00    +0.000 HD
BRANCH  23  25
ATOM     25  C   UNL     1      -2.044  14.945  22.596  0.00  0.00    +0.000 A 
ATOM     26  C   UNL     1      -3.093  15.600  21.933  0.00  0.00    +0.000 A 
ATOM     27  C   UNL     1      -4.410  15.173  22.052  0.00  0.00    +0.000 A 
ATOM     28  C   UNL     1      -4.685  14.093  22.877  0.00  0.00    +0.000 A 
ATOM     29  C   UNL     1      -3.680  13.436  23.574  0.00  0.00    +0.000 A 
ATOM     30  C   UNL     1      -2.354  13.848  23.414  0.00  0.00    +0.000 A 
ATOM     31  C   UNL     1      -4.041  12.282  24.438  0.00  0.00    +0.000 C 
ATOM     32  N   UNL     1      -5.429  12.289  24.785  0.00  0.00    +0.000 N 
ATOM     33  C   UNL     1      -6.405  12.815  23.987  0.00  0.00    +0.000 C 
ATOM     34  O   UNL     1      -7.581  12.529  24.170  0.00  0.00    +0.000 OA
ATOM     35  O   UNL     1      -6.022  13.703  22.986  0.00  0.00    +0.000 OA
ATOM     36  H   UNL     1      -5.779  11.608  25.445  0.00  0.00    +0.000 HD
ENDBRANCH  23  25
ENDBRANCH   1  19
TORSDOF 5
ENDMDL
MODEL 5
REMARK VINA RESULT:      -8.1      1.815      2.405
REMARK  Name = 
REMARK  6 active torsions:
REMARK  status: ('A' for Active; 'I' for Inactive)
REMARK    1  A    between atoms: C_1  and  C_2
REMARK    2  A    between atoms: N_4  and  C_5
REMARK    3  A    between atoms: C_5  and  C_6
REMARK    4  A    between atoms: C_10  and  C_11
REMARK    5  A    between atoms: N_24  and  C_25
REMARK    6  A    between atoms: C_28  and  C_29
REMARK                            x       y       z     vdW  Elec       q    Type
REMARK                         _______ _______ _______ _____ _____    ______ ____
ROOT
ATOM      1  C   UNL     1       1.828  13.611  20.084  0.00  0.00    +0.000 C 
ENDROOT
BRANCH   1   5
ATOM      2  C   UNL     1      -0.847  10.072  19.284  0.00  0.00    +0.000 C 
ATOM      3  C   UNL     1       0.567   9.980  19.862  0.00  0.00    +0.000 C 
ATOM      4  C   UNL     1       1.031  11.336  20.457  0.00  0.00    +0.000 C 
ATOM      5  N   UNL     1       1.296  12.394  19.451  0.00  0.00    +0.000 NA
ATOM      6  C   UNL     1       2.258  11.888  18.445  0.00  0.00    +0.000 C 
ATOM      7  C   UNL     1       1.848  10.547  17.801  0.00  0.00    +0.000 C 
ATOM      8  N   UNL     1       1.535   9.552  18.838  0.00  0.00    +0.000 N 
BRANCH   8   9
ATOM      9  C   UNL     1       2.131   8.310  18.859  0.00  0.00    +0.000 A 
ATOM     10  C   UNL     1       1.929   7.425  19.925  0.00  0.00    +0.000 A 
ATOM     11  C   UNL     1       2.597   6.200  20.002  0.00  0.00    +0.000 A 
ATOM     12  C   UNL     1       3.481   5.811  18.991  0.00  0.00    +0.000 A 
ATOM     13  C   UNL     1       3.650   6.658  17.889  0.00  0.00    +0.000 A 
ATOM     14  C   UNL     1       2.976   7.881  17.827  0.00  0.00    +0.000 A 
BRANCH  12  15
ATOM     15  C   UNL     1       4.243   4.519  19.086  0.00  0.00    +0.000 C 
ATOM     16  F   UNL     1       3.698   3.635  19.970  0.00  0.00    +0.000 F 
ATOM     17  F   UNL     1       4.307   3.863  17.896  0.00  0.00    +0.000 F 
ATOM     18  F   UNL     1       5.531   4.698  19.489  0.00  0.00    +0.000 F 
ENDBRANCH  12  15
ENDBRANCH   8   9
ENDBRANCH   1   5
BRANCH   1  19
ATOM     19  C   UNL     1       1.013  14.806  19.702  0.00  0.00    +0.000 A 
ATOM     20  C   UNL     1       1.433  15.858  18.913  0.00  0.00    +0.000 A 
ATOM     21  N   UNL     1       0.428  16.772  18.925  0.00  0.00    +0.000 N 
ATOM     22  N   UNL     1      -0.649  16.372  19.608  0.00  0.00    +0.000 NA
ATOM     23  C   UNL     1      -0.329  15.153  20.076  0.00  0.00    +0.000 A 
ATOM     24  H   UNL     1       0.409  17.690  18.493  0.00  0.00    +0.000 HD
BRANCH  23  25
ATOM     25  C   UNL     1      -1.302  14.379  20.854  0.00  0.00    +0.000 A 
ATOM     26  C   UNL     1      -2.086  13.381  20.256  0.00  0.00    +0.000 A 
ATOM     27  C   UNL     1      -3.028  12.661  20.980  0.00  0.00    +0.000 A 
ATOM     28  C   UNL     1      -3.213  12.972  22.318  0.00  0.00    +0.000 A 
ATOM     29  C   UNL     1      -2.481  13.974  22.941  0.00  0.00    +0.000 A 
ATOM     30  C   UNL     1      -1.506  14.661  22.213  0.00  0.00    +0.000 A 
ATOM     31  C   UNL     1      -2.724  14.253  24.380  0.00  0.00    +0.000 C 
ATOM     32  N   UNL     1      -3.997  13.760  24.811  0.00  0.00    +0.000 N 
ATOM     33  C   UNL     1      -4.610  12.669  24.263  0.00  0.00    +0.000 C 
ATOM     34  O   UNL     1      -5.523  12.107  24.852  0.00  0.00    +0.000 OA
ATOM     35  O   UNL     1      -4.183  12.240  23.010  0.00  0.00    +0.000 OA
ATOM     36  H   UNL     1      -4.320  13.970  25.746  0.00  0.00    +0.000 HD
ENDBRANCH  23  25
ENDBRANCH   1  19
TORSDOF 5
ENDMDL
MODEL 6
REMARK VINA RESULT:      -8.0      5.926      8.394
REMARK  Name = 
REMARK  6 active torsions:
REMARK  status: ('A' for Active; 'I' for Inactive)
REMARK    1  A    between atoms: C_1  and  C_2
REMARK    2  A    between atoms: N_4  and  C_5
REMARK    3  A    between atoms: C_5  and  C_6
REMARK    4  A    between atoms: C_10  and  C_11
REMARK    5  A    between atoms: N_24  and  C_25
REMARK    6  A    between atoms: C_28  and  C_29
REMARK                            x       y       z     vdW  Elec       q    Type
REMARK                         _______ _______ _______ _____ _____    ______ ____
ROOT
ATOM      1  C   UNL     1       2.532  14.462  20.043  0.00  0.00    +0.000 C 
ENDROOT
BRANCH   1   5
ATOM      2  C   UNL     1      -0.838  11.509  19.550  0.00  0.00    +0.000 C 
ATOM      3  C   UNL     1       0.545  11.165  20.109  0.00  0.00    +0.000 C 
ATOM      4  C   UNL     1       1.297  12.433  20.595  0.00  0.00    +0.000 C 
ATOM      5  N   UNL     1       1.741  13.342  19.510  0.00  0.00    +0.000 NA
ATOM      6  C   UNL     1       2.546  12.580  18.527  0.00  0.00    +0.000 C 
ATOM      7  C   UNL     1       1.849  11.312  17.991  0.00  0.00    +0.000 C 
ATOM      8  N   UNL     1       1.371  10.477  19.102  0.00  0.00    +0.000 N 
BRANCH   8   9
ATOM      9  C   UNL     1       1.699   9.143  19.204  0.00  0.00    +0.000 A 
ATOM     10  C   UNL     1       2.238   8.442  18.119  0.00  0.00    +0.000 A 
ATOM     11  C   UNL     1       2.491   7.069  18.181  0.00  0.00    +0.000 A 
ATOM     12  C   UNL     1       2.228   6.353  19.352  0.00  0.00    +0.000 A 
ATOM     13  C   UNL     1       1.744   7.049  20.467  0.00  0.00    +0.000 A 
ATOM     14  C   UNL     1       1.495   8.423  20.388  0.00  0.00    +0.000 A 
BRANCH  12  15
ATOM     15  C   UNL     1       2.450   4.868  19.416  0.00  0.00    +0.000 C 
ATOM     16  F   UNL     1       1.305   4.145  19.254  0.00  0.00    +0.000 F 
ATOM     17  F   UNL     1       3.307   4.426  18.457  0.00  0.00    +0.000 F 
ATOM     18  F   UNL     1       2.975   4.466  20.606  0.00  0.00    +0.000 F 
ENDBRANCH  12  15
ENDBRANCH   8   9
ENDBRANCH   1   5
BRANCH   1  19
ATOM     19  C   UNL     1       2.514  15.620  19.095  0.00  0.00    +0.000 A 
ATOM     20  C   UNL     1       1.396  16.319  18.686  0.00  0.00    +0.000 A 
ATOM     21  N   UNL     1       1.818  17.199  17.741  0.00  0.00    +0.000 N 
ATOM     22  N   UNL     1       3.140  17.178  17.544  0.00  0.00    +0.000 NA
ATOM     23  C   UNL     1       3.600  16.234  18.384  0.00  0.00    +0.000 A 
ATOM     24  H   UNL     1       1.260  17.840  17.187  0.00  0.00    +0.000 HD
BRANCH  23  25
ATOM     25  C   UNL     1       5.037  15.957  18.471  0.00  0.00    +0.000 A 
ATOM     26  C   UNL     1       5.931  16.899  19.002  0.00  0.00    +0.000 A 
ATOM     27  C   UNL     1       7.297  16.655  19.064  0.00  0.00    +0.000 A 
ATOM     28  C   UNL     1       7.780  15.460  18.552  0.00  0.00    +0.000 A 
ATOM     29  C   UNL     1       6.934  14.514  17.990  0.00  0.00    +0.000 A 
ATOM     30  C   UNL     1       5.557  14.753  17.972  0.00  0.00    +0.000 A 
ATOM     31  C   UNL     1       7.515  13.252  17.464  0.00  0.00    +0.000 C 
ATOM     32  N   UNL     1       8.916  13.379  17.199  0.00  0.00    +0.000 N 
ATOM     33  C   UNL     1       9.742  14.220  17.890  0.00  0.00    +0.000 C 
ATOM     34  O   UNL     1      10.956  14.074  17.847  0.00  0.00    +0.000 OA
ATOM     35  O   UNL     1       9.161  15.257  18.615  0.00  0.00    +0.000 OA
ATOM     36  H   UNL     1       9.408  12.619  16.751  0.00  0.00    +0.000 HD
ENDBRANCH  23  25
ENDBRANCH   1  19
TORSDOF 5
ENDMDL
MODEL 7
REMARK VINA RESULT:      -8.0      6.753     11.482
REMARK  Name = 
REMARK  6 active torsions:
REMARK  status: ('A' for Active; 'I' for Inactive)
REMARK    1  A    between atoms: C_1  and  C_2
REMARK    2  A    between atoms: N_4  and  C_5
REMARK    3  A    between atoms: C_5  and  C_6
REMARK    4  A    between atoms: C_10  and  C_11
REMARK    5  A    between atoms: N_24  and  C_25
REMARK    6  A    between atoms: C_28  and  C_29
REMARK                            x       y       z     vdW  Elec       q    Type
REMARK                         _______ _______ _______ _____ _____    ______ ____
ROOT
ATOM      1  C   UNL     1       2.589   6.494  20.453  0.00  0.00    +0.000 C 
ENDROOT
BRANCH   1   5
ATOM      2  C   UNL     1       0.254   8.871  17.415  0.00  0.00    +0.000 C 
ATOM      3  C   UNL     1       1.496   9.380  18.151  0.00  0.00    +0.000 C 
ATOM      4  C   UNL     1       2.331   8.213  18.742  0.00  0.00    +0.000 C 
ATOM      5  N   UNL     1       1.694   7.515  19.886  0.00  0.00    +0.000 NA
ATOM      6  C   UNL     1       1.335   8.505  20.929  0.00  0.00    +0.000 C 
ATOM      7  C   UNL     1       0.490   9.687  20.410  0.00  0.00    +0.000 C 
ATOM      8  N   UNL     1       1.131  10.303  19.239  0.00  0.00    +0.000 N 
BRANCH   8   9
ATOM      9  C   UNL     1       1.391  11.654  19.178  0.00  0.00    +0.000 A 
ATOM     10  C   UNL     1       0.754  12.558  20.038  0.00  0.00    +0.000 A 
ATOM     11  C   UNL     1       0.941  13.938  19.927  0.00  0.00    +0.000 A 
ATOM     12  C   UNL     1       1.800  14.460  18.956  0.00  0.00    +0.000 A 
ATOM     13  C   UNL     1       2.491  13.569  18.126  0.00  0.00    +0.000 A 
ATOM     14  C   UNL     1       2.291  12.190  18.248  0.00  0.00    +0.000 A 
BRANCH  12  15
ATOM     15  C   UNL     1       1.973  15.944  18.795  0.00  0.00    +0.000 C 
ATOM     16  F   UNL     1       2.974  16.280  17.933  0.00  0.00    +0.000 F 
ATOM     17  F   UNL     1       0.853  16.551  18.317  0.00  0.00    +0.000 F 
ATOM     18  F   UNL     1       2.270  16.569  19.968  0.00  0.00    +0.000 F 
ENDBRANCH  12  15
ENDBRANCH   8   9
ENDBRANCH   1   5
BRANCH   1  19
ATOM     19  C   UNL     1       2.176   5.125  20.009  0.00  0.00    +0.000 A 
ATOM     20  C   UNL     1       1.057   4.436  20.432  0.00  0.00    +0.000 A 
ATOM     21  N   UNL     1       1.136   3.199  19.878  0.00  0.00    +0.000 N 
ATOM     22  N   UNL     1       2.189   3.043  19.068  0.00  0.00    +0.000 NA
ATOM     23  C   UNL     1       2.834   4.222  19.108  0.00  0.00    +0.000 A 
ATOM     24  H   UNL     1       0.511   2.410  20.009  0.00  0.00    +0.000 HD
BRANCH  23  25
ATOM     25  C   UNL     1       4.037   4.435  18.298  0.00  0.00    +0.000 A 
ATOM     26  C   UNL     1       5.188   5.026  18.841  0.00  0.00    +0.000 A 
ATOM     27  C   UNL     1       6.323   5.255  18.074  0.00  0.00    +0.000 A 
ATOM     28  C   UNL     1       6.292   4.919  16.729  0.00  0.00    +0.000 A 
ATOM     29  C   UNL     1       5.163   4.361  16.144  0.00  0.00    +0.000 A 
ATOM     30  C   UNL     1       4.042   4.096  16.936  0.00  0.00    +0.000 A 
ATOM     31  C   UNL     1       5.197   4.019  14.699  0.00  0.00    +0.000 C 
ATOM     32  N   UNL     1       6.231   4.727  14.007  0.00  0.00    +0.000 N 
ATOM     33  C   UNL     1       7.399   5.123  14.594  0.00  0.00    +0.000 C 
ATOM     34  O   UNL     1       8.364   5.439  13.911  0.00  0.00    +0.000 OA
ATOM     35  O   UNL     1       7.445   5.181  15.985  0.00  0.00    +0.000 OA
ATOM     36  H   UNL     1       6.297   4.652  13.001  0.00  0.00    +0.000 HD
ENDBRANCH  23  25
ENDBRANCH   1  19
TORSDOF 5
ENDMDL
MODEL 8
REMARK VINA RESULT:      -8.0      6.269      8.700
REMARK  Name = 
REMARK  6 active torsions:
REMARK  status: ('A' for Active; 'I' for Inactive)
REMARK    1  A    between atoms: C_1  and  C_2
REMARK    2  A    between atoms: N_4  and  C_5
REMARK    3  A    between atoms: C_5  and  C_6
REMARK    4  A    between atoms: C_10  and  C_11
REMARK    5  A    between atoms: N_24  and  C_25
REMARK    6  A    between atoms: C_28  and  C_29
REMARK                            x       y       z     vdW  Elec       q    Type
REMARK                         _______ _______ _______ _____ _____    ______ ____
ROOT
ATOM      1  C   UNL     1       1.905  13.126  20.425  0.00  0.00    +0.000 C 
ENDROOT
BRANCH   1   5
ATOM      2  C   UNL     1       3.481  16.069  17.396  0.00  0.00    +0.000 C 
ATOM      3  C   UNL     1       4.198  14.784  17.815  0.00  0.00    +0.000 C 
ATOM      4  C   UNL     1       3.224  13.774  18.479  0.00  0.00    +0.000 C 
ATOM      5  N   UNL     1       2.738  14.177  19.822  0.00  0.00    +0.000 NA
ATOM      6  C   UNL     1       3.897  14.467  20.699  0.00  0.00    +0.000 C 
ATOM      7  C   UNL     1       4.900  15.477  20.103  0.00  0.00    +0.000 C 
ATOM      8  N   UNL     1       5.301  15.067  18.749  0.00  0.00    +0.000 N 
BRANCH   8   9
ATOM      9  C   UNL     1       6.624  14.936  18.391  0.00  0.00    +0.000 A 
ATOM     10  C   UNL     1       7.104  13.762  17.796  0.00  0.00    +0.000 A 
ATOM     11  C   UNL     1       8.459  13.581  17.511  0.00  0.00    +0.000 A 
ATOM     12  C   UNL     1       9.383  14.590  17.795  0.00  0.00    +0.000 A 
ATOM     13  C   UNL     1       8.914  15.794  18.335  0.00  0.00    +0.000 A 
ATOM     14  C   UNL     1       7.554  15.959  18.617  0.00  0.00    +0.000 A 
BRANCH  12  15
ATOM     15  C   UNL     1      10.851  14.390  17.537  0.00  0.00    +0.000 C 
ATOM     16  F   UNL     1      11.426  15.424  16.860  0.00  0.00    +0.000 F 
ATOM     17  F   UNL     1      11.568  14.253  18.685  0.00  0.00    +0.000 F 
ATOM     18  F   UNL     1      11.106  13.276  16.797  0.00  0.00    +0.000 F 
ENDBRANCH  12  15
ENDBRANCH   8   9
ENDBRANCH   1   5
BRANCH   1  19
ATOM     19  C   UNL     1       0.723  12.824  19.557  0.00  0.00    +0.000 A 
ATOM     20  C   UNL     1      -0.267  13.715  19.194  0.00  0.00    +0.000 A 
ATOM     21  N   UNL     1      -1.196  12.998  18.511  0.00  0.00    +0.000 N 
ATOM     22  N   UNL     1      -0.862  11.715  18.341  0.00  0.00    +0.000 NA
ATOM     23  C   UNL     1       0.330  11.584  18.951  0.00  0.00    +0.000 A 
ATOM     24  H   UNL     1      -2.085  13.315  18.136  0.00  0.00    +0.000 HD
BRANCH  23  25
ATOM     25  C   UNL     1       1.033  10.298  18.934  0.00  0.00    +0.000 A 
ATOM     26  C   UNL     1       1.741   9.868  17.802  0.00  0.00    +0.000 A 
ATOM     27  C   UNL     1       2.389   8.640  17.768  0.00  0.00    +0.000 A 
ATOM     28  C   UNL     1       2.296   7.812  18.877  0.00  0.00    +0.000 A 
ATOM     29  C   UNL     1       1.579   8.185  20.006  0.00  0.00    +0.000 A 
ATOM     30  C   UNL     1       0.968   9.441  20.044  0.00  0.00    +0.000 A 
ATOM     31  C   UNL     1       1.523   7.253  21.162  0.00  0.00    +0.000 C 
ATOM     32  N   UNL     1       1.837   5.910  20.780  0.00  0.00    +0.000 N 
ATOM     33  C   UNL     1       2.676   5.594  19.749  0.00  0.00    +0.000 C 
ATOM     34  O   UNL     1       3.152   4.471  19.657  0.00  0.00    +0.000 OA
ATOM     35  O   UNL     1       2.944   6.576  18.800  0.00  0.00    +0.000 OA
ATOM     36  H   UNL     1       1.742   5.167  21.458  0.00  0.00    +0.000 HD
ENDBRANCH  23  25
ENDBRANCH   1  19
TORSDOF 5
ENDMDL
MODEL 9
REMARK VINA RESULT:      -8.0      2.115      3.257
REMARK  Name = 
REMARK  6 active torsions:
REMARK  status: ('A' for Active; 'I' for Inactive)
REMARK    1  A    between atoms: C_1  and  C_2
REMARK    2  A    between atoms: N_4  and  C_5
REMARK    3  A    between atoms: C_5  and  C_6
REMARK    4  A    between atoms: C_10  and  C_11
REMARK    5  A    between atoms: N_24  and  C_25
REMARK    6  A    between atoms: C_28  and  C_29
REMARK                            x       y       z     vdW  Elec       q    Type
REMARK                         _______ _______ _______ _____ _____    ______ ____
ROOT
ATOM      1  C   UNL     1      -0.934  10.903  19.066  0.00  0.00    +0.000 C 
ENDROOT
BRANCH   1   5
ATOM      2  C   UNL     1       3.160   9.523  17.780  0.00  0.00    +0.000 C 
ATOM      3  C   UNL     1       1.930   8.620  17.880  0.00  0.00    +0.000 C 
ATOM      4  C   UNL     1       0.613   9.442  17.875  0.00  0.00    +0.000 C 
ATOM      5  N   UNL     1       0.377  10.236  19.106  0.00  0.00    +0.000 NA
ATOM      6  C   UNL     1       0.454   9.348  20.289  0.00  0.00    +0.000 C 
ATOM      7  C   UNL     1       1.748   8.511  20.363  0.00  0.00    +0.000 C 
ATOM      8  N   UNL     1       1.971   7.794  19.099  0.00  0.00    +0.000 N 
BRANCH   8   9
ATOM      9  C   UNL     1       2.181   6.433  19.061  0.00  0.00    +0.000 A 
ATOM     10  C   UNL     1       2.857   5.830  17.993  0.00  0.00    +0.000 A 
ATOM     11  C   UNL     1       2.997   4.443  17.898  0.00  0.00    +0.000 A 
ATOM     12  C   UNL     1       2.478   3.610  18.892  0.00  0.00    +0.000 A 
ATOM     13  C   UNL     1       1.850   4.198  19.997  0.00  0.00    +0.000 A 
ATOM     14  C   UNL     1       1.716   5.587  20.077  0.00  0.00    +0.000 A 
BRANCH  12  15
ATOM     15  C   UNL     1       2.579   2.114  18.778  0.00  0.00    +0.000 C 
ATOM     16  F   UNL     1       2.383   1.656  17.509  0.00  0.00    +0.000 F 
ATOM     17  F   UNL     1       3.798   1.643  19.158  0.00  0.00    +0.000 F 
ATOM     18  F   UNL     1       1.666   1.466  19.551  0.00  0.00    +0.000 F 
ENDBRANCH  12  15
ENDBRANCH   8   9
ENDBRANCH   1   5
BRANCH   1  19
ATOM     19  C   UNL     1      -0.785  12.376  19.287  0.00  0.00    +0.000 A 
ATOM     20  C   UNL     1       0.245  13.168  18.819  0.00  0.00    +0.000 A 
ATOM     21  N   UNL     1       0.050  14.403  19.350  0.00  0.00    +0.000 N 
ATOM     22  N   UNL     1      -1.067  14.501  20.079  0.00  0.00    +0.000 NA
ATOM     23  C   UNL     1      -1.617  13.275  20.036  0.00  0.00    +0.000 A 
ATOM     24  H   UNL     1       0.639  15.225  19.262  0.00  0.00    +0.000 HD
BRANCH  23  25
ATOM     25  C   UNL     1      -2.895  13.013  20.705  0.00  0.00    +0.000 A 
ATOM     26  C   UNL     1      -4.044  12.675  19.975  0.00  0.00    +0.000 A 
ATOM     27  C   UNL     1      -5.265  12.450  20.599  0.00  0.00    +0.000 A 
ATOM     28  C   UNL     1      -5.343  12.602  21.975  0.00  0.00    +0.000 A 
ATOM     29  C   UNL     1      -4.237  12.966  22.731  0.00  0.00    +0.000 A 
ATOM     30  C   UNL     1      -3.005  13.147  22.098  0.00  0.00    +0.000 A 
ATOM     31  C   UNL     1      -4.387  13.106  24.203  0.00  0.00    +0.000 C 
ATOM     32  N   UNL     1      -5.754  13.289  24.585  0.00  0.00    +0.000 N 
ATOM     33  C   UNL     1      -6.809  12.777  23.885  0.00  0.00    +0.000 C 
ATOM     34  O   UNL     1      -7.916  12.690  24.401  0.00  0.00    +0.000 OA
ATOM     35  O   UNL     1      -6.591  12.386  22.566  0.00  0.00    +0.000 OA
ATOM     36  H   UNL     1      -5.977  13.490  25.550  0.00  0.00    +0.000 HD
ENDBRANCH  23  25
ENDBRANCH   1  19
TORSDOF 5
ENDMDL
