MODEL 1
REMARK VINA RESULT:      -7.6      0.000      0.000
REMARK  Name = 
REMARK  6 active torsions:
REMARK  status: ('A' for Active; 'I' for Inactive)
REMARK    1  A    between atoms: C_1  and  C_2
REMARK    2  A    between atoms: C_6  and  C_7
REMARK    3  A    between atoms: C_7  and  C_8
REMARK    4  A    between atoms: C_7  and  N_9
REMARK    5  A    between atoms: N_13  and  C_14
REMARK    6  A    between atoms: C_20  and  C_21
REMARK                            x       y       z     vdW  Elec       q    Type
REMARK                         _______ _______ _______ _____ _____    ______ ____
ROOT
ATOM      1  N   UNL     1      -0.952  12.868  20.707  0.00  0.00    +0.000 N 
ATOM      2  C   UNL     1      -1.273  12.088  19.636  0.00  0.00    +0.000 A 
ATOM      3  N   UNL     1      -0.334  11.141  19.266  0.00  0.00    +0.000 NA
ATOM      4  C   UNL     1      -0.540  10.407  18.208  0.00  0.00    +0.000 A 
ATOM      5  N   UNL     1       0.331   9.471  17.681  0.00  0.00    +0.000 N 
ATOM      6  N   UNL     1      -1.757  10.562  17.534  0.00  0.00    +0.000 N 
ATOM      7  N   UNL     1      -2.132   9.830  16.454  0.00  0.00    +0.000 NA
ATOM      8  C   UNL     1      -3.384  10.257  16.239  0.00  0.00    +0.000 A 
ATOM      9  C   UNL     1      -3.784  11.270  17.145  0.00  0.00    +0.000 A 
ATOM     10  C   UNL     1      -2.685  11.466  17.953  0.00  0.00    +0.000 A 
ATOM     11  N   UNL     1      -2.398  12.285  18.997  0.00  0.00    +0.000 NA
ATOM     12  H   UNL     1      -0.673  12.341  21.530  0.00  0.00    +0.000 HD
ATOM     13  H   UNL     1       0.023   9.013  16.825  0.00  0.00    +0.000 HD
ENDROOT
BRANCH   9  14
ATOM     14  C   UNL     1      -5.053  11.923  17.226  0.00  0.00    +0.000 C 
ATOM     15  C   UNL     1      -5.827  12.036  18.312  0.00  0.00    +0.000 C 
ATOM     16  N   UNL     1      -5.569  11.581  19.573  0.00  0.00    +0.000 N 
ATOM     17  C   UNL     1      -6.627  11.862  20.407  0.00  0.00    +0.000 C 
ATOM     18  O   UNL     1      -6.725  11.526  21.577  0.00  0.00    +0.000 OA
ATOM     19  N   UNL     1      -7.556  12.553  19.682  0.00  0.00    +0.000 N 
ATOM     20  C   UNL     1      -7.169  12.687  18.375  0.00  0.00    +0.000 C 
ATOM     21  O   UNL     1      -7.779  13.202  17.456  0.00  0.00    +0.000 OA
ATOM     22  H   UNL     1      -4.769  11.008  19.816  0.00  0.00    +0.000 HD
ATOM     23  H   UNL     1      -8.441  12.860  20.047  0.00  0.00    +0.000 HD
ENDBRANCH   9  14
BRANCH   5  24
ATOM     24  C   UNL     1       1.689   9.330  18.174  0.00  0.00    +0.000 C 
ATOM     25  C   UNL     1       2.037   8.222  19.124  0.00  0.00    +0.000 C 
ATOM     26  C   UNL     1       2.555   8.186  17.718  0.00  0.00    +0.000 C 
ENDBRANCH   5  24
BRANCH   1  27
ATOM     27  C   UNL     1      -1.612  14.123  21.041  0.00  0.00    +0.000 C 
ATOM     28  C   UNL     1      -0.609  15.255  20.809  0.00  0.00    +0.000 C 
BRANCH  27  34
ATOM     29  C   UNL     1      -4.575  12.309  24.681  0.00  0.00    +0.000 C 
ATOM     30  C   UNL     1      -3.549  13.297  24.213  0.00  0.00    +0.000 A 
ATOM     31  C   UNL     1      -3.095  14.321  25.041  0.00  0.00    +0.000 A 
ATOM     32  C   UNL     1      -2.159  15.213  24.541  0.00  0.00    +0.000 A 
ATOM     33  N   UNL     1      -1.648  15.160  23.290  0.00  0.00    +0.000 NA
ATOM     34  C   UNL     1      -2.089  14.154  22.487  0.00  0.00    +0.000 A 
ATOM     35  C   UNL     1      -3.037  13.218  22.916  0.00  0.00    +0.000 A 
ENDBRANCH  27  34
ENDBRANCH   1  27
TORSDOF 4
ENDMDL
MODEL 2
REMARK VINA RESULT:      -7.6      0.825      1.224
REMARK  Name = 
REMARK  6 active torsions:
REMARK  status: ('A' for Active; 'I' for Inactive)
REMARK    1  A    between atoms: C_1  and  C_2
REMARK    2  A    between atoms: C_6  and  C_7
REMARK    3  A    between atoms: C_7  and  C_8
REMARK    4  A    between atoms: C_7  and  N_9
REMARK    5  A    between atoms: N_13  and  C_14
REMARK    6  A    between atoms: C_20  and  C_21
REMARK                            x       y       z     vdW  Elec       q    Type
REMARK                         _______ _______ _______ _____ _____    ______ ____
ROOT
ATOM      1  N   UNL     1      -0.832  12.737  20.693  0.00  0.00    +0.000 N 
ATOM      2  C   UNL     1      -1.151  11.977  19.607  0.00  0.00    +0.000 A 
ATOM      3  N   UNL     1      -0.217  11.030  19.228  0.00  0.00    +0.000 NA
ATOM      4  C   UNL     1      -0.422  10.314  18.156  0.00  0.00    +0.000 A 
ATOM      5  N   UNL     1       0.446   9.381  17.619  0.00  0.00    +0.000 N 
ATOM      6  N   UNL     1      -1.634  10.488  17.478  0.00  0.00    +0.000 N 
ATOM      7  N   UNL     1      -2.008   9.777  16.384  0.00  0.00    +0.000 NA
ATOM      8  C   UNL     1      -3.256  10.216  16.169  0.00  0.00    +0.000 A 
ATOM      9  C   UNL     1      -3.654  11.217  17.089  0.00  0.00    +0.000 A 
ATOM     10  C   UNL     1      -2.558  11.392  17.907  0.00  0.00    +0.000 A 
ATOM     11  N   UNL     1      -2.271  12.192  18.965  0.00  0.00    +0.000 NA
ATOM     12  H   UNL     1      -0.560  12.195  21.508  0.00  0.00    +0.000 HD
ATOM     13  H   UNL     1       0.139   8.939  16.753  0.00  0.00    +0.000 HD
ENDROOT
BRANCH   9  14
ATOM     14  C   UNL     1      -4.919  11.877  17.174  0.00  0.00    +0.000 C 
ATOM     15  C   UNL     1      -5.857  11.694  18.112  0.00  0.00    +0.000 C 
ATOM     16  N   UNL     1      -5.803  10.865  19.195  0.00  0.00    +0.000 N 
ATOM     17  C   UNL     1      -6.981  10.933  19.905  0.00  0.00    +0.000 C 
ATOM     18  O   UNL     1      -7.264  10.263  20.886  0.00  0.00    +0.000 OA
ATOM     19  N   UNL     1      -7.781  11.857  19.296  0.00  0.00    +0.000 N 
ATOM     20  C   UNL     1      -7.190  12.362  18.168  0.00  0.00    +0.000 C 
ATOM     21  O   UNL     1      -7.645  13.160  17.370  0.00  0.00    +0.000 OA
ATOM     22  H   UNL     1      -5.053  10.206  19.369  0.00  0.00    +0.000 HD
ATOM     23  H   UNL     1      -8.712  12.083  19.599  0.00  0.00    +0.000 HD
ENDBRANCH   9  14
BRANCH   5  24
ATOM     24  C   UNL     1       1.800   9.223  18.117  0.00  0.00    +0.000 C 
ATOM     25  C   UNL     1       2.136   8.094  19.048  0.00  0.00    +0.000 C 
ATOM     26  C   UNL     1       2.662   8.082  17.644  0.00  0.00    +0.000 C 
ENDBRANCH   5  24
BRANCH   1  27
ATOM     27  C   UNL     1      -1.485  13.991  21.044  0.00  0.00    +0.000 C 
ATOM     28  C   UNL     1      -0.392  15.023  21.332  0.00  0.00    +0.000 C 
BRANCH  27  34
ATOM     29  C   UNL     1      -3.699  16.032  25.074  0.00  0.00    +0.000 C 
ATOM     30  C   UNL     1      -3.408  14.835  24.219  0.00  0.00    +0.000 A 
ATOM     31  C   UNL     1      -3.853  13.564  24.571  0.00  0.00    +0.000 A 
ATOM     32  C   UNL     1      -3.534  12.496  23.746  0.00  0.00    +0.000 A 
ATOM     33  N   UNL     1      -2.811  12.603  22.608  0.00  0.00    +0.000 NA
ATOM     34  C   UNL     1      -2.385  13.848  22.263  0.00  0.00    +0.000 A 
ATOM     35  C   UNL     1      -2.661  14.975  23.047  0.00  0.00    +0.000 A 
ENDBRANCH  27  34
ENDBRANCH   1  27
TORSDOF 4
ENDMDL
MODEL 3
REMARK VINA RESULT:      -7.4      6.788     11.313
REMARK  Name = 
REMARK  6 active torsions:
REMARK  status: ('A' for Active; 'I' for Inactive)
REMARK    1  A    between atoms: C_1  and  C_2
REMARK    2  A    between atoms: C_6  and  C_7
REMARK    3  A    between atoms: C_7  and  C_8
REMARK    4  A    between atoms: C_7  and  N_9
REMARK    5  A    between atoms: N_13  and  C_14
REMARK    6  A    between atoms: C_20  and  C_21
REMARK                            x       y       z     vdW  Elec       q    Type
REMARK                         _______ _______ _______ _____ _____    ______ ____
ROOT
ATOM      1  N   UNL     1       4.460   7.001  16.743  0.00  0.00    +0.000 N 
ATOM      2  C   UNL     1       3.568   7.390  17.698  0.00  0.00    +0.000 A 
ATOM      3  N   UNL     1       3.071   8.677  17.581  0.00  0.00    +0.000 NA
ATOM      4  C   UNL     1       2.268   9.144  18.497  0.00  0.00    +0.000 A 
ATOM      5  N   UNL     1       1.747  10.424  18.550  0.00  0.00    +0.000 N 
ATOM      6  N   UNL     1       1.880   8.279  19.527  0.00  0.00    +0.000 N 
ATOM      7  N   UNL     1       1.009   8.607  20.515  0.00  0.00    +0.000 NA
ATOM      8  C   UNL     1       0.876   7.449  21.176  0.00  0.00    +0.000 A 
ATOM      9  C   UNL     1       1.679   6.412  20.640  0.00  0.00    +0.000 A 
ATOM     10  C   UNL     1       2.345   7.000  19.585  0.00  0.00    +0.000 A 
ATOM     11  N   UNL     1       3.258   6.576  18.674  0.00  0.00    +0.000 NA
ATOM     12  H   UNL     1       4.132   7.144  15.792  0.00  0.00    +0.000 HD
ATOM     13  H   UNL     1       1.163  10.630  19.360  0.00  0.00    +0.000 HD
ENDROOT
BRANCH   9  14
ATOM     14  C   UNL     1       1.758   5.052  21.072  0.00  0.00    +0.000 C 
ATOM     15  C   UNL     1       1.859   3.969  20.292  0.00  0.00    +0.000 C 
ATOM     16  N   UNL     1       1.932   3.924  18.930  0.00  0.00    +0.000 N 
ATOM     17  C   UNL     1       1.991   2.618  18.498  0.00  0.00    +0.000 C 
ATOM     18  O   UNL     1       1.998   2.250  17.334  0.00  0.00    +0.000 OA
ATOM     19  N   UNL     1       2.008   1.816  19.603  0.00  0.00    +0.000 N 
ATOM     20  C   UNL     1       1.903   2.550  20.754  0.00  0.00    +0.000 C 
ATOM     21  O   UNL     1       1.839   2.150  21.902  0.00  0.00    +0.000 OA
ATOM     22  H   UNL     1       1.826   4.734  18.329  0.00  0.00    +0.000 HD
ATOM     23  H   UNL     1       2.025   0.811  19.569  0.00  0.00    +0.000 HD
ENDBRANCH   9  14
BRANCH   5  24
ATOM     24  C   UNL     1       2.197  11.469  17.650  0.00  0.00    +0.000 C 
ATOM     25  C   UNL     1       1.650  12.861  17.774  0.00  0.00    +0.000 C 
ATOM     26  C   UNL     1       3.075  12.585  18.150  0.00  0.00    +0.000 C 
ENDBRANCH   5  24
BRANCH   1  27
ATOM     27  C   UNL     1       5.349   5.853  16.865  0.00  0.00    +0.000 C 
ATOM     28  C   UNL     1       6.501   6.250  17.792  0.00  0.00    +0.000 C 
BRANCH  27  34
ATOM     29  C   UNL     1       4.807   3.327  12.548  0.00  0.00    +0.000 C 
ATOM     30  C   UNL     1       5.647   4.162  13.467  0.00  0.00    +0.000 A 
ATOM     31  C   UNL     1       6.974   4.461  13.169  0.00  0.00    +0.000 A 
ATOM     32  C   UNL     1       7.702   5.223  14.071  0.00  0.00    +0.000 A 
ATOM     33  N   UNL     1       7.207   5.703  15.235  0.00  0.00    +0.000 NA
ATOM     34  C   UNL     1       5.909   5.415  15.518  0.00  0.00    +0.000 A 
ATOM     35  C   UNL     1       5.111   4.647  14.662  0.00  0.00    +0.000 A 
ENDBRANCH  27  34
ENDBRANCH   1  27
TORSDOF 4
ENDMDL
MODEL 4
REMARK VINA RESULT:      -7.4      2.792      5.709
REMARK  Name = 
REMARK  6 active torsions:
REMARK  status: ('A' for Active; 'I' for Inactive)
REMARK    1  A    between atoms: C_1  and  C_2
REMARK    2  A    between atoms: C_6  and  C_7
REMARK    3  A    between atoms: C_7  and  C_8
REMARK    4  A    between atoms: C_7  and  N_9
REMARK    5  A    between atoms: N_13  and  C_14
REMARK    6  A    between atoms: C_20  and  C_21
REMARK                            x       y       z     vdW  Elec       q    Type
REMARK                         _______ _______ _______ _____ _____    ______ ____
ROOT
ATOM      1  N   UNL     1      -2.469  11.981  17.615  0.00  0.00    +0.000 N 
ATOM      2  C   UNL     1      -1.866  12.441  18.748  0.00  0.00    +0.000 A 
ATOM      3  N   UNL     1      -0.640  13.059  18.579  0.00  0.00    +0.000 NA
ATOM      4  C   UNL     1       0.029  13.462  19.624  0.00  0.00    +0.000 A 
ATOM      5  N   UNL     1       1.289  14.033  19.617  0.00  0.00    +0.000 N 
ATOM      6  N   UNL     1      -0.574  13.318  20.879  0.00  0.00    +0.000 N 
ATOM      7  N   UNL     1      -0.023  13.740  22.045  0.00  0.00    +0.000 NA
ATOM      8  C   UNL     1      -0.997  13.486  22.931  0.00  0.00    +0.000 A 
ATOM      9  C   UNL     1      -2.132  12.878  22.342  0.00  0.00    +0.000 A 
ATOM     10  C   UNL     1      -1.806  12.753  21.008  0.00  0.00    +0.000 A 
ATOM     11  N   UNL     1      -2.432  12.253  19.913  0.00  0.00    +0.000 NA
ATOM     12  H   UNL     1      -2.548  12.677  16.879  0.00  0.00    +0.000 HD
ATOM     13  H   UNL     1       1.678  14.255  20.532  0.00  0.00    +0.000 HD
ENDROOT
BRANCH   9  14
ATOM     14  C   UNL     1      -3.356  12.505  22.979  0.00  0.00    +0.000 C 
ATOM     15  C   UNL     1      -4.353  13.323  23.340  0.00  0.00    +0.000 C 
ATOM     16  N   UNL     1      -4.430  14.673  23.161  0.00  0.00    +0.000 N 
ATOM     17  C   UNL     1      -5.600  15.160  23.701  0.00  0.00    +0.000 C 
ATOM     18  O   UNL     1      -5.928  16.334  23.757  0.00  0.00    +0.000 OA
ATOM     19  N   UNL     1      -6.305  14.096  24.189  0.00  0.00    +0.000 N 
ATOM     20  C   UNL     1      -5.610  12.926  24.039  0.00  0.00    +0.000 C 
ATOM     21  O   UNL     1      -5.924  11.809  24.406  0.00  0.00    +0.000 OA
ATOM     22  H   UNL     1      -3.674  15.242  22.797  0.00  0.00    +0.000 HD
ATOM     23  H   UNL     1      -7.189  14.176  24.660  0.00  0.00    +0.000 HD
ENDBRANCH   9  14
BRANCH   5  24
ATOM     24  C   UNL     1       2.096  14.085  18.413  0.00  0.00    +0.000 C 
ATOM     25  C   UNL     1       2.866  15.327  18.072  0.00  0.00    +0.000 C 
ATOM     26  C   UNL     1       3.600  14.091  18.497  0.00  0.00    +0.000 C 
ENDBRANCH   5  24
BRANCH   1  27
ATOM     27  C   UNL     1      -3.561  11.016  17.596  0.00  0.00    +0.000 C 
ATOM     28  C   UNL     1      -3.582  10.361  16.212  0.00  0.00    +0.000 C 
BRANCH  27  34
ATOM     29  C   UNL     1      -7.553  11.649  20.592  0.00  0.00    +0.000 C 
ATOM     30  C   UNL     1      -6.838  11.929  19.304  0.00  0.00    +0.000 A 
ATOM     31  C   UNL     1      -7.426  12.689  18.297  0.00  0.00    +0.000 A 
ATOM     32  C   UNL     1      -6.720  12.896  17.121  0.00  0.00    +0.000 A 
ATOM     33  N   UNL     1      -5.483  12.404  16.881  0.00  0.00    +0.000 NA
ATOM     34  C   UNL     1      -4.909  11.669  17.870  0.00  0.00    +0.000 A 
ATOM     35  C   UNL     1      -5.560  11.411  19.082  0.00  0.00    +0.000 A 
ENDBRANCH  27  34
ENDBRANCH   1  27
TORSDOF 4
ENDMDL
MODEL 5
REMARK VINA RESULT:      -7.3      2.276      6.653
REMARK  Name = 
REMARK  6 active torsions:
REMARK  status: ('A' for Active; 'I' for Inactive)
REMARK    1  A    between atoms: C_1  and  C_2
REMARK    2  A    between atoms: C_6  and  C_7
REMARK    3  A    between atoms: C_7  and  C_8
REMARK    4  A    between atoms: C_7  and  N_9
REMARK    5  A    between atoms: N_13  and  C_14
REMARK    6  A    between atoms: C_20  and  C_21
REMARK                            x       y       z     vdW  Elec       q    Type
REMARK                         _______ _______ _______ _____ _____    ______ ____
ROOT
ATOM      1  N   UNL     1      -0.515  11.684  22.521  0.00  0.00    +0.000 N 
ATOM      2  C   UNL     1      -1.599  12.499  22.662  0.00  0.00    +0.000 A 
ATOM      3  N   UNL     1      -1.452  13.566  23.530  0.00  0.00    +0.000 NA
ATOM      4  C   UNL     1      -2.468  14.348  23.770  0.00  0.00    +0.000 A 
ATOM      5  N   UNL     1      -2.491  15.408  24.657  0.00  0.00    +0.000 N 
ATOM      6  N   UNL     1      -3.654  14.111  23.064  0.00  0.00    +0.000 N 
ATOM      7  N   UNL     1      -4.772  14.873  23.169  0.00  0.00    +0.000 NA
ATOM      8  C   UNL     1      -5.576  14.329  22.245  0.00  0.00    +0.000 A 
ATOM      9  C   UNL     1      -4.993  13.216  21.592  0.00  0.00    +0.000 A 
ATOM     10  C   UNL     1      -3.751  13.083  22.176  0.00  0.00    +0.000 A 
ATOM     11  N   UNL     1      -2.709  12.227  22.025  0.00  0.00    +0.000 NA
ATOM     12  H   UNL     1       0.344  12.177  22.296  0.00  0.00    +0.000 HD
ATOM     13  H   UNL     1      -3.385  15.890  24.747  0.00  0.00    +0.000 HD
ENDROOT
BRANCH   9  14
ATOM     14  C   UNL     1      -5.550  12.426  20.539  0.00  0.00    +0.000 C 
ATOM     15  C   UNL     1      -4.918  11.993  19.442  0.00  0.00    +0.000 C 
ATOM     16  N   UNL     1      -3.611  12.188  19.100  0.00  0.00    +0.000 N 
ATOM     17  C   UNL     1      -3.348  11.616  17.875  0.00  0.00    +0.000 C 
ATOM     18  O   UNL     1      -2.289  11.675  17.270  0.00  0.00    +0.000 OA
ATOM     19  N   UNL     1      -4.492  11.002  17.449  0.00  0.00    +0.000 N 
ATOM     20  C   UNL     1      -5.522  11.200  18.331  0.00  0.00    +0.000 C 
ATOM     21  O   UNL     1      -6.678  10.835  18.235  0.00  0.00    +0.000 OA
ATOM     22  H   UNL     1      -2.971  12.778  19.618  0.00  0.00    +0.000 HD
ATOM     23  H   UNL     1      -4.581  10.526  16.569  0.00  0.00    +0.000 HD
ENDBRANCH   9  14
BRANCH   5  24
ATOM     24  C   UNL     1      -1.395  15.660  25.574  0.00  0.00    +0.000 C 
ATOM     25  C   UNL     1      -0.325  16.651  25.220  0.00  0.00    +0.000 C 
ATOM     26  C   UNL     1      -1.300  16.968  26.314  0.00  0.00    +0.000 C 
ENDBRANCH   5  24
BRANCH   1  27
ATOM     27  C   UNL     1      -0.559  10.344  21.951  0.00  0.00    +0.000 C 
ATOM     28  C   UNL     1       0.111   9.391  22.944  0.00  0.00    +0.000 C 
BRANCH  27  34
ATOM     29  C   UNL     1       2.287   7.786  18.685  0.00  0.00    +0.000 C 
ATOM     30  C   UNL     1       1.558   9.039  19.069  0.00  0.00    +0.000 A 
ATOM     31  C   UNL     1       1.608  10.182  18.276  0.00  0.00    +0.000 A 
ATOM     32  C   UNL     1       0.927  11.314  18.698  0.00  0.00    +0.000 A 
ATOM     33  N   UNL     1       0.208  11.387  19.841  0.00  0.00    +0.000 NA
ATOM     34  C   UNL     1       0.156  10.266  20.609  0.00  0.00    +0.000 A 
ATOM     35  C   UNL     1       0.821   9.087  20.255  0.00  0.00    +0.000 A 
ENDBRANCH  27  34
ENDBRANCH   1  27
TORSDOF 4
ENDMDL
MODEL 6
REMARK VINA RESULT:      -7.2      6.438     10.458
REMARK  Name = 
REMARK  6 active torsions:
REMARK  status: ('A' for Active; 'I' for Inactive)
REMARK    1  A    between atoms: C_1  and  C_2
REMARK    2  A    between atoms: C_6  and  C_7
REMARK    3  A    between atoms: C_7  and  C_8
REMARK    4  A    between atoms: C_7  and  N_9
REMARK    5  A    between atoms: N_13  and  C_14
REMARK    6  A    between atoms: C_20  and  C_21
REMARK                            x       y       z     vdW  Elec       q    Type
REMARK                         _______ _______ _______ _____ _____    ______ ____
ROOT
ATOM      1  N   UNL     1       3.901   7.326  16.573  0.00  0.00    +0.000 N 
ATOM      2  C   UNL     1       3.137   7.660  17.651  0.00  0.00    +0.000 A 
ATOM      3  N   UNL     1       2.577   8.925  17.634  0.00  0.00    +0.000 NA
ATOM      4  C   UNL     1       1.892   9.342  18.663  0.00  0.00    +0.000 A 
ATOM      5  N   UNL     1       1.332  10.597  18.818  0.00  0.00    +0.000 N 
ATOM      6  N   UNL     1       1.688   8.443  19.717  0.00  0.00    +0.000 N 
ATOM      7  N   UNL     1       0.952   8.717  20.824  0.00  0.00    +0.000 NA
ATOM      8  C   UNL     1       0.959   7.543  21.471  0.00  0.00    +0.000 A 
ATOM      9  C   UNL     1       1.720   6.551  20.804  0.00  0.00    +0.000 A 
ATOM     10  C   UNL     1       2.207   7.185  19.681  0.00  0.00    +0.000 A 
ATOM     11  N   UNL     1       3.000   6.817  18.642  0.00  0.00    +0.000 NA
ATOM     12  H   UNL     1       3.438   7.471  15.680  0.00  0.00    +0.000 HD
ATOM     13  H   UNL     1       0.860  10.764  19.706  0.00  0.00    +0.000 HD
ENDROOT
BRANCH   9  14
ATOM     14  C   UNL     1       1.914   5.189  21.190  0.00  0.00    +0.000 C 
ATOM     15  C   UNL     1       1.871   4.116  20.390  0.00  0.00    +0.000 C 
ATOM     16  N   UNL     1       1.658   4.088  19.042  0.00  0.00    +0.000 N 
ATOM     17  C   UNL     1       1.651   2.788  18.587  0.00  0.00    +0.000 C 
ATOM     18  O   UNL     1       1.422   2.432  17.442  0.00  0.00    +0.000 OA
ATOM     19  N   UNL     1       1.914   1.974  19.652  0.00  0.00    +0.000 N 
ATOM     20  C   UNL     1       2.037   2.694  20.811  0.00  0.00    +0.000 C 
ATOM     21  O   UNL     1       2.222   2.280  21.941  0.00  0.00    +0.000 OA
ATOM     22  H   UNL     1       1.414   4.902  18.489  0.00  0.00    +0.000 HD
ATOM     23  H   UNL     1       1.943   0.971  19.600  0.00  0.00    +0.000 HD
ENDBRANCH   9  14
BRANCH   5  24
ATOM     24  C   UNL     1       1.609  11.675  17.888  0.00  0.00    +0.000 C 
ATOM     25  C   UNL     1       1.186  13.079  18.211  0.00  0.00    +0.000 C 
ATOM     26  C   UNL     1       2.642  12.722  18.213  0.00  0.00    +0.000 C 
ENDBRANCH   5  24
BRANCH   1  27
ATOM     27  C   UNL     1       4.845   6.216  16.543  0.00  0.00    +0.000 C 
ATOM     28  C   UNL     1       4.104   4.959  17.008  0.00  0.00    +0.000 C 
BRANCH  27  34
ATOM     29  C   UNL     1       8.584   9.210  18.081  0.00  0.00    +0.000 C 
ATOM     30  C   UNL     1       7.864   7.896  18.141  0.00  0.00    +0.000 A 
ATOM     31  C   UNL     1       8.333   6.844  18.924  0.00  0.00    +0.000 A 
ATOM     32  C   UNL     1       7.631   5.648  18.920  0.00  0.00    +0.000 A 
ATOM     33  N   UNL     1       6.507   5.428  18.200  0.00  0.00    +0.000 NA
ATOM     34  C   UNL     1       6.048   6.460  17.443  0.00  0.00    +0.000 A 
ATOM     35  C   UNL     1       6.704   7.696  17.389  0.00  0.00    +0.000 A 
ENDBRANCH  27  34
ENDBRANCH   1  27
TORSDOF 4
ENDMDL
MODEL 7
REMARK VINA RESULT:      -7.2      2.725      5.916
REMARK  Name = 
REMARK  6 active torsions:
REMARK  status: ('A' for Active; 'I' for Inactive)
REMARK    1  A    between atoms: C_1  and  C_2
REMARK    2  A    between atoms: C_6  and  C_7
REMARK    3  A    between atoms: C_7  and  C_8
REMARK    4  A    between atoms: C_7  and  N_9
REMARK    5  A    between atoms: N_13  and  C_14
REMARK    6  A    between atoms: C_20  and  C_21
REMARK                            x       y       z     vdW  Elec       q    Type
REMARK                         _______ _______ _______ _____ _____    ______ ____
ROOT
ATOM      1  N   UNL     1      -2.578  11.848  17.707  0.00  0.00    +0.000 N 
ATOM      2  C   UNL     1      -1.991  12.376  18.818  0.00  0.00    +0.000 A 
ATOM      3  N   UNL     1      -0.799  13.050  18.618  0.00  0.00    +0.000 NA
ATOM      4  C   UNL     1      -0.144  13.521  19.643  0.00  0.00    +0.000 A 
ATOM      5  N   UNL     1       1.084  14.155  19.606  0.00  0.00    +0.000 N 
ATOM      6  N   UNL     1      -0.728  13.386  20.908  0.00  0.00    +0.000 N 
ATOM      7  N   UNL     1      -0.191  13.873  22.055  0.00  0.00    +0.000 NA
ATOM      8  C   UNL     1      -1.143  13.598  22.957  0.00  0.00    +0.000 A 
ATOM      9  C   UNL     1      -2.251  12.913  22.399  0.00  0.00    +0.000 A 
ATOM     10  C   UNL     1      -1.929  12.763  21.067  0.00  0.00    +0.000 A 
ATOM     11  N   UNL     1      -2.537  12.196  19.994  0.00  0.00    +0.000 NA
ATOM     12  H   UNL     1      -2.699  12.515  16.949  0.00  0.00    +0.000 HD
ATOM     13  H   UNL     1       1.469  14.426  20.510  0.00  0.00    +0.000 HD
ENDROOT
BRANCH   9  14
ATOM     14  C   UNL     1      -3.448  12.498  23.059  0.00  0.00    +0.000 C 
ATOM     15  C   UNL     1      -4.481  13.276  23.408  0.00  0.00    +0.000 C 
ATOM     16  N   UNL     1      -4.628  14.615  23.191  0.00  0.00    +0.000 N 
ATOM     17  C   UNL     1      -5.815  15.058  23.730  0.00  0.00    +0.000 C 
ATOM     18  O   UNL     1      -6.202  16.215  23.756  0.00  0.00    +0.000 OA
ATOM     19  N   UNL     1      -6.462  13.975  24.255  0.00  0.00    +0.000 N 
ATOM     20  C   UNL     1      -5.711  12.837  24.131  0.00  0.00    +0.000 C 
ATOM     21  O   UNL     1      -5.965  11.716  24.532  0.00  0.00    +0.000 OA
ATOM     22  H   UNL     1      -3.904  15.210  22.804  0.00  0.00    +0.000 HD
ATOM     23  H   UNL     1      -7.345  14.024  24.733  0.00  0.00    +0.000 HD
ENDBRANCH   9  14
BRANCH   5  24
ATOM     24  C   UNL     1       1.878  14.210  18.393  0.00  0.00    +0.000 C 
ATOM     25  C   UNL     1       2.796  15.371  18.142  0.00  0.00    +0.000 C 
ATOM     26  C   UNL     1       3.371  14.020  18.445  0.00  0.00    +0.000 C 
ENDBRANCH   5  24
BRANCH   1  27
ATOM     27  C   UNL     1      -3.618  10.829  17.728  0.00  0.00    +0.000 C 
ATOM     28  C   UNL     1      -3.531  10.044  16.416  0.00  0.00    +0.000 C 
BRANCH  27  34
ATOM     29  C   UNL     1      -6.989  14.333  16.435  0.00  0.00    +0.000 C 
ATOM     30  C   UNL     1      -6.603  13.147  17.266  0.00  0.00    +0.000 A 
ATOM     31  C   UNL     1      -7.449  12.641  18.250  0.00  0.00    +0.000 A 
ATOM     32  C   UNL     1      -7.024  11.553  18.997  0.00  0.00    +0.000 A 
ATOM     33  N   UNL     1      -5.830  10.939  18.836  0.00  0.00    +0.000 NA
ATOM     34  C   UNL     1      -5.010  11.431  17.869  0.00  0.00    +0.000 A 
ATOM     35  C   UNL     1      -5.364  12.530  17.078  0.00  0.00    +0.000 A 
ENDBRANCH  27  34
ENDBRANCH   1  27
TORSDOF 4
ENDMDL
MODEL 8
REMARK VINA RESULT:      -7.2      2.479      6.451
REMARK  Name = 
REMARK  6 active torsions:
REMARK  status: ('A' for Active; 'I' for Inactive)
REMARK    1  A    between atoms: C_1  and  C_2
REMARK    2  A    between atoms: C_6  and  C_7
REMARK    3  A    between atoms: C_7  and  C_8
REMARK    4  A    between atoms: C_7  and  N_9
REMARK    5  A    between atoms: N_13  and  C_14
REMARK    6  A    between atoms: C_20  and  C_21
REMARK                            x       y       z     vdW  Elec       q    Type
REMARK                         _______ _______ _______ _____ _____    ______ ____
ROOT
ATOM      1  N   UNL     1       0.086  11.998  18.526  0.00  0.00    +0.000 N 
ATOM      2  C   UNL     1       0.258  12.871  19.558  0.00  0.00    +0.000 A 
ATOM      3  N   UNL     1       1.257  13.814  19.401  0.00  0.00    +0.000 NA
ATOM      4  C   UNL     1       1.528  14.638  20.377  0.00  0.00    +0.000 A 
ATOM      5  N   UNL     1       2.535  15.585  20.390  0.00  0.00    +0.000 N 
ATOM      6  N   UNL     1       0.726  14.575  21.523  0.00  0.00    +0.000 N 
ATOM      7  N   UNL     1       0.854  15.403  22.591  0.00  0.00    +0.000 NA
ATOM      8  C   UNL     1      -0.178  15.034  23.363  0.00  0.00    +0.000 A 
ATOM      9  C   UNL     1      -0.925  13.964  22.812  0.00  0.00    +0.000 A 
ATOM     10  C   UNL     1      -0.286  13.670  21.627  0.00  0.00    +0.000 A 
ATOM     11  N   UNL     1      -0.476  12.761  20.637  0.00  0.00    +0.000 NA
ATOM     12  H   UNL     1      -0.024  12.448  17.621  0.00  0.00    +0.000 HD
ATOM     13  H   UNL     1       2.627  16.119  21.253  0.00  0.00    +0.000 HD
ENDROOT
BRANCH   9  14
ATOM     14  C   UNL     1      -2.098  13.348  23.346  0.00  0.00    +0.000 C 
ATOM     15  C   UNL     1      -3.279  13.207  22.732  0.00  0.00    +0.000 C 
ATOM     16  N   UNL     1      -3.613  13.594  21.466  0.00  0.00    +0.000 N 
ATOM     17  C   UNL     1      -4.936  13.306  21.213  0.00  0.00    +0.000 C 
ATOM     18  O   UNL     1      -5.547  13.589  20.195  0.00  0.00    +0.000 OA
ATOM     19  N   UNL     1      -5.443  12.678  22.315  0.00  0.00    +0.000 N 
ATOM     20  C   UNL     1      -4.510  12.594  23.314  0.00  0.00    +0.000 C 
ATOM     21  O   UNL     1      -4.643  12.143  24.436  0.00  0.00    +0.000 OA
ATOM     22  H   UNL     1      -3.005  14.130  20.858  0.00  0.00    +0.000 HD
ATOM     23  H   UNL     1      -6.399  12.381  22.404  0.00  0.00    +0.000 HD
ENDBRANCH   9  14
BRANCH   5  24
ATOM     24  C   UNL     1       3.542  15.643  19.347  0.00  0.00    +0.000 C 
ATOM     25  C   UNL     1       3.378  16.584  18.190  0.00  0.00    +0.000 C 
ATOM     26  C   UNL     1       4.441  16.844  19.215  0.00  0.00    +0.000 C 
ENDBRANCH   5  24
BRANCH   1  27
ATOM     27  C   UNL     1      -0.646  10.741  18.620  0.00  0.00    +0.000 C 
ATOM     28  C   UNL     1       0.226   9.645  18.001  0.00  0.00    +0.000 C 
BRANCH  27  34
ATOM     29  C   UNL     1      -3.359  10.031  14.443  0.00  0.00    +0.000 C 
ATOM     30  C   UNL     1      -3.263  10.490  15.867  0.00  0.00    +0.000 A 
ATOM     31  C   UNL     1      -4.347  11.075  16.517  0.00  0.00    +0.000 A 
ATOM     32  C   UNL     1      -4.187  11.496  17.829  0.00  0.00    +0.000 A 
ATOM     33  N   UNL     1      -3.037  11.378  18.531  0.00  0.00    +0.000 NA
ATOM     34  C   UNL     1      -1.983  10.799  17.895  0.00  0.00    +0.000 A 
ATOM     35  C   UNL     1      -2.064  10.354  16.570  0.00  0.00    +0.000 A 
ENDBRANCH  27  34
ENDBRANCH   1  27
TORSDOF 4
ENDMDL
MODEL 9
REMARK VINA RESULT:      -7.2      2.237      6.484
REMARK  Name = 
REMARK  6 active torsions:
REMARK  status: ('A' for Active; 'I' for Inactive)
REMARK    1  A    between atoms: C_1  and  C_2
REMARK    2  A    between atoms: C_6  and  C_7
REMARK    3  A    between atoms: C_7  and  C_8
REMARK    4  A    between atoms: C_7  and  N_9
REMARK    5  A    between atoms: N_13  and  C_14
REMARK    6  A    between atoms: C_20  and  C_21
REMARK                            x       y       z     vdW  Elec       q    Type
REMARK                         _______ _______ _______ _____ _____    ______ ____
ROOT
ATOM      1  N   UNL     1      -0.476  11.682  22.293  0.00  0.00    +0.000 N 
ATOM      2  C   UNL     1      -1.548  12.515  22.403  0.00  0.00    +0.000 A 
ATOM      3  N   UNL     1      -1.344  13.685  23.113  0.00  0.00    +0.000 NA
ATOM      4  C   UNL     1      -2.343  14.498  23.320  0.00  0.00    +0.000 A 
ATOM      5  N   UNL     1      -2.306  15.664  24.062  0.00  0.00    +0.000 N 
ATOM      6  N   UNL     1      -3.575  14.178  22.736  0.00  0.00    +0.000 N 
ATOM      7  N   UNL     1      -4.685  14.955  22.819  0.00  0.00    +0.000 NA
ATOM      8  C   UNL     1      -5.551  14.301  22.033  0.00  0.00    +0.000 A 
ATOM      9  C   UNL     1      -5.012  13.109  21.490  0.00  0.00    +0.000 A 
ATOM     10  C   UNL     1      -3.732  13.045  21.998  0.00  0.00    +0.000 A 
ATOM     11  N   UNL     1      -2.700  12.170  21.886  0.00  0.00    +0.000 NA
ATOM     12  H   UNL     1       0.364  12.136  21.946  0.00  0.00    +0.000 HD
ATOM     13  H   UNL     1      -3.193  16.159  24.150  0.00  0.00    +0.000 HD
ENDROOT
BRANCH   9  14
ATOM     14  C   UNL     1      -5.640  12.192  20.591  0.00  0.00    +0.000 C 
ATOM     15  C   UNL     1      -6.045  12.447  19.341  0.00  0.00    +0.000 C 
ATOM     16  N   UNL     1      -5.927  13.617  18.647  0.00  0.00    +0.000 N 
ATOM     17  C   UNL     1      -6.498  13.491  17.401  0.00  0.00    +0.000 C 
ATOM     18  O   UNL     1      -6.609  14.381  16.572  0.00  0.00    +0.000 OA
ATOM     19  N   UNL     1      -6.942  12.206  17.274  0.00  0.00    +0.000 N 
ATOM     20  C   UNL     1      -6.735  11.492  18.425  0.00  0.00    +0.000 C 
ATOM     21  O   UNL     1      -7.052  10.342  18.668  0.00  0.00    +0.000 OA
ATOM     22  H   UNL     1      -5.584  14.482  19.049  0.00  0.00    +0.000 HD
ATOM     23  H   UNL     1      -7.423  11.853  16.466  0.00  0.00    +0.000 HD
ENDBRANCH   9  14
BRANCH   5  24
ATOM     24  C   UNL     1      -1.149  16.026  24.859  0.00  0.00    +0.000 C 
ATOM     25  C   UNL     1      -1.067  17.380  25.501  0.00  0.00    +0.000 C 
ATOM     26  C   UNL     1      -1.261  16.163  26.354  0.00  0.00    +0.000 C 
ENDBRANCH   5  24
BRANCH   1  27
ATOM     27  C   UNL     1      -0.556  10.279  21.907  0.00  0.00    +0.000 C 
ATOM     28  C   UNL     1       0.374   9.486  22.829  0.00  0.00    +0.000 C 
BRANCH  27  34
ATOM     29  C   UNL     1      -1.747  10.169  17.020  0.00  0.00    +0.000 C 
ATOM     30  C   UNL     1      -0.745   9.970  18.117  0.00  0.00    +0.000 A 
ATOM     31  C   UNL     1       0.532   9.481  17.856  0.00  0.00    +0.000 A 
ATOM     32  C   UNL     1       1.406   9.302  18.918  0.00  0.00    +0.000 A 
ATOM     33  N   UNL     1       1.101   9.573  20.208  0.00  0.00    +0.000 NA
ATOM     34  C   UNL     1      -0.144  10.059  20.457  0.00  0.00    +0.000 A 
ATOM     35  C   UNL     1      -1.085  10.260  19.440  0.00  0.00    +0.000 A 
ENDBRANCH  27  34
ENDBRANCH   1  27
TORSDOF 4
ENDMDL
