MODEL 1
REMARK VINA RESULT:      -9.6      0.000      0.000
REMARK  Name = 
REMARK  3 active torsions:
REMARK  status: ('A' for Active; 'I' for Inactive)
REMARK    1  A    between atoms: C_7  and  C_8
REMARK    2  A    between atoms: C_10  and  C_11
REMARK    3  A    between atoms: C_19  and  C_20
REMARK                            x       y       z     vdW  Elec       q    Type
REMARK                         _______ _______ _______ _____ _____    ______ ____
ROOT
ATOM      1  C   UNL     1       3.574   5.647  18.361  0.00  0.00    +0.000 A 
ATOM      2  C   UNL     1       2.880   6.831  18.663  0.00  0.00    +0.000 A 
ATOM      3  C   UNL     1       1.976   6.930  19.735  0.00  0.00    +0.000 A 
ATOM      4  C   UNL     1       1.709   5.760  20.459  0.00  0.00    +0.000 A 
ATOM      5  C   UNL     1       2.368   4.550  20.172  0.00  0.00    +0.000 A 
ATOM      6  C   UNL     1       3.304   4.507  19.123  0.00  0.00    +0.000 A 
ENDROOT
BRANCH   1  13
ATOM      7  O   UNL     1       5.883   3.519  14.708  0.00  0.00    +0.000 OA
ATOM      8  C   UNL     1       5.979   4.157  15.757  0.00  0.00    +0.000 C 
ATOM      9  C   UNL     1       7.282   4.762  16.196  0.00  0.00    +0.000 C 
ATOM     10  C   UNL     1       7.073   6.118  16.811  0.00  0.00    +0.000 C 
ATOM     11  O   UNL     1       7.834   7.053  16.589  0.00  0.00    +0.000 OA
ATOM     12  C   UNL     1       5.974   6.222  17.843  0.00  0.00    +0.000 C 
ATOM     13  C   UNL     1       4.662   5.646  17.297  0.00  0.00    +0.000 C 
ATOM     14  C   UNL     1       4.838   4.222  16.742  0.00  0.00    +0.000 C 
ENDBRANCH   1  13
BRANCH   3  15
ATOM     15  C   UNL     1       1.428   8.244  20.139  0.00  0.00    +0.000 A 
ATOM     16  C   UNL     1       1.362   9.339  19.260  0.00  0.00    +0.000 A 
ATOM     17  C   UNL     1       0.783  10.551  19.655  0.00  0.00    +0.000 A 
ATOM     18  C   UNL     1       0.271  10.699  20.943  0.00  0.00    +0.000 A 
ATOM     19  C   UNL     1       0.333   9.631  21.826  0.00  0.00    +0.000 A 
ATOM     20 CL   UNL     1      -0.295   9.792  23.421  0.00  0.00    +0.000 Cl
ATOM     21  C   UNL     1       0.897   8.419  21.431  0.00  0.00    +0.000 A 
ENDBRANCH   3  15
BRANCH   5  22
ATOM     22  C   UNL     1       2.129   3.330  21.029  0.00  0.00    +0.000 C 
ATOM     23  F   UNL     1       0.859   2.844  20.944  0.00  0.00    +0.000 F 
ATOM     24  F   UNL     1       2.948   2.292  20.704  0.00  0.00    +0.000 F 
ATOM     25  F   UNL     1       2.343   3.578  22.350  0.00  0.00    +0.000 F 
ENDBRANCH   5  22
TORSDOF 3
ENDMDL
MODEL 2
REMARK VINA RESULT:      -9.4      1.070      1.607
REMARK  Name = 
REMARK  3 active torsions:
REMARK  status: ('A' for Active; 'I' for Inactive)
REMARK    1  A    between atoms: C_7  and  C_8
REMARK    2  A    between atoms: C_10  and  C_11
REMARK    3  A    between atoms: C_19  and  C_20
REMARK                            x       y       z     vdW  Elec       q    Type
REMARK                         _______ _______ _______ _____ _____    ______ ____
ROOT
ATOM      1  C   UNL     1       3.502   5.743  18.368  0.00  0.00    +0.000 A 
ATOM      2  C   UNL     1       2.825   6.915  18.746  0.00  0.00    +0.000 A 
ATOM      3  C   UNL     1       1.948   6.966  19.843  0.00  0.00    +0.000 A 
ATOM      4  C   UNL     1       1.688   5.763  20.513  0.00  0.00    +0.000 A 
ATOM      5  C   UNL     1       2.331   4.564  20.150  0.00  0.00    +0.000 A 
ATOM      6  C   UNL     1       3.241   4.568  19.078  0.00  0.00    +0.000 A 
ENDROOT
BRANCH   1  13
ATOM      7  O   UNL     1       5.575   3.892  14.433  0.00  0.00    +0.000 OA
ATOM      8  C   UNL     1       5.739   4.398  15.544  0.00  0.00    +0.000 C 
ATOM      9  C   UNL     1       7.091   4.857  16.011  0.00  0.00    +0.000 C 
ATOM     10  C   UNL     1       6.993   6.145  16.781  0.00  0.00    +0.000 C 
ATOM     11  O   UNL     1       7.815   7.044  16.643  0.00  0.00    +0.000 OA
ATOM     12  C   UNL     1       5.927   6.206  17.849  0.00  0.00    +0.000 C 
ATOM     13  C   UNL     1       4.565   5.789  17.279  0.00  0.00    +0.000 C 
ATOM     14  C   UNL     1       4.626   4.428  16.563  0.00  0.00    +0.000 C 
ENDBRANCH   1  13
BRANCH   3  15
ATOM     15  C   UNL     1       1.421   8.262  20.326  0.00  0.00    +0.000 A 
ATOM     16  C   UNL     1       1.142   8.507  21.682  0.00  0.00    +0.000 A 
ATOM     17  C   UNL     1       0.701   9.764  22.115  0.00  0.00    +0.000 A 
ATOM     18  C   UNL     1       0.516  10.798  21.199  0.00  0.00    +0.000 A 
ATOM     19  C   UNL     1       0.781  10.573  19.856  0.00  0.00    +0.000 A 
ATOM     20 CL   UNL     1       0.559  11.837  18.709  0.00  0.00    +0.000 Cl
ATOM     21  C   UNL     1       1.232   9.327  19.424  0.00  0.00    +0.000 A 
ENDBRANCH   3  15
BRANCH   5  22
ATOM     22  C   UNL     1       2.102   3.304  20.950  0.00  0.00    +0.000 C 
ATOM     23  F   UNL     1       2.816   2.235  20.498  0.00  0.00    +0.000 F 
ATOM     24  F   UNL     1       2.435   3.448  22.261  0.00  0.00    +0.000 F 
ATOM     25  F   UNL     1       0.799   2.912  20.933  0.00  0.00    +0.000 F 
ENDBRANCH   5  22
TORSDOF 3
ENDMDL
MODEL 3
REMARK VINA RESULT:      -9.4      4.894      7.973
REMARK  Name = 
REMARK  3 active torsions:
REMARK  status: ('A' for Active; 'I' for Inactive)
REMARK    1  A    between atoms: C_7  and  C_8
REMARK    2  A    between atoms: C_10  and  C_11
REMARK    3  A    between atoms: C_19  and  C_20
REMARK                            x       y       z     vdW  Elec       q    Type
REMARK                         _______ _______ _______ _____ _____    ______ ____
ROOT
ATOM      1  C   UNL     1       4.437   5.044  17.752  0.00  0.00    +0.000 A 
ATOM      2  C   UNL     1       4.724   4.943  16.380  0.00  0.00    +0.000 A 
ATOM      3  C   UNL     1       6.028   5.046  15.866  0.00  0.00    +0.000 A 
ATOM      4  C   UNL     1       7.052   5.351  16.774  0.00  0.00    +0.000 A 
ATOM      5  C   UNL     1       6.800   5.482  18.152  0.00  0.00    +0.000 A 
ATOM      6  C   UNL     1       5.488   5.321  18.631  0.00  0.00    +0.000 A 
ENDROOT
BRANCH   1  13
ATOM      7  O   UNL     1       0.871   5.807  20.900  0.00  0.00    +0.000 OA
ATOM      8  C   UNL     1       1.531   4.979  20.269  0.00  0.00    +0.000 C 
ATOM      9  C   UNL     1       1.120   3.537  20.190  0.00  0.00    +0.000 C 
ATOM     10  C   UNL     1       1.362   2.976  18.816  0.00  0.00    +0.000 C 
ATOM     11  O   UNL     1       0.560   2.222  18.275  0.00  0.00    +0.000 OA
ATOM     12  C   UNL     1       2.715   3.258  18.207  0.00  0.00    +0.000 C 
ATOM     13  C   UNL     1       3.032   4.758  18.265  0.00  0.00    +0.000 C 
ATOM     14  C   UNL     1       2.876   5.333  19.683  0.00  0.00    +0.000 C 
ENDBRANCH   1  13
BRANCH   3  15
ATOM     15  C   UNL     1       6.306   4.728  14.448  0.00  0.00    +0.000 A 
ATOM     16  C   UNL     1       7.497   5.111  13.806  0.00  0.00    +0.000 A 
ATOM     17  C   UNL     1       7.756   4.743  12.480  0.00  0.00    +0.000 A 
ATOM     18  C   UNL     1       6.824   3.996  11.763  0.00  0.00    +0.000 A 
ATOM     19  C   UNL     1       5.641   3.613  12.378  0.00  0.00    +0.000 A 
ATOM     20 CL   UNL     1       4.476   2.689  11.510  0.00  0.00    +0.000 Cl
ATOM     21  C   UNL     1       5.386   3.967  13.702  0.00  0.00    +0.000 A 
ENDBRANCH   3  15
BRANCH   5  22
ATOM     22  C   UNL     1       7.938   5.719  19.116  0.00  0.00    +0.000 C 
ATOM     23  F   UNL     1       8.564   6.916  18.936  0.00  0.00    +0.000 F 
ATOM     24  F   UNL     1       7.536   5.700  20.416  0.00  0.00    +0.000 F 
ATOM     25  F   UNL     1       8.910   4.772  19.008  0.00  0.00    +0.000 F 
ENDBRANCH   5  22
TORSDOF 3
ENDMDL
MODEL 4
REMARK VINA RESULT:      -9.4      1.073      1.121
REMARK  Name = 
REMARK  3 active torsions:
REMARK  status: ('A' for Active; 'I' for Inactive)
REMARK    1  A    between atoms: C_7  and  C_8
REMARK    2  A    between atoms: C_10  and  C_11
REMARK    3  A    between atoms: C_19  and  C_20
REMARK                            x       y       z     vdW  Elec       q    Type
REMARK                         _______ _______ _______ _____ _____    ______ ____
ROOT
ATOM      1  C   UNL     1       3.912   5.469  18.730  0.00  0.00    +0.000 A 
ATOM      2  C   UNL     1       3.193   6.655  18.960  0.00  0.00    +0.000 A 
ATOM      3  C   UNL     1       2.112   6.727  19.854  0.00  0.00    +0.000 A 
ATOM      4  C   UNL     1       1.699   5.532  20.459  0.00  0.00    +0.000 A 
ATOM      5  C   UNL     1       2.379   4.320  20.236  0.00  0.00    +0.000 A 
ATOM      6  C   UNL     1       3.489   4.302  19.373  0.00  0.00    +0.000 A 
ENDROOT
BRANCH   1  13
ATOM      7  O   UNL     1       6.111   5.972  14.474  0.00  0.00    +0.000 OA
ATOM      8  C   UNL     1       6.023   5.327  15.520  0.00  0.00    +0.000 C 
ATOM      9  C   UNL     1       7.049   4.297  15.900  0.00  0.00    +0.000 C 
ATOM     10  C   UNL     1       7.339   4.337  17.375  0.00  0.00    +0.000 C 
ATOM     11  O   UNL     1       8.478   4.215  17.813  0.00  0.00    +0.000 OA
ATOM     12  C   UNL     1       6.140   4.371  18.293  0.00  0.00    +0.000 C 
ATOM     13  C   UNL     1       5.175   5.490  17.881  0.00  0.00    +0.000 C 
ATOM     14  C   UNL     1       4.795   5.413  16.392  0.00  0.00    +0.000 C 
ENDBRANCH   1  13
BRANCH   3  15
ATOM     15  C   UNL     1       1.521   8.034  20.218  0.00  0.00    +0.000 A 
ATOM     16  C   UNL     1       1.384   9.085  19.295  0.00  0.00    +0.000 A 
ATOM     17  C   UNL     1       0.766  10.289  19.655  0.00  0.00    +0.000 A 
ATOM     18  C   UNL     1       0.284  10.473  20.950  0.00  0.00    +0.000 A 
ATOM     19  C   UNL     1       0.416   9.448  21.876  0.00  0.00    +0.000 A 
ATOM     20 CL   UNL     1      -0.173   9.654  23.481  0.00  0.00    +0.000 Cl
ATOM     21  C   UNL     1       1.019   8.244  21.517  0.00  0.00    +0.000 A 
ENDBRANCH   3  15
BRANCH   5  22
ATOM     22  C   UNL     1       1.969   3.068  20.974  0.00  0.00    +0.000 C 
ATOM     23  F   UNL     1       0.728   3.146  21.531  0.00  0.00    +0.000 F 
ATOM     24  F   UNL     1       1.950   1.969  20.172  0.00  0.00    +0.000 F 
ATOM     25  F   UNL     1       2.816   2.773  21.998  0.00  0.00    +0.000 F 
ENDBRANCH   5  22
TORSDOF 3
ENDMDL
MODEL 5
REMARK VINA RESULT:      -9.4      4.499      5.464
REMARK  Name = 
REMARK  3 active torsions:
REMARK  status: ('A' for Active; 'I' for Inactive)
REMARK    1  A    between atoms: C_7  and  C_8
REMARK    2  A    between atoms: C_10  and  C_11
REMARK    3  A    between atoms: C_19  and  C_20
REMARK                            x       y       z     vdW  Elec       q    Type
REMARK                         _______ _______ _______ _____ _____    ______ ____
ROOT
ATOM      1  C   UNL     1       5.959   4.655  16.034  0.00  0.00    +0.000 A 
ATOM      2  C   UNL     1       4.786   4.143  16.614  0.00  0.00    +0.000 A 
ATOM      3  C   UNL     1       4.565   4.137  18.002  0.00  0.00    +0.000 A 
ATOM      4  C   UNL     1       5.611   4.585  18.820  0.00  0.00    +0.000 A 
ATOM      5  C   UNL     1       6.808   5.086  18.277  0.00  0.00    +0.000 A 
ATOM      6  C   UNL     1       6.969   5.122  16.880  0.00  0.00    +0.000 A 
ENDROOT
BRANCH   1  13
ATOM      7  O   UNL     1       4.968   3.087  11.589  0.00  0.00    +0.000 OA
ATOM      8  C   UNL     1       5.820   3.528  12.360  0.00  0.00    +0.000 C 
ATOM      9  C   UNL     1       7.164   3.988  11.872  0.00  0.00    +0.000 C 
ATOM     10  C   UNL     1       7.614   5.226  12.599  0.00  0.00    +0.000 C 
ATOM     11  O   UNL     1       8.173   6.149  12.018  0.00  0.00    +0.000 OA
ATOM     12  C   UNL     1       7.488   5.201  14.104  0.00  0.00    +0.000 C 
ATOM     13  C   UNL     1       6.071   4.788  14.522  0.00  0.00    +0.000 C 
ATOM     14  C   UNL     1       5.626   3.475  13.856  0.00  0.00    +0.000 C 
ENDBRANCH   1  13
BRANCH   3  15
ATOM     15  C   UNL     1       3.238   3.780  18.552  0.00  0.00    +0.000 A 
ATOM     16  C   UNL     1       2.077   3.740  17.760  0.00  0.00    +0.000 A 
ATOM     17  C   UNL     1       0.847   3.340  18.297  0.00  0.00    +0.000 A 
ATOM     18  C   UNL     1       0.750   2.984  19.641  0.00  0.00    +0.000 A 
ATOM     19  C   UNL     1       1.884   3.022  20.439  0.00  0.00    +0.000 A 
ATOM     20 CL   UNL     1       1.785   2.585  22.101  0.00  0.00    +0.000 Cl
ATOM     21  C   UNL     1       3.111   3.407  19.904  0.00  0.00    +0.000 A 
ENDBRANCH   3  15
BRANCH   5  22
ATOM     22  C   UNL     1       7.879   5.649  19.180  0.00  0.00    +0.000 C 
ATOM     23  F   UNL     1       8.342   6.867  18.783  0.00  0.00    +0.000 F 
ATOM     24  F   UNL     1       7.452   5.811  20.462  0.00  0.00    +0.000 F 
ATOM     25  F   UNL     1       8.973   4.842  19.247  0.00  0.00    +0.000 F 
ENDBRANCH   5  22
TORSDOF 3
ENDMDL
MODEL 6
REMARK VINA RESULT:      -9.3      1.144      1.791
REMARK  Name = 
REMARK  3 active torsions:
REMARK  status: ('A' for Active; 'I' for Inactive)
REMARK    1  A    between atoms: C_7  and  C_8
REMARK    2  A    between atoms: C_10  and  C_11
REMARK    3  A    between atoms: C_19  and  C_20
REMARK                            x       y       z     vdW  Elec       q    Type
REMARK                         _______ _______ _______ _____ _____    ______ ____
ROOT
ATOM      1  C   UNL     1       3.856   4.574  18.397  0.00  0.00    +0.000 A 
ATOM      2  C   UNL     1       3.264   5.848  18.349  0.00  0.00    +0.000 A 
ATOM      3  C   UNL     1       2.335   6.290  19.306  0.00  0.00    +0.000 A 
ATOM      4  C   UNL     1       1.934   5.370  20.285  0.00  0.00    +0.000 A 
ATOM      5  C   UNL     1       2.489   4.078  20.352  0.00  0.00    +0.000 A 
ATOM      6  C   UNL     1       3.454   3.693  19.405  0.00  0.00    +0.000 A 
ENDROOT
BRANCH   1  13
ATOM      7  O   UNL     1       8.541   4.090  17.386  0.00  0.00    +0.000 OA
ATOM      8  C   UNL     1       7.440   4.490  17.006  0.00  0.00    +0.000 C 
ATOM      9  C   UNL     1       7.202   4.916  15.585  0.00  0.00    +0.000 C 
ATOM     10  C   UNL     1       5.852   4.465  15.100  0.00  0.00    +0.000 C 
ATOM     11  O   UNL     1       5.687   4.024  13.968  0.00  0.00    +0.000 OA
ATOM     12  C   UNL     1       4.686   4.737  16.020  0.00  0.00    +0.000 C 
ATOM     13  C   UNL     1       4.977   4.214  17.433  0.00  0.00    +0.000 C 
ATOM     14  C   UNL     1       6.316   4.736  17.983  0.00  0.00    +0.000 C 
ENDBRANCH   1  13
BRANCH   3  15
ATOM     15  C   UNL     1       1.896   7.704  19.334  0.00  0.00    +0.000 A 
ATOM     16  C   UNL     1       1.965   8.539  18.205  0.00  0.00    +0.000 A 
ATOM     17  C   UNL     1       1.487   9.854  18.247  0.00  0.00    +0.000 A 
ATOM     18  C   UNL     1       0.942  10.367  19.424  0.00  0.00    +0.000 A 
ATOM     19  C   UNL     1       0.872   9.559  20.549  0.00  0.00    +0.000 A 
ATOM     20 CL   UNL     1       0.202  10.173  22.012  0.00  0.00    +0.000 Cl
ATOM     21  C   UNL     1       1.335   8.245  20.506  0.00  0.00    +0.000 A 
ENDBRANCH   3  15
BRANCH   5  22
ATOM     22  C   UNL     1       2.107   3.141  21.473  0.00  0.00    +0.000 C 
ATOM     23  F   UNL     1       0.809   2.730  21.421  0.00  0.00    +0.000 F 
ATOM     24  F   UNL     1       2.858   2.006  21.486  0.00  0.00    +0.000 F 
ATOM     25  F   UNL     1       2.267   3.712  22.698  0.00  0.00    +0.000 F 
ENDBRANCH   5  22
TORSDOF 3
ENDMDL
MODEL 7
REMARK VINA RESULT:      -9.3      3.702      6.845
REMARK  Name = 
REMARK  3 active torsions:
REMARK  status: ('A' for Active; 'I' for Inactive)
REMARK    1  A    between atoms: C_7  and  C_8
REMARK    2  A    between atoms: C_10  and  C_11
REMARK    3  A    between atoms: C_19  and  C_20
REMARK                            x       y       z     vdW  Elec       q    Type
REMARK                         _______ _______ _______ _____ _____    ______ ____
ROOT
ATOM      1  C   UNL     1       2.378   6.476  19.987  0.00  0.00    +0.000 A 
ATOM      2  C   UNL     1       3.549   6.267  19.237  0.00  0.00    +0.000 A 
ATOM      3  C   UNL     1       3.974   4.991  18.831  0.00  0.00    +0.000 A 
ATOM      4  C   UNL     1       3.230   3.893  19.284  0.00  0.00    +0.000 A 
ATOM      5  C   UNL     1       2.064   4.060  20.054  0.00  0.00    +0.000 A 
ATOM      6  C   UNL     1       1.644   5.358  20.395  0.00  0.00    +0.000 A 
ENDROOT
BRANCH   1  13
ATOM      7  O   UNL     1      -0.315   9.583  22.495  0.00  0.00    +0.000 OA
ATOM      8  C   UNL     1       0.063   9.210  21.384  0.00  0.00    +0.000 C 
ATOM      9  C   UNL     1      -0.191  10.024  20.148  0.00  0.00    +0.000 C 
ATOM     10  C   UNL     1       0.992   9.991  19.221  0.00  0.00    +0.000 C 
ATOM     11  O   UNL     1       1.371  10.990  18.621  0.00  0.00    +0.000 OA
ATOM     12  C   UNL     1       1.585   8.630  18.942  0.00  0.00    +0.000 C 
ATOM     13  C   UNL     1       1.879   7.889  20.253  0.00  0.00    +0.000 C 
ATOM     14  C   UNL     1       0.652   7.835  21.179  0.00  0.00    +0.000 C 
ENDBRANCH   1  13
BRANCH   3  15
ATOM     15  C   UNL     1       5.093   4.839  17.874  0.00  0.00    +0.000 A 
ATOM     16  C   UNL     1       6.440   4.859  18.275  0.00  0.00    +0.000 A 
ATOM     17  C   UNL     1       7.473   4.653  17.353  0.00  0.00    +0.000 A 
ATOM     18  C   UNL     1       7.182   4.435  16.008  0.00  0.00    +0.000 A 
ATOM     19  C   UNL     1       5.859   4.417  15.593  0.00  0.00    +0.000 A 
ATOM     20 CL   UNL     1       5.477   4.149  13.935  0.00  0.00    +0.000 Cl
ATOM     21  C   UNL     1       4.827   4.609  16.510  0.00  0.00    +0.000 A 
ENDBRANCH   3  15
BRANCH   5  22
ATOM     22  C   UNL     1       1.231   2.864  20.448  0.00  0.00    +0.000 C 
ATOM     23  F   UNL     1       1.020   2.765  21.790  0.00  0.00    +0.000 F 
ATOM     24  F   UNL     1      -0.003   2.873  19.875  0.00  0.00    +0.000 F 
ATOM     25  F   UNL     1       1.810   1.689  20.076  0.00  0.00    +0.000 F 
ENDBRANCH   5  22
TORSDOF 3
ENDMDL
MODEL 8
REMARK VINA RESULT:      -9.2      5.511      7.834
REMARK  Name = 
REMARK  3 active torsions:
REMARK  status: ('A' for Active; 'I' for Inactive)
REMARK    1  A    between atoms: C_7  and  C_8
REMARK    2  A    between atoms: C_10  and  C_11
REMARK    3  A    between atoms: C_19  and  C_20
REMARK                            x       y       z     vdW  Elec       q    Type
REMARK                         _______ _______ _______ _____ _____    ______ ____
ROOT
ATOM      1  C   UNL     1       4.702   3.995  18.139  0.00  0.00    +0.000 A 
ATOM      2  C   UNL     1       4.841   4.035  16.741  0.00  0.00    +0.000 A 
ATOM      3  C   UNL     1       5.963   4.592  16.104  0.00  0.00    +0.000 A 
ATOM      4  C   UNL     1       6.924   5.205  16.919  0.00  0.00    +0.000 A 
ATOM      5  C   UNL     1       6.809   5.204  18.321  0.00  0.00    +0.000 A 
ATOM      6  C   UNL     1       5.696   4.590  18.921  0.00  0.00    +0.000 A 
ENDROOT
BRANCH   1  13
ATOM      7  O   UNL     1       0.223   2.230  17.962  0.00  0.00    +0.000 OA
ATOM      8  C   UNL     1       1.071   2.828  18.626  0.00  0.00    +0.000 C 
ATOM      9  C   UNL     1       0.886   3.083  20.095  0.00  0.00    +0.000 C 
ATOM     10  C   UNL     1       2.178   2.911  20.844  0.00  0.00    +0.000 C 
ATOM     11  O   UNL     1       2.222   2.361  21.939  0.00  0.00    +0.000 OA
ATOM     12  C   UNL     1       3.390   3.594  20.255  0.00  0.00    +0.000 C 
ATOM     13  C   UNL     1       3.549   3.231  18.773  0.00  0.00    +0.000 C 
ATOM     14  C   UNL     1       2.261   3.484  17.970  0.00  0.00    +0.000 C 
ENDBRANCH   1  13
BRANCH   3  15
ATOM     15  C   UNL     1       6.160   4.428  14.646  0.00  0.00    +0.000 A 
ATOM     16  C   UNL     1       7.360   4.775  14.002  0.00  0.00    +0.000 A 
ATOM     17  C   UNL     1       7.537   4.551  12.631  0.00  0.00    +0.000 A 
ATOM     18  C   UNL     1       6.512   3.988  11.872  0.00  0.00    +0.000 A 
ATOM     19  C   UNL     1       5.319   3.644  12.490  0.00  0.00    +0.000 A 
ATOM     20 CL   UNL     1       4.041   2.947  11.572  0.00  0.00    +0.000 Cl
ATOM     21  C   UNL     1       5.145   3.854  13.857  0.00  0.00    +0.000 A 
ENDBRANCH   3  15
BRANCH   5  22
ATOM     22  C   UNL     1       7.907   5.790  19.177  0.00  0.00    +0.000 C 
ATOM     23  F   UNL     1       7.522   6.044  20.459  0.00  0.00    +0.000 F 
ATOM     24  F   UNL     1       8.993   4.974  19.268  0.00  0.00    +0.000 F 
ATOM     25  F   UNL     1       8.366   6.974  18.687  0.00  0.00    +0.000 F 
ENDBRANCH   5  22
TORSDOF 3
ENDMDL
MODEL 9
REMARK VINA RESULT:      -9.2      0.728      1.774
REMARK  Name = 
REMARK  3 active torsions:
REMARK  status: ('A' for Active; 'I' for Inactive)
REMARK    1  A    between atoms: C_7  and  C_8
REMARK    2  A    between atoms: C_10  and  C_11
REMARK    3  A    between atoms: C_19  and  C_20
REMARK                            x       y       z     vdW  Elec       q    Type
REMARK                         _______ _______ _______ _____ _____    ______ ____
ROOT
ATOM      1  C   UNL     1       3.835   5.029  18.667  0.00  0.00    +0.000 A 
ATOM      2  C   UNL     1       3.176   6.252  18.885  0.00  0.00    +0.000 A 
ATOM      3  C   UNL     1       2.157   6.406  19.840  0.00  0.00    +0.000 A 
ATOM      4  C   UNL     1       1.740   5.256  20.525  0.00  0.00    +0.000 A 
ATOM      5  C   UNL     1       2.361   4.010  20.319  0.00  0.00    +0.000 A 
ATOM      6  C   UNL     1       3.413   3.910  19.390  0.00  0.00    +0.000 A 
ENDROOT
BRANCH   1  13
ATOM      7  O   UNL     1       7.779   7.021  16.749  0.00  0.00    +0.000 OA
ATOM      8  C   UNL     1       6.753   6.369  16.552  0.00  0.00    +0.000 C 
ATOM      9  C   UNL     1       6.500   5.671  15.246  0.00  0.00    +0.000 C 
ATOM     10  C   UNL     1       5.859   4.328  15.462  0.00  0.00    +0.000 C 
ATOM     11  O   UNL     1       6.185   3.344  14.807  0.00  0.00    +0.000 OA
ATOM     12  C   UNL     1       4.684   4.292  16.409  0.00  0.00    +0.000 C 
ATOM     13  C   UNL     1       5.041   4.963  17.742  0.00  0.00    +0.000 C 
ATOM     14  C   UNL     1       5.618   6.376  17.546  0.00  0.00    +0.000 C 
ENDBRANCH   1  13
BRANCH   3  15
ATOM     15  C   UNL     1       1.639   7.751  20.178  0.00  0.00    +0.000 A 
ATOM     16  C   UNL     1       1.568   8.792  19.236  0.00  0.00    +0.000 A 
ATOM     17  C   UNL     1       1.016  10.035  19.571  0.00  0.00    +0.000 A 
ATOM     18  C   UNL     1       0.537  10.267  20.859  0.00  0.00    +0.000 A 
ATOM     19  C   UNL     1       0.604   9.253  21.803  0.00  0.00    +0.000 A 
ATOM     20 CL   UNL     1       0.017   9.519  23.400  0.00  0.00    +0.000 Cl
ATOM     21  C   UNL     1       1.140   8.011  21.469  0.00  0.00    +0.000 A 
ENDBRANCH   3  15
BRANCH   5  22
ATOM     22  C   UNL     1       1.954   2.810  21.139  0.00  0.00    +0.000 C 
ATOM     23  F   UNL     1       0.899   3.050  21.968  0.00  0.00    +0.000 F 
ATOM     24  F   UNL     1       1.589   1.748  20.369  0.00  0.00    +0.000 F 
ATOM     25  F   UNL     1       2.961   2.367  21.939  0.00  0.00    +0.000 F 
ENDBRANCH   5  22
TORSDOF 3
ENDMDL
