MODEL 1
REMARK VINA RESULT:      -6.0      0.000      0.000
REMARK  Name = 
REMARK  17 active torsions:
REMARK  status: ('A' for Active; 'I' for Inactive)
REMARK    1  A    between atoms: C_1  and  C_2
REMARK    2  A    between atoms: C_2  and  C_3
REMARK    3  A    between atoms: C_3  and  C_4
REMARK    4  A    between atoms: C_4  and  C_5
REMARK    5  A    between atoms: C_5  and  C_6
REMARK    6  A    between atoms: C_6  and  C_7
REMARK    7  A    between atoms: N_9  and  C_10
REMARK    8  A    between atoms: C_10  and  C_11
REMARK    9  A    between atoms: C_10  and  C_28
REMARK   10  A    between atoms: C_11  and  N_12
REMARK   11  A    between atoms: N_15  and  C_16
REMARK   12  A    between atoms: C_17  and  C_18
REMARK   13  A    between atoms: C_18  and  C_19
REMARK   14  A    between atoms: C_18  and  C_20
REMARK   15  A    between atoms: C_24  and  C_25
REMARK   16  A    between atoms: C_25  and  C_26
REMARK   17  A    between atoms: C_25  and  C_27
REMARK                            x       y       z     vdW  Elec       q    Type
REMARK                         _______ _______ _______ _____ _____    ______ ____
ROOT
ATOM      1  C   UNL     1      -0.662  10.835  18.693  0.00  0.00    +0.000 C 
ENDROOT
BRANCH   1   2
ATOM      2  N   UNL     1      -1.185  11.984  19.426  0.00  0.00    +0.000 N 
ATOM      3  C   UNL     1      -2.477  12.412  19.359  0.00  0.00    +0.000 C 
ATOM      4  O   UNL     1      -3.340  11.875  18.672  0.00  0.00    +0.000 OA
ATOM      5  N   UNL     1      -2.794  13.490  20.150  0.00  0.00    +0.000 N 
ATOM      6  H   UNL     1      -0.591  12.407  20.124  0.00  0.00    +0.000 HD
ATOM      7  H   UNL     1      -3.790  13.551  20.322  0.00  0.00    +0.000 HD
BRANCH   5   8
ATOM      8  C   UNL     1      -1.933  14.096  21.084  0.00  0.00    +0.000 A 
ATOM      9  C   UNL     1      -1.871  13.545  22.399  0.00  0.00    +0.000 A 
ATOM     10  C   UNL     1      -1.063  14.195  23.346  0.00  0.00    +0.000 A 
ATOM     11  C   UNL     1      -0.338  15.331  23.014  0.00  0.00    +0.000 A 
ATOM     12  C   UNL     1      -0.389  15.837  21.721  0.00  0.00    +0.000 A 
ATOM     13  C   UNL     1      -1.193  15.256  20.729  0.00  0.00    +0.000 A 
BRANCH   9  14
ATOM     14  C   UNL     1      -2.578  12.247  22.805  0.00  0.00    +0.000 C 
ATOM     15  C   UNL     1      -1.534  11.184  23.170  0.00  0.00    +0.000 C 
ATOM     16  C   UNL     1      -3.565  12.379  23.983  0.00  0.00    +0.000 C 
ENDBRANCH   9  14
BRANCH  13  17
ATOM     17  C   UNL     1      -1.297  15.982  19.385  0.00  0.00    +0.000 C 
ATOM     18  C   UNL     1      -1.860  17.397  19.584  0.00  0.00    +0.000 C 
ATOM     19  C   UNL     1       0.030  16.120  18.633  0.00  0.00    +0.000 C 
ENDBRANCH  13  17
ENDBRANCH   5   8
ENDBRANCH   1   2
BRANCH   1  20
ATOM     20  C   UNL     1       0.870  10.642  18.901  0.00  0.00    +0.000 C 
BRANCH  20  21
ATOM     21  C   UNL     1       1.646  11.936  19.203  0.00  0.00    +0.000 A 
ATOM     22  C   UNL     1       2.310  12.638  18.175  0.00  0.00    +0.000 A 
ATOM     23  C   UNL     1       3.033  13.807  18.439  0.00  0.00    +0.000 A 
ATOM     24  C   UNL     1       3.077  14.327  19.728  0.00  0.00    +0.000 A 
ATOM     25  C   UNL     1       2.395  13.678  20.752  0.00  0.00    +0.000 A 
ATOM     26  C   UNL     1       1.686  12.501  20.491  0.00  0.00    +0.000 A 
ENDBRANCH  20  21
BRANCH  20  29
ATOM     27  C   UNL     1       1.677   8.418  19.678  0.00  0.00    +0.000 C 
ATOM     28  O   UNL     1       2.116   8.117  18.580  0.00  0.00    +0.000 OA
ATOM     29  N   UNL     1       1.081   9.634  19.940  0.00  0.00    +0.000 N 
ATOM     30  H   UNL     1       0.411   9.620  20.691  0.00  0.00    +0.000 HD
BRANCH  27  31
ATOM     31  C   UNL     1       1.740   7.509  20.893  0.00  0.00    +0.000 C 
BRANCH  31  32
ATOM     32  C   UNL     1       1.024   6.192  20.597  0.00  0.00    +0.000 C 
BRANCH  32  33
ATOM     33  C   UNL     1       1.987   5.022  20.403  0.00  0.00    +0.000 C 
BRANCH  33  34
ATOM     34  C   UNL     1       1.283   3.705  20.736  0.00  0.00    +0.000 C 
BRANCH  34  36
ATOM     35  C   UNL     1       1.593   3.498  18.250  0.00  0.00    +0.000 C 
ATOM     36  C   UNL     1       0.898   2.931  19.478  0.00  0.00    +0.000 C 
ENDBRANCH  34  36
ENDBRANCH  33  34
ENDBRANCH  32  33
ENDBRANCH  31  32
ENDBRANCH  27  31
ENDBRANCH  20  29
ENDBRANCH   1  20
TORSDOF 12
ENDMDL
MODEL 2
REMARK VINA RESULT:      -5.9      1.341      1.617
REMARK  Name = 
REMARK  17 active torsions:
REMARK  status: ('A' for Active; 'I' for Inactive)
REMARK    1  A    between atoms: C_1  and  C_2
REMARK    2  A    between atoms: C_2  and  C_3
REMARK    3  A    between atoms: C_3  and  C_4
REMARK    4  A    between atoms: C_4  and  C_5
REMARK    5  A    between atoms: C_5  and  C_6
REMARK    6  A    between atoms: C_6  and  C_7
REMARK    7  A    between atoms: N_9  and  C_10
REMARK    8  A    between atoms: C_10  and  C_11
REMARK    9  A    between atoms: C_10  and  C_28
REMARK   10  A    between atoms: C_11  and  N_12
REMARK   11  A    between atoms: N_15  and  C_16
REMARK   12  A    between atoms: C_17  and  C_18
REMARK   13  A    between atoms: C_18  and  C_19
REMARK   14  A    between atoms: C_18  and  C_20
REMARK   15  A    between atoms: C_24  and  C_25
REMARK   16  A    between atoms: C_25  and  C_26
REMARK   17  A    between atoms: C_25  and  C_27
REMARK                            x       y       z     vdW  Elec       q    Type
REMARK                         _______ _______ _______ _____ _____    ______ ____
ROOT
ATOM      1  C   UNL     1      -0.711  10.814  18.538  0.00  0.00    +0.000 C 
ENDROOT
BRANCH   1   2
ATOM      2  N   UNL     1      -1.179  11.975  19.291  0.00  0.00    +0.000 N 
ATOM      3  C   UNL     1      -2.458  12.445  19.258  0.00  0.00    +0.000 C 
ATOM      4  O   UNL     1      -3.354  11.940  18.590  0.00  0.00    +0.000 OA
ATOM      5  N   UNL     1      -2.720  13.528  20.062  0.00  0.00    +0.000 N 
ATOM      6  H   UNL     1      -0.554  12.375  19.976  0.00  0.00    +0.000 HD
ATOM      7  H   UNL     1      -3.708  13.619  20.259  0.00  0.00    +0.000 HD
BRANCH   5   8
ATOM      8  C   UNL     1      -1.817  14.100  20.978  0.00  0.00    +0.000 A 
ATOM      9  C   UNL     1      -1.718  13.520  22.278  0.00  0.00    +0.000 A 
ATOM     10  C   UNL     1      -0.867  14.137  23.209  0.00  0.00    +0.000 A 
ATOM     11  C   UNL     1      -0.135  15.268  22.876  0.00  0.00    +0.000 A 
ATOM     12  C   UNL     1      -0.222  15.803  21.596  0.00  0.00    +0.000 A 
ATOM     13  C   UNL     1      -1.070  15.256  20.621  0.00  0.00    +0.000 A 
BRANCH   9  14
ATOM     14  C   UNL     1      -2.432  12.225  22.682  0.00  0.00    +0.000 C 
ATOM     15  C   UNL     1      -1.394  11.165  23.074  0.00  0.00    +0.000 C 
ATOM     16  C   UNL     1      -3.440  12.367  23.840  0.00  0.00    +0.000 C 
ENDBRANCH   9  14
BRANCH  13  17
ATOM     17  C   UNL     1      -1.209  16.011  19.296  0.00  0.00    +0.000 C 
ATOM     18  C   UNL     1      -1.864  17.381  19.529  0.00  0.00    +0.000 C 
ATOM     19  C   UNL     1       0.113  16.256  18.563  0.00  0.00    +0.000 C 
ENDBRANCH  13  17
ENDBRANCH   5   8
ENDBRANCH   1   2
BRANCH   1  20
ATOM     20  C   UNL     1       0.843  10.729  18.479  0.00  0.00    +0.000 C 
BRANCH  20  21
ATOM     21  C   UNL     1       1.578  11.955  19.052  0.00  0.00    +0.000 A 
ATOM     22  C   UNL     1       2.223  12.874  18.199  0.00  0.00    +0.000 A 
ATOM     23  C   UNL     1       2.908  13.984  18.708  0.00  0.00    +0.000 A 
ATOM     24  C   UNL     1       2.930  14.226  20.077  0.00  0.00    +0.000 A 
ATOM     25  C   UNL     1       2.265  13.359  20.936  0.00  0.00    +0.000 A 
ATOM     26  C   UNL     1       1.594  12.241  20.429  0.00  0.00    +0.000 A 
ENDBRANCH  20  21
BRANCH  20  29
ATOM     27  C   UNL     1       1.990   8.518  18.469  0.00  0.00    +0.000 C 
ATOM     28  O   UNL     1       2.360   8.638  17.313  0.00  0.00    +0.000 OA
ATOM     29  N   UNL     1       1.273   9.492  19.133  0.00  0.00    +0.000 N 
ATOM     30  H   UNL     1       0.681   9.149  19.871  0.00  0.00    +0.000 HD
BRANCH  27  31
ATOM     31  C   UNL     1       2.276   7.299  19.328  0.00  0.00    +0.000 C 
BRANCH  31  32
ATOM     32  C   UNL     1       3.428   6.496  18.727  0.00  0.00    +0.000 C 
BRANCH  32  33
ATOM     33  C   UNL     1       3.192   4.987  18.772  0.00  0.00    +0.000 C 
BRANCH  33  34
ATOM     34  C   UNL     1       3.523   4.365  17.414  0.00  0.00    +0.000 C 
BRANCH  34  36
ATOM     35  C   UNL     1       5.541   4.204  15.923  0.00  0.00    +0.000 C 
ATOM     36  C   UNL     1       4.614   5.142  16.683  0.00  0.00    +0.000 C 
ENDBRANCH  34  36
ENDBRANCH  33  34
ENDBRANCH  32  33
ENDBRANCH  31  32
ENDBRANCH  27  31
ENDBRANCH  20  29
ENDBRANCH   1  20
TORSDOF 12
ENDMDL
MODEL 3
REMARK VINA RESULT:      -5.9      1.999      4.431
REMARK  Name = 
REMARK  17 active torsions:
REMARK  status: ('A' for Active; 'I' for Inactive)
REMARK    1  A    between atoms: C_1  and  C_2
REMARK    2  A    between atoms: C_2  and  C_3
REMARK    3  A    between atoms: C_3  and  C_4
REMARK    4  A    between atoms: C_4  and  C_5
REMARK    5  A    between atoms: C_5  and  C_6
REMARK    6  A    between atoms: C_6  and  C_7
REMARK    7  A    between atoms: N_9  and  C_10
REMARK    8  A    between atoms: C_10  and  C_11
REMARK    9  A    between atoms: C_10  and  C_28
REMARK   10  A    between atoms: C_11  and  N_12
REMARK   11  A    between atoms: N_15  and  C_16
REMARK   12  A    between atoms: C_17  and  C_18
REMARK   13  A    between atoms: C_18  and  C_19
REMARK   14  A    between atoms: C_18  and  C_20
REMARK   15  A    between atoms: C_24  and  C_25
REMARK   16  A    between atoms: C_25  and  C_26
REMARK   17  A    between atoms: C_25  and  C_27
REMARK                            x       y       z     vdW  Elec       q    Type
REMARK                         _______ _______ _______ _____ _____    ______ ____
ROOT
ATOM      1  C   UNL     1       1.231  11.860  19.024  0.00  0.00    +0.000 C 
ENDROOT
BRANCH   1   2
ATOM      2  N   UNL     1       0.560  12.741  19.976  0.00  0.00    +0.000 N 
ATOM      3  C   UNL     1       1.180  13.348  21.027  0.00  0.00    +0.000 C 
ATOM      4  O   UNL     1       2.372  13.217  21.286  0.00  0.00    +0.000 OA
ATOM      5  N   UNL     1       0.392  14.173  21.794  0.00  0.00    +0.000 N 
ATOM      6  H   UNL     1      -0.387  13.023  19.769  0.00  0.00    +0.000 HD
ATOM      7  H   UNL     1       0.945  14.835  22.323  0.00  0.00    +0.000 HD
BRANCH   5   8
ATOM      8  C   UNL     1      -0.943  14.515  21.513  0.00  0.00    +0.000 A 
ATOM      9  C   UNL     1      -1.187  15.636  20.665  0.00  0.00    +0.000 A 
ATOM     10  C   UNL     1      -2.522  16.015  20.444  0.00  0.00    +0.000 A 
ATOM     11  C   UNL     1      -3.572  15.316  21.022  0.00  0.00    +0.000 A 
ATOM     12  C   UNL     1      -3.317  14.209  21.822  0.00  0.00    +0.000 A 
ATOM     13  C   UNL     1      -2.010  13.787  22.108  0.00  0.00    +0.000 A 
BRANCH   9  14
ATOM     14  C   UNL     1      -0.078  16.396  19.929  0.00  0.00    +0.000 C 
ATOM     15  C   UNL     1      -0.551  16.760  18.516  0.00  0.00    +0.000 C 
ATOM     16  C   UNL     1       0.405  17.686  20.624  0.00  0.00    +0.000 C 
ENDBRANCH   9  14
BRANCH  13  17
ATOM     17  C   UNL     1      -1.836  12.655  23.123  0.00  0.00    +0.000 C 
ATOM     18  C   UNL     1      -3.165  12.369  23.838  0.00  0.00    +0.000 C 
ATOM     19  C   UNL     1      -1.347  11.334  22.523  0.00  0.00    +0.000 C 
ENDBRANCH  13  17
ENDBRANCH   5   8
ENDBRANCH   1   2
BRANCH   1  20
ATOM     20  C   UNL     1       0.486  10.505  18.839  0.00  0.00    +0.000 C 
BRANCH  20  21
ATOM     21  C   UNL     1      -0.959  10.630  18.321  0.00  0.00    +0.000 A 
ATOM     22  C   UNL     1      -1.411   9.844  17.242  0.00  0.00    +0.000 A 
ATOM     23  C   UNL     1      -2.717   9.961  16.751  0.00  0.00    +0.000 A 
ATOM     24  C   UNL     1      -3.615  10.834  17.353  0.00  0.00    +0.000 A 
ATOM     25  C   UNL     1      -3.208  11.589  18.447  0.00  0.00    +0.000 A 
ATOM     26  C   UNL     1      -1.898  11.485  18.927  0.00  0.00    +0.000 A 
ENDBRANCH  20  21
BRANCH  20  29
ATOM     27  C   UNL     1       1.946   8.523  18.461  0.00  0.00    +0.000 C 
ATOM     28  O   UNL     1       1.861   8.153  19.620  0.00  0.00    +0.000 OA
ATOM     29  N   UNL     1       1.291   9.638  17.978  0.00  0.00    +0.000 N 
ATOM     30  H   UNL     1       1.737  10.079  17.191  0.00  0.00    +0.000 HD
BRANCH  27  31
ATOM     31  C   UNL     1       2.766   7.809  17.401  0.00  0.00    +0.000 C 
BRANCH  31  32
ATOM     32  C   UNL     1       3.742   6.837  18.064  0.00  0.00    +0.000 C 
BRANCH  32  33
ATOM     33  C   UNL     1       3.734   5.452  17.419  0.00  0.00    +0.000 C 
BRANCH  33  34
ATOM     34  C   UNL     1       3.105   4.435  18.372  0.00  0.00    +0.000 C 
BRANCH  34  36
ATOM     35  C   UNL     1       1.159   2.849  18.516  0.00  0.00    +0.000 C 
ATOM     36  C   UNL     1       1.617   4.237  18.092  0.00  0.00    +0.000 C 
ENDBRANCH  34  36
ENDBRANCH  33  34
ENDBRANCH  32  33
ENDBRANCH  31  32
ENDBRANCH  27  31
ENDBRANCH  20  29
ENDBRANCH   1  20
TORSDOF 12
ENDMDL
MODEL 4
REMARK VINA RESULT:      -5.8      2.673      5.442
REMARK  Name = 
REMARK  17 active torsions:
REMARK  status: ('A' for Active; 'I' for Inactive)
REMARK    1  A    between atoms: C_1  and  C_2
REMARK    2  A    between atoms: C_2  and  C_3
REMARK    3  A    between atoms: C_3  and  C_4
REMARK    4  A    between atoms: C_4  and  C_5
REMARK    5  A    between atoms: C_5  and  C_6
REMARK    6  A    between atoms: C_6  and  C_7
REMARK    7  A    between atoms: N_9  and  C_10
REMARK    8  A    between atoms: C_10  and  C_11
REMARK    9  A    between atoms: C_10  and  C_28
REMARK   10  A    between atoms: C_11  and  N_12
REMARK   11  A    between atoms: N_15  and  C_16
REMARK   12  A    between atoms: C_17  and  C_18
REMARK   13  A    between atoms: C_18  and  C_19
REMARK   14  A    between atoms: C_18  and  C_20
REMARK   15  A    between atoms: C_24  and  C_25
REMARK   16  A    between atoms: C_25  and  C_26
REMARK   17  A    between atoms: C_25  and  C_27
REMARK                            x       y       z     vdW  Elec       q    Type
REMARK                         _______ _______ _______ _____ _____    ______ ____
ROOT
ATOM      1  C   UNL     1       2.147   7.763  19.791  0.00  0.00    +0.000 C 
ENDROOT
BRANCH   1   2
ATOM      2  N   UNL     1       1.463   8.955  19.296  0.00  0.00    +0.000 N 
ATOM      3  C   UNL     1       1.518   9.389  18.005  0.00  0.00    +0.000 C 
ATOM      4  O   UNL     1       2.151   8.823  17.120  0.00  0.00    +0.000 OA
ATOM      5  N   UNL     1       0.778  10.511  17.718  0.00  0.00    +0.000 N 
ATOM      6  H   UNL     1       0.805   9.410  19.912  0.00  0.00    +0.000 HD
ATOM      7  H   UNL     1       0.582  10.589  16.728  0.00  0.00    +0.000 HD
BRANCH   5   8
ATOM      8  C   UNL     1      -0.098  11.159  18.608  0.00  0.00    +0.000 A 
ATOM      9  C   UNL     1      -1.498  10.924  18.466  0.00  0.00    +0.000 A 
ATOM     10  C   UNL     1      -2.372  11.627  19.312  0.00  0.00    +0.000 A 
ATOM     11  C   UNL     1      -1.891  12.514  20.265  0.00  0.00    +0.000 A 
ATOM     12  C   UNL     1      -0.522  12.710  20.408  0.00  0.00    +0.000 A 
ATOM     13  C   UNL     1       0.408  12.062  19.582  0.00  0.00    +0.000 A 
BRANCH   9  14
ATOM     14  C   UNL     1      -2.088   9.895  17.494  0.00  0.00    +0.000 C 
ATOM     15  C   UNL     1      -3.426   9.379  18.040  0.00  0.00    +0.000 C 
ATOM     16  C   UNL     1      -2.316  10.406  16.057  0.00  0.00    +0.000 C 
ENDBRANCH   9  14
BRANCH  13  17
ATOM     17  C   UNL     1       1.879  12.465  19.718  0.00  0.00    +0.000 C 
ATOM     18  C   UNL     1       2.340  13.235  18.471  0.00  0.00    +0.000 C 
ATOM     19  C   UNL     1       2.188  13.341  20.936  0.00  0.00    +0.000 C 
ENDBRANCH  13  17
ENDBRANCH   5   8
ENDBRANCH   1   2
BRANCH   1  20
ATOM     20  C   UNL     1       2.374   6.699  18.677  0.00  0.00    +0.000 C 
BRANCH  20  21
ATOM     21  C   UNL     1       3.849   6.344  18.417  0.00  0.00    +0.000 A 
ATOM     22  C   UNL     1       4.614   5.674  19.393  0.00  0.00    +0.000 A 
ATOM     23  C   UNL     1       5.962   5.360  19.176  0.00  0.00    +0.000 A 
ATOM     24  C   UNL     1       6.565   5.670  17.962  0.00  0.00    +0.000 A 
ATOM     25  C   UNL     1       5.821   6.293  16.966  0.00  0.00    +0.000 A 
ATOM     26  C   UNL     1       4.480   6.621  17.190  0.00  0.00    +0.000 A 
ENDBRANCH  20  21
BRANCH  20  29
ATOM     27  C   UNL     1       1.525   4.980  20.267  0.00  0.00    +0.000 C 
ATOM     28  O   UNL     1       2.082   5.492  21.224  0.00  0.00    +0.000 OA
ATOM     29  N   UNL     1       1.583   5.509  18.994  0.00  0.00    +0.000 N 
ATOM     30  H   UNL     1       1.474   4.836  18.254  0.00  0.00    +0.000 HD
BRANCH  27  31
ATOM     31  C   UNL     1       0.692   3.713  20.349  0.00  0.00    +0.000 C 
BRANCH  31  32
ATOM     32  C   UNL     1       1.601   2.503  20.556  0.00  0.00    +0.000 C 
BRANCH  32  33
ATOM     33  C   UNL     1       2.078   1.884  19.243  0.00  0.00    +0.000 C 
BRANCH  33  34
ATOM     34  C   UNL     1       3.580   2.114  19.071  0.00  0.00    +0.000 C 
BRANCH  34  36
ATOM     35  C   UNL     1       2.682   3.134  16.957  0.00  0.00    +0.000 C 
ATOM     36  C   UNL     1       3.922   2.622  17.673  0.00  0.00    +0.000 C 
ENDBRANCH  34  36
ENDBRANCH  33  34
ENDBRANCH  32  33
ENDBRANCH  31  32
ENDBRANCH  27  31
ENDBRANCH  20  29
ENDBRANCH   1  20
TORSDOF 12
ENDMDL
MODEL 5
REMARK VINA RESULT:      -5.7      1.937      2.279
REMARK  Name = 
REMARK  17 active torsions:
REMARK  status: ('A' for Active; 'I' for Inactive)
REMARK    1  A    between atoms: C_1  and  C_2
REMARK    2  A    between atoms: C_2  and  C_3
REMARK    3  A    between atoms: C_3  and  C_4
REMARK    4  A    between atoms: C_4  and  C_5
REMARK    5  A    between atoms: C_5  and  C_6
REMARK    6  A    between atoms: C_6  and  C_7
REMARK    7  A    between atoms: N_9  and  C_10
REMARK    8  A    between atoms: C_10  and  C_11
REMARK    9  A    between atoms: C_10  and  C_28
REMARK   10  A    between atoms: C_11  and  N_12
REMARK   11  A    between atoms: N_15  and  C_16
REMARK   12  A    between atoms: C_17  and  C_18
REMARK   13  A    between atoms: C_18  and  C_19
REMARK   14  A    between atoms: C_18  and  C_20
REMARK   15  A    between atoms: C_24  and  C_25
REMARK   16  A    between atoms: C_25  and  C_26
REMARK   17  A    between atoms: C_25  and  C_27
REMARK                            x       y       z     vdW  Elec       q    Type
REMARK                         _______ _______ _______ _____ _____    ______ ____
ROOT
ATOM      1  C   UNL     1      -0.819  10.679  19.467  0.00  0.00    +0.000 C 
ENDROOT
BRANCH   1   2
ATOM      2  N   UNL     1      -1.226  12.000  19.940  0.00  0.00    +0.000 N 
ATOM      3  C   UNL     1      -2.413  12.593  19.630  0.00  0.00    +0.000 C 
ATOM      4  O   UNL     1      -3.269  12.078  18.919  0.00  0.00    +0.000 OA
ATOM      5  N   UNL     1      -2.635  13.825  20.198  0.00  0.00    +0.000 N 
ATOM      6  H   UNL     1      -0.653  12.446  20.642  0.00  0.00    +0.000 HD
ATOM      7  H   UNL     1      -3.619  14.057  20.219  0.00  0.00    +0.000 HD
BRANCH   5   8
ATOM      8  C   UNL     1      -1.797  14.450  21.141  0.00  0.00    +0.000 A 
ATOM      9  C   UNL     1      -1.946  14.093  22.515  0.00  0.00    +0.000 A 
ATOM     10  C   UNL     1      -1.156  14.770  23.458  0.00  0.00    +0.000 A 
ATOM     11  C   UNL     1      -0.250  15.747  23.069  0.00  0.00    +0.000 A 
ATOM     12  C   UNL     1      -0.098  16.061  21.724  0.00  0.00    +0.000 A 
ATOM     13  C   UNL     1      -0.870  15.445  20.728  0.00  0.00    +0.000 A 
BRANCH   9  14
ATOM     14  C   UNL     1      -2.865  12.966  23.001  0.00  0.00    +0.000 C 
ATOM     15  C   UNL     1      -2.040  11.695  23.238  0.00  0.00    +0.000 C 
ATOM     16  C   UNL     1      -3.657  13.276  24.287  0.00  0.00    +0.000 C 
ENDBRANCH   9  14
BRANCH  13  17
ATOM     17  C   UNL     1      -0.735  15.973  19.297  0.00  0.00    +0.000 C 
ATOM     18  C   UNL     1      -1.666  17.176  19.082  0.00  0.00    +0.000 C 
ATOM     19  C   UNL     1       0.680  16.416  18.914  0.00  0.00    +0.000 C 
ENDBRANCH  13  17
ENDBRANCH   5   8
ENDBRANCH   1   2
BRANCH   1  20
ATOM     20  C   UNL     1       0.605  10.683  18.837  0.00  0.00    +0.000 C 
BRANCH  20  21
ATOM     21  C   UNL     1       1.479  11.889  19.229  0.00  0.00    +0.000 A 
ATOM     22  C   UNL     1       2.193  12.612  18.252  0.00  0.00    +0.000 A 
ATOM     23  C   UNL     1       3.004  13.700  18.598  0.00  0.00    +0.000 A 
ATOM     24  C   UNL     1       3.089  14.117  19.921  0.00  0.00    +0.000 A 
ATOM     25  C   UNL     1       2.362  13.447  20.899  0.00  0.00    +0.000 A 
ATOM     26  C   UNL     1       1.564  12.351  20.556  0.00  0.00    +0.000 A 
ENDBRANCH  20  21
BRANCH  20  29
ATOM     27  C   UNL     1       2.007   8.719  18.223  0.00  0.00    +0.000 C 
ATOM     28  O   UNL     1       2.210   9.131  17.093  0.00  0.00    +0.000 OA
ATOM     29  N   UNL     1       1.264   9.416  19.153  0.00  0.00    +0.000 N 
ATOM     30  H   UNL     1       0.818   8.842  19.849  0.00  0.00    +0.000 HD
BRANCH  27  31
ATOM     31  C   UNL     1       2.549   7.405  18.756  0.00  0.00    +0.000 C 
BRANCH  31  32
ATOM     32  C   UNL     1       3.600   6.847  17.797  0.00  0.00    +0.000 C 
BRANCH  32  33
ATOM     33  C   UNL     1       4.262   5.571  18.315  0.00  0.00    +0.000 C 
BRANCH  33  34
ATOM     34  C   UNL     1       5.778   5.763  18.393  0.00  0.00    +0.000 C 
BRANCH  34  36
ATOM     35  C   UNL     1       7.585   7.358  17.679  0.00  0.00    +0.000 C 
ATOM     36  C   UNL     1       6.297   6.658  17.271  0.00  0.00    +0.000 C 
ENDBRANCH  34  36
ENDBRANCH  33  34
ENDBRANCH  32  33
ENDBRANCH  31  32
ENDBRANCH  27  31
ENDBRANCH  20  29
ENDBRANCH   1  20
TORSDOF 12
ENDMDL
MODEL 6
REMARK VINA RESULT:      -5.7      2.451      3.878
REMARK  Name = 
REMARK  17 active torsions:
REMARK  status: ('A' for Active; 'I' for Inactive)
REMARK    1  A    between atoms: C_1  and  C_2
REMARK    2  A    between atoms: C_2  and  C_3
REMARK    3  A    between atoms: C_3  and  C_4
REMARK    4  A    between atoms: C_4  and  C_5
REMARK    5  A    between atoms: C_5  and  C_6
REMARK    6  A    between atoms: C_6  and  C_7
REMARK    7  A    between atoms: N_9  and  C_10
REMARK    8  A    between atoms: C_10  and  C_11
REMARK    9  A    between atoms: C_10  and  C_28
REMARK   10  A    between atoms: C_11  and  N_12
REMARK   11  A    between atoms: N_15  and  C_16
REMARK   12  A    between atoms: C_17  and  C_18
REMARK   13  A    between atoms: C_18  and  C_19
REMARK   14  A    between atoms: C_18  and  C_20
REMARK   15  A    between atoms: C_24  and  C_25
REMARK   16  A    between atoms: C_25  and  C_26
REMARK   17  A    between atoms: C_25  and  C_27
REMARK                            x       y       z     vdW  Elec       q    Type
REMARK                         _______ _______ _______ _____ _____    ______ ____
ROOT
ATOM      1  C   UNL     1       0.952  12.244  18.910  0.00  0.00    +0.000 C 
ENDROOT
BRANCH   1   2
ATOM      2  N   UNL     1       0.344  13.098  19.927  0.00  0.00    +0.000 N 
ATOM      3  C   UNL     1       0.998  13.563  21.029  0.00  0.00    +0.000 C 
ATOM      4  O   UNL     1       2.171  13.312  21.283  0.00  0.00    +0.000 OA
ATOM      5  N   UNL     1       0.271  14.385  21.856  0.00  0.00    +0.000 N 
ATOM      6  H   UNL     1      -0.574  13.474  19.738  0.00  0.00    +0.000 HD
ATOM      7  H   UNL     1       0.869  14.953  22.441  0.00  0.00    +0.000 HD
BRANCH   5   8
ATOM      8  C   UNL     1      -1.028  14.859  21.596  0.00  0.00    +0.000 A 
ATOM      9  C   UNL     1      -2.129  14.156  22.170  0.00  0.00    +0.000 A 
ATOM     10  C   UNL     1      -3.426  14.592  21.851  0.00  0.00    +0.000 A 
ATOM     11  C   UNL     1      -3.633  15.679  21.013  0.00  0.00    +0.000 A 
ATOM     12  C   UNL     1      -2.548  16.370  20.486  0.00  0.00    +0.000 A 
ATOM     13  C   UNL     1      -1.226  15.977  20.740  0.00  0.00    +0.000 A 
BRANCH   9  14
ATOM     14  C   UNL     1      -1.968  13.004  23.169  0.00  0.00    +0.000 C 
ATOM     15  C   UNL     1      -3.246  12.864  24.005  0.00  0.00    +0.000 C 
ATOM     16  C   UNL     1      -1.648  11.632  22.540  0.00  0.00    +0.000 C 
ENDBRANCH   9  14
BRANCH  13  17
ATOM     17  C   UNL     1      -0.111  16.708  19.986  0.00  0.00    +0.000 C 
ATOM     18  C   UNL     1      -0.425  16.756  18.483  0.00  0.00    +0.000 C 
ATOM     19  C   UNL     1       0.130  18.148  20.449  0.00  0.00    +0.000 C 
ENDBRANCH  13  17
ENDBRANCH   5   8
ENDBRANCH   1   2
BRANCH   1  20
ATOM     20  C   UNL     1       0.318  10.823  18.868  0.00  0.00    +0.000 C 
BRANCH  20  21
ATOM     21  C   UNL     1      -1.135  10.781  18.357  0.00  0.00    +0.000 A 
ATOM     22  C   UNL     1      -2.110  11.655  18.880  0.00  0.00    +0.000 A 
ATOM     23  C   UNL     1      -3.437  11.616  18.437  0.00  0.00    +0.000 A 
ATOM     24  C   UNL     1      -3.813  10.733  17.431  0.00  0.00    +0.000 A 
ATOM     25  C   UNL     1      -2.862   9.890  16.868  0.00  0.00    +0.000 A 
ATOM     26  C   UNL     1      -1.539   9.917  17.323  0.00  0.00    +0.000 A 
ENDBRANCH  20  21
BRANCH  20  29
ATOM     27  C   UNL     1       1.798   8.834  18.636  0.00  0.00    +0.000 C 
ATOM     28  O   UNL     1       1.619   8.481  19.790  0.00  0.00    +0.000 OA
ATOM     29  N   UNL     1       1.186   9.942  18.087  0.00  0.00    +0.000 N 
ATOM     30  H   UNL     1       1.695  10.371  17.332  0.00  0.00    +0.000 HD
BRANCH  27  31
ATOM     31  C   UNL     1       2.698   8.102  17.656  0.00  0.00    +0.000 C 
BRANCH  31  32
ATOM     32  C   UNL     1       2.979   6.688  18.161  0.00  0.00    +0.000 C 
BRANCH  32  33
ATOM     33  C   UNL     1       4.385   6.200  17.817  0.00  0.00    +0.000 C 
BRANCH  33  34
ATOM     34  C   UNL     1       4.867   5.204  18.874  0.00  0.00    +0.000 C 
BRANCH  34  36
ATOM     35  C   UNL     1       7.205   5.531  18.011  0.00  0.00    +0.000 C 
ATOM     36  C   UNL     1       6.328   5.435  19.250  0.00  0.00    +0.000 C 
ENDBRANCH  34  36
ENDBRANCH  33  34
ENDBRANCH  32  33
ENDBRANCH  31  32
ENDBRANCH  27  31
ENDBRANCH  20  29
ENDBRANCH   1  20
TORSDOF 12
ENDMDL
MODEL 7
REMARK VINA RESULT:      -5.7      3.274      6.634
REMARK  Name = 
REMARK  17 active torsions:
REMARK  status: ('A' for Active; 'I' for Inactive)
REMARK    1  A    between atoms: C_1  and  C_2
REMARK    2  A    between atoms: C_2  and  C_3
REMARK    3  A    between atoms: C_3  and  C_4
REMARK    4  A    between atoms: C_4  and  C_5
REMARK    5  A    between atoms: C_5  and  C_6
REMARK    6  A    between atoms: C_6  and  C_7
REMARK    7  A    between atoms: N_9  and  C_10
REMARK    8  A    between atoms: C_10  and  C_11
REMARK    9  A    between atoms: C_10  and  C_28
REMARK   10  A    between atoms: C_11  and  N_12
REMARK   11  A    between atoms: N_15  and  C_16
REMARK   12  A    between atoms: C_17  and  C_18
REMARK   13  A    between atoms: C_18  and  C_19
REMARK   14  A    between atoms: C_18  and  C_20
REMARK   15  A    between atoms: C_24  and  C_25
REMARK   16  A    between atoms: C_25  and  C_26
REMARK   17  A    between atoms: C_25  and  C_27
REMARK                            x       y       z     vdW  Elec       q    Type
REMARK                         _______ _______ _______ _____ _____    ______ ____
ROOT
ATOM      1  C   UNL     1       2.186  12.187  18.456  0.00  0.00    +0.000 C 
ENDROOT
BRANCH   1   2
ATOM      2  N   UNL     1       0.891  11.695  18.919  0.00  0.00    +0.000 N 
ATOM      3  C   UNL     1       0.670  10.429  19.372  0.00  0.00    +0.000 C 
ATOM      4  O   UNL     1       1.539   9.566  19.439  0.00  0.00    +0.000 OA
ATOM      5  N   UNL     1      -0.608  10.159  19.801  0.00  0.00    +0.000 N 
ATOM      6  H   UNL     1       0.146  12.366  19.034  0.00  0.00    +0.000 HD
ATOM      7  H   UNL     1      -0.636   9.358  20.418  0.00  0.00    +0.000 HD
BRANCH   5   8
ATOM      8  C   UNL     1      -1.647  11.102  19.908  0.00  0.00    +0.000 A 
ATOM      9  C   UNL     1      -2.493  11.302  18.777  0.00  0.00    +0.000 A 
ATOM     10  C   UNL     1      -3.485  12.294  18.866  0.00  0.00    +0.000 A 
ATOM     11  C   UNL     1      -3.646  13.048  20.020  0.00  0.00    +0.000 A 
ATOM     12  C   UNL     1      -2.830  12.819  21.122  0.00  0.00    +0.000 A 
ATOM     13  C   UNL     1      -1.803  11.865  21.097  0.00  0.00    +0.000 A 
BRANCH   9  14
ATOM     14  C   UNL     1      -2.424  10.446  17.507  0.00  0.00    +0.000 C 
ATOM     15  C   UNL     1      -3.502   9.356  17.561  0.00  0.00    +0.000 C 
ATOM     16  C   UNL     1      -2.586  11.223  16.184  0.00  0.00    +0.000 C 
ENDBRANCH   9  14
BRANCH  13  17
ATOM     17  C   UNL     1      -0.865  11.801  22.306  0.00  0.00    +0.000 C 
ATOM     18  C   UNL     1      -1.193  12.927  23.297  0.00  0.00    +0.000 C 
ATOM     19  C   UNL     1      -0.917  10.481  23.081  0.00  0.00    +0.000 C 
ENDBRANCH  13  17
ENDBRANCH   5   8
ENDBRANCH   1   2
BRANCH   1  20
ATOM     20  C   UNL     1       2.248  13.743  18.403  0.00  0.00    +0.000 C 
BRANCH  20  21
ATOM     21  C   UNL     1       1.244  14.459  19.325  0.00  0.00    +0.000 A 
ATOM     22  C   UNL     1      -0.008  14.886  18.837  0.00  0.00    +0.000 A 
ATOM     23  C   UNL     1      -0.923  15.553  19.660  0.00  0.00    +0.000 A 
ATOM     24  C   UNL     1      -0.628  15.771  21.001  0.00  0.00    +0.000 A 
ATOM     25  C   UNL     1       0.581  15.321  21.519  0.00  0.00    +0.000 A 
ATOM     26  C   UNL     1       1.502  14.669  20.692  0.00  0.00    +0.000 A 
ENDBRANCH  20  21
BRANCH  20  29
ATOM     27  C   UNL     1       4.258  15.129  17.912  0.00  0.00    +0.000 C 
ATOM     28  O   UNL     1       3.708  15.725  17.001  0.00  0.00    +0.000 OA
ATOM     29  N   UNL     1       3.622  14.169  18.672  0.00  0.00    +0.000 N 
ATOM     30  H   UNL     1       4.233  13.477  19.073  0.00  0.00    +0.000 HD
BRANCH  27  31
ATOM     31  C   UNL     1       5.696  15.369  18.337  0.00  0.00    +0.000 C 
BRANCH  31  32
ATOM     32  C   UNL     1       6.636  14.487  17.517  0.00  0.00    +0.000 C 
BRANCH  32  33
ATOM     33  C   UNL     1       7.908  14.106  18.273  0.00  0.00    +0.000 C 
BRANCH  33  34
ATOM     34  C   UNL     1       8.504  12.827  17.682  0.00  0.00    +0.000 C 
BRANCH  34  36
ATOM     35  C   UNL     1      10.698  11.609  17.846  0.00  0.00    +0.000 C 
ATOM     36  C   UNL     1      10.018  12.930  17.515  0.00  0.00    +0.000 C 
ENDBRANCH  34  36
ENDBRANCH  33  34
ENDBRANCH  32  33
ENDBRANCH  31  32
ENDBRANCH  27  31
ENDBRANCH  20  29
ENDBRANCH   1  20
TORSDOF 12
ENDMDL
MODEL 8
REMARK VINA RESULT:      -5.6      2.644      4.045
REMARK  Name = 
REMARK  17 active torsions:
REMARK  status: ('A' for Active; 'I' for Inactive)
REMARK    1  A    between atoms: C_1  and  C_2
REMARK    2  A    between atoms: C_2  and  C_3
REMARK    3  A    between atoms: C_3  and  C_4
REMARK    4  A    between atoms: C_4  and  C_5
REMARK    5  A    between atoms: C_5  and  C_6
REMARK    6  A    between atoms: C_6  and  C_7
REMARK    7  A    between atoms: N_9  and  C_10
REMARK    8  A    between atoms: C_10  and  C_11
REMARK    9  A    between atoms: C_10  and  C_28
REMARK   10  A    between atoms: C_11  and  N_12
REMARK   11  A    between atoms: N_15  and  C_16
REMARK   12  A    between atoms: C_17  and  C_18
REMARK   13  A    between atoms: C_18  and  C_19
REMARK   14  A    between atoms: C_18  and  C_20
REMARK   15  A    between atoms: C_24  and  C_25
REMARK   16  A    between atoms: C_25  and  C_26
REMARK   17  A    between atoms: C_25  and  C_27
REMARK                            x       y       z     vdW  Elec       q    Type
REMARK                         _______ _______ _______ _____ _____    ______ ____
ROOT
ATOM      1  C   UNL     1       1.061  11.977  18.968  0.00  0.00    +0.000 C 
ENDROOT
BRANCH   1   2
ATOM      2  N   UNL     1       0.431  12.842  19.961  0.00  0.00    +0.000 N 
ATOM      3  C   UNL     1       1.075  13.362  21.044  0.00  0.00    +0.000 C 
ATOM      4  O   UNL     1       2.257  13.157  21.299  0.00  0.00    +0.000 OA
ATOM      5  N   UNL     1       0.326  14.186  21.849  0.00  0.00    +0.000 N 
ATOM      6  H   UNL     1      -0.500  13.183  19.767  0.00  0.00    +0.000 HD
ATOM      7  H   UNL     1       0.909  14.792  22.413  0.00  0.00    +0.000 HD
BRANCH   5   8
ATOM      8  C   UNL     1      -0.989  14.610  21.582  0.00  0.00    +0.000 A 
ATOM      9  C   UNL     1      -2.064  13.877  22.167  0.00  0.00    +0.000 A 
ATOM     10  C   UNL     1      -3.375  14.262  21.842  0.00  0.00    +0.000 A 
ATOM     11  C   UNL     1      -3.620  15.329  20.989  0.00  0.00    +0.000 A 
ATOM     12  C   UNL     1      -2.561  16.050  20.451  0.00  0.00    +0.000 A 
ATOM     13  C   UNL     1      -1.226  15.708  20.711  0.00  0.00    +0.000 A 
BRANCH   9  14
ATOM     14  C   UNL     1      -1.863  12.745  23.182  0.00  0.00    +0.000 C 
ATOM     15  C   UNL     1      -3.175  12.488  23.933  0.00  0.00    +0.000 C 
ATOM     16  C   UNL     1      -1.376  11.409  22.585  0.00  0.00    +0.000 C 
ENDBRANCH   9  14
BRANCH  13  17
ATOM     17  C   UNL     1      -0.137  16.467  19.947  0.00  0.00    +0.000 C 
ATOM     18  C   UNL     1      -0.633  16.843  18.542  0.00  0.00    +0.000 C 
ATOM     19  C   UNL     1       0.333  17.757  20.626  0.00  0.00    +0.000 C 
ENDBRANCH  13  17
ENDBRANCH   5   8
ENDBRANCH   1   2
BRANCH   1  20
ATOM     20  C   UNL     1       0.322  10.615  18.809  0.00  0.00    +0.000 C 
BRANCH  20  21
ATOM     21  C   UNL     1      -1.139  10.726  18.335  0.00  0.00    +0.000 A 
ATOM     22  C   UNL     1      -1.621   9.920  17.284  0.00  0.00    +0.000 A 
ATOM     23  C   UNL     1      -2.942  10.024  16.832  0.00  0.00    +0.000 A 
ATOM     24  C   UNL     1      -3.825  10.904  17.447  0.00  0.00    +0.000 A 
ATOM     25  C   UNL     1      -3.387  11.679  18.515  0.00  0.00    +0.000 A 
ATOM     26  C   UNL     1      -2.062  11.588  18.955  0.00  0.00    +0.000 A 
ENDBRANCH  20  21
BRANCH  20  29
ATOM     27  C   UNL     1       1.810   8.661  18.397  0.00  0.00    +0.000 C 
ATOM     28  O   UNL     1       1.784   8.308  19.564  0.00  0.00    +0.000 OA
ATOM     29  N   UNL     1       1.108   9.752  17.927  0.00  0.00    +0.000 N 
ATOM     30  H   UNL     1       1.508  10.191  17.114  0.00  0.00    +0.000 HD
BRANCH  27  31
ATOM     31  C   UNL     1       2.599   7.947  17.313  0.00  0.00    +0.000 C 
BRANCH  31  32
ATOM     32  C   UNL     1       3.892   7.380  17.897  0.00  0.00    +0.000 C 
BRANCH  32  33
ATOM     33  C   UNL     1       4.312   6.062  17.247  0.00  0.00    +0.000 C 
BRANCH  33  34
ATOM     34  C   UNL     1       5.661   6.232  16.546  0.00  0.00    +0.000 C 
BRANCH  34  36
ATOM     35  C   UNL     1       7.567   6.375  18.178  0.00  0.00    +0.000 C 
ATOM     36  C   UNL     1       6.591   7.164  17.318  0.00  0.00    +0.000 C 
ENDBRANCH  34  36
ENDBRANCH  33  34
ENDBRANCH  32  33
ENDBRANCH  31  32
ENDBRANCH  27  31
ENDBRANCH  20  29
ENDBRANCH   1  20
TORSDOF 12
ENDMDL
MODEL 9
REMARK VINA RESULT:      -5.6      2.653      4.272
REMARK  Name = 
REMARK  17 active torsions:
REMARK  status: ('A' for Active; 'I' for Inactive)
REMARK    1  A    between atoms: C_1  and  C_2
REMARK    2  A    between atoms: C_2  and  C_3
REMARK    3  A    between atoms: C_3  and  C_4
REMARK    4  A    between atoms: C_4  and  C_5
REMARK    5  A    between atoms: C_5  and  C_6
REMARK    6  A    between atoms: C_6  and  C_7
REMARK    7  A    between atoms: N_9  and  C_10
REMARK    8  A    between atoms: C_10  and  C_11
REMARK    9  A    between atoms: C_10  and  C_28
REMARK   10  A    between atoms: C_11  and  N_12
REMARK   11  A    between atoms: N_15  and  C_16
REMARK   12  A    between atoms: C_17  and  C_18
REMARK   13  A    between atoms: C_18  and  C_19
REMARK   14  A    between atoms: C_18  and  C_20
REMARK   15  A    between atoms: C_24  and  C_25
REMARK   16  A    between atoms: C_25  and  C_26
REMARK   17  A    between atoms: C_25  and  C_27
REMARK                            x       y       z     vdW  Elec       q    Type
REMARK                         _______ _______ _______ _____ _____    ______ ____
ROOT
ATOM      1  C   UNL     1      -0.541  12.243  20.663  0.00  0.00    +0.000 C 
ENDROOT
BRANCH   1   2
ATOM      2  N   UNL     1      -1.454  12.787  21.665  0.00  0.00    +0.000 N 
ATOM      3  C   UNL     1      -1.607  12.277  22.920  0.00  0.00    +0.000 C 
ATOM      4  O   UNL     1      -0.992  11.303  23.341  0.00  0.00    +0.000 OA
ATOM      5  N   UNL     1      -2.487  12.946  23.736  0.00  0.00    +0.000 N 
ATOM      6  H   UNL     1      -1.902  13.670  21.464  0.00  0.00    +0.000 HD
ATOM      7  H   UNL     1      -2.316  12.750  24.714  0.00  0.00    +0.000 HD
BRANCH   5   8
ATOM      8  C   UNL     1      -3.138  14.152  23.417  0.00  0.00    +0.000 A 
ATOM      9  C   UNL     1      -2.556  15.372  23.872  0.00  0.00    +0.000 A 
ATOM     10  C   UNL     1      -3.246  16.567  23.611  0.00  0.00    +0.000 A 
ATOM     11  C   UNL     1      -4.450  16.566  22.921  0.00  0.00    +0.000 A 
ATOM     12  C   UNL     1      -4.989  15.370  22.461  0.00  0.00    +0.000 A 
ATOM     13  C   UNL     1      -4.369  14.136  22.706  0.00  0.00    +0.000 A 
BRANCH   9  14
ATOM     14  C   UNL     1      -1.189  15.451  24.562  0.00  0.00    +0.000 C 
ATOM     15  C   UNL     1      -0.286  16.433  23.806  0.00  0.00    +0.000 C 
ATOM     16  C   UNL     1      -1.227  15.871  26.045  0.00  0.00    +0.000 C 
ENDBRANCH   9  14
BRANCH  13  17
ATOM     17  C   UNL     1      -5.122  12.869  22.292  0.00  0.00    +0.000 C 
ATOM     18  C   UNL     1      -6.474  12.789  23.019  0.00  0.00    +0.000 C 
ATOM     19  C   UNL     1      -5.405  12.760  20.791  0.00  0.00    +0.000 C 
ENDBRANCH  13  17
ENDBRANCH   5   8
ENDBRANCH   1   2
BRANCH   1  20
ATOM     20  C   UNL     1      -0.937  10.806  20.213  0.00  0.00    +0.000 C 
BRANCH  20  21
ATOM     21  C   UNL     1      -1.665  10.733  18.858  0.00  0.00    +0.000 A 
ATOM     22  C   UNL     1      -2.769  11.566  18.586  0.00  0.00    +0.000 A 
ATOM     23  C   UNL     1      -3.450  11.498  17.364  0.00  0.00    +0.000 A 
ATOM     24  C   UNL     1      -3.019  10.628  16.370  0.00  0.00    +0.000 A 
ATOM     25  C   UNL     1      -1.906   9.827  16.597  0.00  0.00    +0.000 A 
ATOM     26  C   UNL     1      -1.235   9.882  17.823  0.00  0.00    +0.000 A 
ENDBRANCH  20  21
BRANCH  20  29
ATOM     27  C   UNL     1       0.354   8.832  21.012  0.00  0.00    +0.000 C 
ATOM     28  O   UNL     1      -0.563   8.428  21.708  0.00  0.00    +0.000 OA
ATOM     29  N   UNL     1       0.258   9.962  20.226  0.00  0.00    +0.000 N 
ATOM     30  H   UNL     1       1.134  10.425  20.048  0.00  0.00    +0.000 HD
BRANCH  27  31
ATOM     31  C   UNL     1       1.705   8.145  20.908  0.00  0.00    +0.000 C 
BRANCH  31  32
ATOM     32  C   UNL     1       1.670   7.091  19.803  0.00  0.00    +0.000 C 
BRANCH  32  33
ATOM     33  C   UNL     1       2.437   5.821  20.167  0.00  0.00    +0.000 C 
BRANCH  33  34
ATOM     34  C   UNL     1       1.495   4.616  20.142  0.00  0.00    +0.000 C 
BRANCH  34  36
ATOM     35  C   UNL     1       0.748   2.575  18.878  0.00  0.00    +0.000 C 
ATOM     36  C   UNL     1       1.627   3.816  18.848  0.00  0.00    +0.000 C 
ENDBRANCH  34  36
ENDBRANCH  33  34
ENDBRANCH  32  33
ENDBRANCH  31  32
ENDBRANCH  27  31
ENDBRANCH  20  29
ENDBRANCH   1  20
TORSDOF 12
ENDMDL
