MODEL 1
REMARK VINA RESULT:      -8.1      0.000      0.000
REMARK  Name = 
REMARK  5 active torsions:
REMARK  status: ('A' for Active; 'I' for Inactive)
REMARK    1  A    between atoms: C_1  and  C_2
REMARK    2  A    between atoms: C_2  and  C_3
REMARK    3  A    between atoms: C_11  and  C_12
REMARK    4  A    between atoms: N_14  and  C_15
REMARK    5  A    between atoms: C_15  and  C_16
REMARK                            x       y       z     vdW  Elec       q    Type
REMARK                         _______ _______ _______ _____ _____    ______ ____
ROOT
ATOM      1  C   UNL     1      -3.209  12.737  22.321  0.00  0.00    +0.000 C 
ATOM      2  C   UNL     1      -2.792  12.595  20.873  0.00  0.00    +0.000 C 
ATOM      3  N   UNL     1      -1.826  13.630  20.462  0.00  0.00    +0.000 N 
ATOM      4  C   UNL     1      -0.559  13.459  19.884  0.00  0.00    +0.000 C 
ATOM      5  O   UNL     1       0.219  14.409  19.733  0.00  0.00    +0.000 OA
ATOM      6  N   UNL     1      -0.101  12.192  19.502  0.00  0.00    +0.000 N 
ATOM      7  C   UNL     1       1.358  12.008  19.406  0.00  0.00    +0.000 C 
ATOM      8  C   UNL     1       1.754  11.106  18.237  0.00  0.00    +0.000 C 
ATOM      9  C   UNL     1       1.030   9.759  18.273  0.00  0.00    +0.000 C 
ATOM     10  C   UNL     1      -0.467  10.001  18.330  0.00  0.00    +0.000 C 
ATOM     11  C   UNL     1      -0.864  10.959  19.435  0.00  0.00    +0.000 C 
ATOM     12  C   UNL     1      -2.309  14.946  20.876  0.00  0.00    +0.000 A 
ATOM     13  C   UNL     1      -1.854  16.151  20.321  0.00  0.00    +0.000 A 
ATOM     14  C   UNL     1      -2.368  17.388  20.743  0.00  0.00    +0.000 A 
ATOM     15  C   UNL     1      -3.366  17.450  21.715  0.00  0.00    +0.000 A 
ATOM     16  C   UNL     1      -3.841  16.270  22.268  0.00  0.00    +0.000 A 
ATOM     17  C   UNL     1      -3.311  15.039  21.869  0.00  0.00    +0.000 A 
ATOM     18  O   UNL     1      -3.843  13.982  22.563  0.00  0.00    +0.000 OA
ENDROOT
BRANCH   9  19
ATOM     19  C   UNL     1       1.475   8.858  19.420  0.00  0.00    +0.000 C 
ATOM     20  O   UNL     1       1.163   9.051  20.591  0.00  0.00    +0.000 OA
ATOM     21  N   UNL     1       2.246   7.790  19.019  0.00  0.00    +0.000 N 
ATOM     22  H   UNL     1       2.245   7.532  18.041  0.00  0.00    +0.000 HD
BRANCH  21  23
ATOM     23  C   UNL     1       2.616   6.779  19.981  0.00  0.00    +0.000 C 
BRANCH  23  24
ATOM     24  C   UNL     1       2.068   5.429  19.595  0.00  0.00    +0.000 A 
ATOM     25  C   UNL     1       1.543   4.568  20.561  0.00  0.00    +0.000 A 
ATOM     26  C   UNL     1       0.989   3.338  20.193  0.00  0.00    +0.000 A 
ATOM     27  C   UNL     1       0.958   2.981  18.851  0.00  0.00    +0.000 A 
ATOM     28  F   UNL     1       0.407   1.815  18.492  0.00  0.00    +0.000 F 
ATOM     29  C   UNL     1       1.477   3.823  17.874  0.00  0.00    +0.000 A 
ATOM     30  C   UNL     1       2.035   5.048  18.237  0.00  0.00    +0.000 A 
ENDBRANCH  23  24
ENDBRANCH  21  23
ENDBRANCH   9  19
BRANCH   1  32
ATOM     31  C   UNL     1      -1.404  11.103  23.005  0.00  0.00    +0.000 C 
ATOM     32  C   UNL     1      -2.013  12.468  23.244  0.00  0.00    +0.000 C 
ENDBRANCH   1  32
TORSDOF 4
ENDMDL
MODEL 2
REMARK VINA RESULT:      -7.7      0.922      1.146
REMARK  Name = 
REMARK  5 active torsions:
REMARK  status: ('A' for Active; 'I' for Inactive)
REMARK    1  A    between atoms: C_1  and  C_2
REMARK    2  A    between atoms: C_2  and  C_3
REMARK    3  A    between atoms: C_11  and  C_12
REMARK    4  A    between atoms: N_14  and  C_15
REMARK    5  A    between atoms: C_15  and  C_16
REMARK                            x       y       z     vdW  Elec       q    Type
REMARK                         _______ _______ _______ _____ _____    ______ ____
ROOT
ATOM      1  C   UNL     1      -2.538  13.655  21.699  0.00  0.00    +0.000 C 
ATOM      2  C   UNL     1      -2.160  13.297  20.277  0.00  0.00    +0.000 C 
ATOM      3  N   UNL     1      -1.045  14.116  19.769  0.00  0.00    +0.000 N 
ATOM      4  C   UNL     1       0.174  13.686  19.223  0.00  0.00    +0.000 C 
ATOM      5  O   UNL     1       1.092  14.478  18.981  0.00  0.00    +0.000 OA
ATOM      6  N   UNL     1       0.421  12.329  18.978  0.00  0.00    +0.000 N 
ATOM      7  C   UNL     1       1.830  11.905  18.915  0.00  0.00    +0.000 C 
ATOM      8  C   UNL     1       2.067  10.835  17.849  0.00  0.00    +0.000 C 
ATOM      9  C   UNL     1       1.137   9.631  18.019  0.00  0.00    +0.000 C 
ATOM     10  C   UNL     1      -0.301  10.115  18.038  0.00  0.00    +0.000 C 
ATOM     11  C   UNL     1      -0.531  11.233  19.034  0.00  0.00    +0.000 C 
ATOM     12  C   UNL     1      -1.307  15.528  20.040  0.00  0.00    +0.000 A 
ATOM     13  C   UNL     1      -0.670  16.581  19.366  0.00  0.00    +0.000 A 
ATOM     14  C   UNL     1      -0.976  17.921  19.653  0.00  0.00    +0.000 A 
ATOM     15  C   UNL     1      -1.943  18.243  20.605  0.00  0.00    +0.000 A 
ATOM     16  C   UNL     1      -2.596  17.217  21.274  0.00  0.00    +0.000 A 
ATOM     17  C   UNL     1      -2.274  15.883  21.009  0.00  0.00    +0.000 A 
ATOM     18  O   UNL     1      -2.962  15.003  21.805  0.00  0.00    +0.000 OA
ENDROOT
BRANCH   9  19
ATOM     19  C   UNL     1       1.442   8.796  19.257  0.00  0.00    +0.000 C 
ATOM     20  O   UNL     1       0.998   9.052  20.372  0.00  0.00    +0.000 OA
ATOM     21  N   UNL     1       2.248   7.707  19.007  0.00  0.00    +0.000 N 
ATOM     22  H   UNL     1       2.358   7.396  18.051  0.00  0.00    +0.000 HD
BRANCH  21  23
ATOM     23  C   UNL     1       2.499   6.751  20.059  0.00  0.00    +0.000 C 
BRANCH  23  24
ATOM     24  C   UNL     1       2.011   5.377  19.678  0.00  0.00    +0.000 A 
ATOM     25  C   UNL     1       1.445   4.529  20.632  0.00  0.00    +0.000 A 
ATOM     26  C   UNL     1       0.947   3.275  20.265  0.00  0.00    +0.000 A 
ATOM     27  C   UNL     1       1.013   2.881  18.935  0.00  0.00    +0.000 A 
ATOM     28  F   UNL     1       0.515   1.692  18.575  0.00  0.00    +0.000 F 
ATOM     29  C   UNL     1       1.574   3.709  17.970  0.00  0.00    +0.000 A 
ATOM     30  C   UNL     1       2.076   4.958  18.333  0.00  0.00    +0.000 A 
ENDBRANCH  23  24
ENDBRANCH  21  23
ENDBRANCH   9  19
BRANCH   1  32
ATOM     31  C   UNL     1      -1.361  14.194  23.872  0.00  0.00    +0.000 C 
ATOM     32  C   UNL     1      -1.392  13.295  22.655  0.00  0.00    +0.000 C 
ENDBRANCH   1  32
TORSDOF 4
ENDMDL
MODEL 3
REMARK VINA RESULT:      -7.6      4.550     10.402
REMARK  Name = 
REMARK  5 active torsions:
REMARK  status: ('A' for Active; 'I' for Inactive)
REMARK    1  A    between atoms: C_1  and  C_2
REMARK    2  A    between atoms: C_2  and  C_3
REMARK    3  A    between atoms: C_11  and  C_12
REMARK    4  A    between atoms: N_14  and  C_15
REMARK    5  A    between atoms: C_15  and  C_16
REMARK                            x       y       z     vdW  Elec       q    Type
REMARK                         _______ _______ _______ _____ _____    ______ ____
ROOT
ATOM      1  C   UNL     1       4.024   5.833  17.531  0.00  0.00    +0.000 C 
ATOM      2  C   UNL     1       2.638   6.363  17.829  0.00  0.00    +0.000 C 
ATOM      3  N   UNL     1       2.280   6.232  19.253  0.00  0.00    +0.000 N 
ATOM      4  C   UNL     1       1.850   7.232  20.139  0.00  0.00    +0.000 C 
ATOM      5  O   UNL     1       1.735   7.018  21.352  0.00  0.00    +0.000 OA
ATOM      6  N   UNL     1       1.583   8.532  19.692  0.00  0.00    +0.000 N 
ATOM      7  C   UNL     1       1.653   9.611  20.691  0.00  0.00    +0.000 C 
ATOM      8  C   UNL     1       0.580  10.678  20.471  0.00  0.00    +0.000 C 
ATOM      9  C   UNL     1       0.607  11.242  19.048  0.00  0.00    +0.000 C 
ATOM     10  C   UNL     1       0.492  10.097  18.059  0.00  0.00    +0.000 C 
ATOM     11  C   UNL     1       1.498   8.994  18.318  0.00  0.00    +0.000 C 
ATOM     12  C   UNL     1       2.572   4.876  19.711  0.00  0.00    +0.000 A 
ATOM     13  C   UNL     1       2.009   4.304  20.862  0.00  0.00    +0.000 A 
ATOM     14  C   UNL     1       2.310   2.987  21.245  0.00  0.00    +0.000 A 
ATOM     15  C   UNL     1       3.166   2.200  20.475  0.00  0.00    +0.000 A 
ATOM     16  C   UNL     1       3.725   2.740  19.325  0.00  0.00    +0.000 A 
ATOM     17  C   UNL     1       3.447   4.060  18.956  0.00  0.00    +0.000 A 
ATOM     18  O   UNL     1       4.133   4.453  17.836  0.00  0.00    +0.000 OA
ENDROOT
BRANCH   9  19
ATOM     19  C   UNL     1       1.839  12.089  18.752  0.00  0.00    +0.000 C 
ATOM     20  O   UNL     1       2.565  11.912  17.779  0.00  0.00    +0.000 OA
ATOM     21  N   UNL     1       2.055  13.094  19.669  0.00  0.00    +0.000 N 
ATOM     22  H   UNL     1       1.295  13.362  20.282  0.00  0.00    +0.000 HD
BRANCH  21  23
ATOM     23  C   UNL     1       3.101  14.061  19.434  0.00  0.00    +0.000 C 
BRANCH  23  24
ATOM     24  C   UNL     1       2.583  15.254  18.672  0.00  0.00    +0.000 A 
ATOM     25  C   UNL     1       1.393  15.881  19.049  0.00  0.00    +0.000 A 
ATOM     26  C   UNL     1       0.943  17.018  18.373  0.00  0.00    +0.000 A 
ATOM     27  C   UNL     1       1.696  17.527  17.322  0.00  0.00    +0.000 A 
ATOM     28  F   UNL     1       1.281  18.630  16.688  0.00  0.00    +0.000 F 
ATOM     29  C   UNL     1       2.882  16.917  16.931  0.00  0.00    +0.000 A 
ATOM     30  C   UNL     1       3.332  15.780  17.599  0.00  0.00    +0.000 A 
ENDBRANCH  23  24
ENDBRANCH  21  23
ENDBRANCH   9  19
BRANCH   1  32
ATOM     31  C   UNL     1       6.486   6.192  17.983  0.00  0.00    +0.000 C 
ATOM     32  C   UNL     1       5.081   6.701  18.225  0.00  0.00    +0.000 C 
ENDBRANCH   1  32
TORSDOF 4
ENDMDL
MODEL 4
REMARK VINA RESULT:      -7.6      4.456      7.881
REMARK  Name = 
REMARK  5 active torsions:
REMARK  status: ('A' for Active; 'I' for Inactive)
REMARK    1  A    between atoms: C_1  and  C_2
REMARK    2  A    between atoms: C_2  and  C_3
REMARK    3  A    between atoms: C_11  and  C_12
REMARK    4  A    between atoms: N_14  and  C_15
REMARK    5  A    between atoms: C_15  and  C_16
REMARK                            x       y       z     vdW  Elec       q    Type
REMARK                         _______ _______ _______ _____ _____    ______ ____
ROOT
ATOM      1  C   UNL     1      -1.209  11.018  19.321  0.00  0.00    +0.000 C 
ATOM      2  C   UNL     1      -1.146  11.506  20.752  0.00  0.00    +0.000 C 
ATOM      3  N   UNL     1      -0.644  12.889  20.853  0.00  0.00    +0.000 N 
ATOM      4  C   UNL     1      -1.250  13.992  21.474  0.00  0.00    +0.000 C 
ATOM      5  O   UNL     1      -0.797  15.136  21.349  0.00  0.00    +0.000 OA
ATOM      6  N   UNL     1      -2.425  13.849  22.222  0.00  0.00    +0.000 N 
ATOM      7  C   UNL     1      -3.262  15.049  22.391  0.00  0.00    +0.000 C 
ATOM      8  C   UNL     1      -3.894  15.126  23.781  0.00  0.00    +0.000 C 
ATOM      9  C   UNL     1      -4.673  13.857  24.135  0.00  0.00    +0.000 C 
ATOM     10  C   UNL     1      -3.758  12.656  23.985  0.00  0.00    +0.000 C 
ATOM     11  C   UNL     1      -3.062  12.612  22.640  0.00  0.00    +0.000 C 
ATOM     12  C   UNL     1       0.575  13.030  20.060  0.00  0.00    +0.000 A 
ATOM     13  C   UNL     1       1.504  14.065  20.239  0.00  0.00    +0.000 A 
ATOM     14  C   UNL     1       2.671  14.140  19.462  0.00  0.00    +0.000 A 
ATOM     15  C   UNL     1       2.950  13.170  18.499  0.00  0.00    +0.000 A 
ATOM     16  C   UNL     1       2.051  12.129  18.314  0.00  0.00    +0.000 A 
ATOM     17  C   UNL     1       0.876  12.067  19.068  0.00  0.00    +0.000 A 
ATOM     18  O   UNL     1       0.070  11.016  18.711  0.00  0.00    +0.000 OA
ENDROOT
BRANCH   9  19
ATOM     19  C   UNL     1      -5.944  13.673  23.314  0.00  0.00    +0.000 C 
ATOM     20  O   UNL     1      -6.642  14.606  22.930  0.00  0.00    +0.000 OA
ATOM     21  N   UNL     1      -6.229  12.359  23.019  0.00  0.00    +0.000 N 
ATOM     22  H   UNL     1      -5.496  11.669  23.122  0.00  0.00    +0.000 HD
BRANCH  21  23
ATOM     23  C   UNL     1      -7.322  12.049  22.128  0.00  0.00    +0.000 C 
BRANCH  23  24
ATOM     24  C   UNL     1      -6.831  11.785  20.729  0.00  0.00    +0.000 A 
ATOM     25  C   UNL     1      -7.108  10.574  20.090  0.00  0.00    +0.000 A 
ATOM     26  C   UNL     1      -6.694  10.352  18.773  0.00  0.00    +0.000 A 
ATOM     27  C   UNL     1      -6.009  11.354  18.098  0.00  0.00    +0.000 A 
ATOM     28  F   UNL     1      -5.632  11.155  16.830  0.00  0.00    +0.000 F 
ATOM     29  C   UNL     1      -5.722  12.566  18.716  0.00  0.00    +0.000 A 
ATOM     30  C   UNL     1      -6.128  12.789  20.031  0.00  0.00    +0.000 A 
ENDBRANCH  23  24
ENDBRANCH  21  23
ENDBRANCH   9  19
BRANCH   1  32
ATOM     31  C   UNL     1      -2.367  11.360  17.098  0.00  0.00    +0.000 C 
ATOM     32  C   UNL     1      -2.261  11.815  18.538  0.00  0.00    +0.000 C 
ENDBRANCH   1  32
TORSDOF 4
ENDMDL
MODEL 5
REMARK VINA RESULT:      -7.6      2.451      3.562
REMARK  Name = 
REMARK  5 active torsions:
REMARK  status: ('A' for Active; 'I' for Inactive)
REMARK    1  A    between atoms: C_1  and  C_2
REMARK    2  A    between atoms: C_2  and  C_3
REMARK    3  A    between atoms: C_11  and  C_12
REMARK    4  A    between atoms: N_14  and  C_15
REMARK    5  A    between atoms: C_15  and  C_16
REMARK                            x       y       z     vdW  Elec       q    Type
REMARK                         _______ _______ _______ _____ _____    ______ ____
ROOT
ATOM      1  C   UNL     1       2.504  15.223  21.810  0.00  0.00    +0.000 C 
ATOM      2  C   UNL     1       1.149  14.555  21.707  0.00  0.00    +0.000 C 
ATOM      3  N   UNL     1       0.608  14.591  20.336  0.00  0.00    +0.000 N 
ATOM      4  C   UNL     1       0.171  13.518  19.544  0.00  0.00    +0.000 C 
ATOM      5  O   UNL     1      -0.113  13.668  18.349  0.00  0.00    +0.000 OA
ATOM      6  N   UNL     1       0.087  12.220  20.062  0.00  0.00    +0.000 N 
ATOM      7  C   UNL     1       0.137  11.109  19.097  0.00  0.00    +0.000 C 
ATOM      8  C   UNL     1      -0.794   9.960  19.486  0.00  0.00    +0.000 C 
ATOM      9  C   UNL     1      -0.538   9.463  20.910  0.00  0.00    +0.000 C 
ATOM     10  C   UNL     1      -0.640  10.635  21.869  0.00  0.00    +0.000 C 
ATOM     11  C   UNL     1       0.216  11.812  21.450  0.00  0.00    +0.000 C 
ATOM     12  C   UNL     1       0.711  15.947  19.801  0.00  0.00    +0.000 A 
ATOM     13  C   UNL     1      -0.042  16.414  18.713  0.00  0.00    +0.000 A 
ATOM     14  C   UNL     1       0.082  17.735  18.253  0.00  0.00    +0.000 A 
ATOM     15  C   UNL     1       0.946  18.630  18.883  0.00  0.00    +0.000 A 
ATOM     16  C   UNL     1       1.691  18.194  19.970  0.00  0.00    +0.000 A 
ATOM     17  C   UNL     1       1.589  16.872  20.413  0.00  0.00    +0.000 A 
ATOM     18  O   UNL     1       2.442  16.592  21.450  0.00  0.00    +0.000 OA
ENDROOT
BRANCH   9  19
ATOM     19  C   UNL     1       0.797   8.745  21.075  0.00  0.00    +0.000 C 
ATOM     20  O   UNL     1       1.430   8.728  22.126  0.00  0.00    +0.000 OA
ATOM     21  N   UNL     1       1.221   8.094  19.938  0.00  0.00    +0.000 N 
ATOM     22  H   UNL     1       0.549   7.916  19.203  0.00  0.00    +0.000 HD
BRANCH  21  23
ATOM     23  C   UNL     1       2.394   7.256  19.994  0.00  0.00    +0.000 C 
BRANCH  23  24
ATOM     24  C   UNL     1       2.069   5.832  19.624  0.00  0.00    +0.000 A 
ATOM     25  C   UNL     1       1.658   4.917  20.596  0.00  0.00    +0.000 A 
ATOM     26  C   UNL     1       1.307   3.611  20.242  0.00  0.00    +0.000 A 
ATOM     27  C   UNL     1       1.363   3.231  18.908  0.00  0.00    +0.000 A 
ATOM     28  F   UNL     1       1.005   1.988  18.561  0.00  0.00    +0.000 F 
ATOM     29  C   UNL     1       1.771   4.125  17.925  0.00  0.00    +0.000 A 
ATOM     30  C   UNL     1       2.127   5.427  18.274  0.00  0.00    +0.000 A 
ENDBRANCH  23  24
ENDBRANCH  21  23
ENDBRANCH   9  19
BRANCH   1  32
ATOM     31  C   UNL     1       4.511  15.325  20.275  0.00  0.00    +0.000 C 
ATOM     32  C   UNL     1       3.547  14.425  21.016  0.00  0.00    +0.000 C 
ENDBRANCH   1  32
TORSDOF 4
ENDMDL
MODEL 6
REMARK VINA RESULT:      -7.4      1.005      1.167
REMARK  Name = 
REMARK  5 active torsions:
REMARK  status: ('A' for Active; 'I' for Inactive)
REMARK    1  A    between atoms: C_1  and  C_2
REMARK    2  A    between atoms: C_2  and  C_3
REMARK    3  A    between atoms: C_11  and  C_12
REMARK    4  A    between atoms: N_14  and  C_15
REMARK    5  A    between atoms: C_15  and  C_16
REMARK                            x       y       z     vdW  Elec       q    Type
REMARK                         _______ _______ _______ _____ _____    ______ ____
ROOT
ATOM      1  C   UNL     1      -3.073  12.825  22.254  0.00  0.00    +0.000 C 
ATOM      2  C   UNL     1      -2.657  12.676  20.807  0.00  0.00    +0.000 C 
ATOM      3  N   UNL     1      -1.647  13.673  20.407  0.00  0.00    +0.000 N 
ATOM      4  C   UNL     1      -0.385  13.453  19.832  0.00  0.00    +0.000 C 
ATOM      5  O   UNL     1       0.432  14.371  19.691  0.00  0.00    +0.000 OA
ATOM      6  N   UNL     1       0.021  12.171  19.442  0.00  0.00    +0.000 N 
ATOM      7  C   UNL     1       1.471  11.927  19.350  0.00  0.00    +0.000 C 
ATOM      8  C   UNL     1       1.833  11.018  18.175  0.00  0.00    +0.000 C 
ATOM      9  C   UNL     1       1.053   9.702  18.199  0.00  0.00    +0.000 C 
ATOM     10  C   UNL     1      -0.432  10.006  18.252  0.00  0.00    +0.000 C 
ATOM     11  C   UNL     1      -0.793  10.972  19.363  0.00  0.00    +0.000 C 
ATOM     12  C   UNL     1      -2.075  15.005  20.829  0.00  0.00    +0.000 A 
ATOM     13  C   UNL     1      -1.569  16.194  20.285  0.00  0.00    +0.000 A 
ATOM     14  C   UNL     1      -2.032  17.448  20.714  0.00  0.00    +0.000 A 
ATOM     15  C   UNL     1      -3.031  17.545  21.684  0.00  0.00    +0.000 A 
ATOM     16  C   UNL     1      -3.556  16.381  22.226  0.00  0.00    +0.000 A 
ATOM     17  C   UNL     1      -3.077  15.132  21.819  0.00  0.00    +0.000 A 
ATOM     18  O   UNL     1      -3.656  14.093  22.503  0.00  0.00    +0.000 OA
ENDROOT
BRANCH   9  19
ATOM     19  C   UNL     1       1.456   8.775  19.340  0.00  0.00    +0.000 C 
ATOM     20  O   UNL     1       1.127   8.958  20.508  0.00  0.00    +0.000 OA
ATOM     21  N   UNL     1       2.208   7.694  18.938  0.00  0.00    +0.000 N 
ATOM     22  H   UNL     1       2.219   7.449  17.956  0.00  0.00    +0.000 HD
BRANCH  21  23
ATOM     23  C   UNL     1       2.537   6.661  19.891  0.00  0.00    +0.000 C 
BRANCH  23  24
ATOM     24  C   UNL     1       2.855   5.360  19.201  0.00  0.00    +0.000 A 
ATOM     25  C   UNL     1       4.101   4.750  19.364  0.00  0.00    +0.000 A 
ATOM     26  C   UNL     1       4.375   3.517  18.764  0.00  0.00    +0.000 A 
ATOM     27  C   UNL     1       3.389   2.897  18.006  0.00  0.00    +0.000 A 
ATOM     28  F   UNL     1       3.639   1.705  17.450  0.00  0.00    +0.000 F 
ATOM     29  C   UNL     1       2.143   3.488  17.830  0.00  0.00    +0.000 A 
ATOM     30  C   UNL     1       1.868   4.719  18.423  0.00  0.00    +0.000 A 
ENDBRANCH  23  24
ENDBRANCH  21  23
ENDBRANCH   9  19
BRANCH   1  32
ATOM     31  C   UNL     1      -1.403  11.078  22.999  0.00  0.00    +0.000 C 
ATOM     32  C   UNL     1      -1.893  12.498  23.179  0.00  0.00    +0.000 C 
ENDBRANCH   1  32
TORSDOF 4
ENDMDL
MODEL 7
REMARK VINA RESULT:      -7.4      6.625     10.153
REMARK  Name = 
REMARK  5 active torsions:
REMARK  status: ('A' for Active; 'I' for Inactive)
REMARK    1  A    between atoms: C_1  and  C_2
REMARK    2  A    between atoms: C_2  and  C_3
REMARK    3  A    between atoms: C_11  and  C_12
REMARK    4  A    between atoms: N_14  and  C_15
REMARK    5  A    between atoms: C_15  and  C_16
REMARK                            x       y       z     vdW  Elec       q    Type
REMARK                         _______ _______ _______ _____ _____    ______ ____
ROOT
ATOM      1  C   UNL     1       8.957  13.803  21.711  0.00  0.00    +0.000 C 
ATOM      2  C   UNL     1       8.590  14.756  20.593  0.00  0.00    +0.000 C 
ATOM      3  N   UNL     1       8.482  14.077  19.288  0.00  0.00    +0.000 N 
ATOM      4  C   UNL     1       7.399  14.071  18.396  0.00  0.00    +0.000 C 
ATOM      5  O   UNL     1       7.379  13.330  17.406  0.00  0.00    +0.000 OA
ATOM      6  N   UNL     1       6.271  14.870  18.619  0.00  0.00    +0.000 N 
ATOM      7  C   UNL     1       5.013  14.447  17.980  0.00  0.00    +0.000 C 
ATOM      8  C   UNL     1       4.186  15.633  17.485  0.00  0.00    +0.000 C 
ATOM      9  C   UNL     1       3.923  16.658  18.590  0.00  0.00    +0.000 C 
ATOM     10  C   UNL     1       5.248  17.092  19.188  0.00  0.00    +0.000 C 
ATOM     11  C   UNL     1       6.113  15.922  19.608  0.00  0.00    +0.000 C 
ATOM     12  C   UNL     1       9.659  13.238  19.071  0.00  0.00    +0.000 A 
ATOM     13  C   UNL     1      10.063  12.776  17.810  0.00  0.00    +0.000 A 
ATOM     14  C   UNL     1      11.216  11.989  17.657  0.00  0.00    +0.000 A 
ATOM     15  C   UNL     1      12.006  11.661  18.758  0.00  0.00    +0.000 A 
ATOM     16  C   UNL     1      11.633  12.119  20.014  0.00  0.00    +0.000 A 
ATOM     17  C   UNL     1      10.471  12.880  20.173  0.00  0.00    +0.000 A 
ATOM     18  O   UNL     1      10.214  13.190  21.484  0.00  0.00    +0.000 OA
ENDROOT
BRANCH   9  19
ATOM     19  C   UNL     1       2.979  16.155  19.676  0.00  0.00    +0.000 C 
ATOM     20  O   UNL     1       3.123  16.409  20.868  0.00  0.00    +0.000 OA
ATOM     21  N   UNL     1       1.930  15.403  19.195  0.00  0.00    +0.000 N 
ATOM     22  H   UNL     1       1.711  15.452  18.208  0.00  0.00    +0.000 HD
BRANCH  21  23
ATOM     23  C   UNL     1       0.882  14.985  20.095  0.00  0.00    +0.000 C 
BRANCH  23  24
ATOM     24  C   UNL     1       0.738  13.485  20.108  0.00  0.00    +0.000 A 
ATOM     25  C   UNL     1       1.154  12.717  19.018  0.00  0.00    +0.000 A 
ATOM     26  C   UNL     1       1.066  11.322  19.054  0.00  0.00    +0.000 A 
ATOM     27  C   UNL     1       0.566  10.702  20.192  0.00  0.00    +0.000 A 
ATOM     28  F   UNL     1       0.503   9.366  20.240  0.00  0.00    +0.000 F 
ATOM     29  C   UNL     1       0.145  11.448  21.287  0.00  0.00    +0.000 A 
ATOM     30  C   UNL     1       0.227  12.839  21.253  0.00  0.00    +0.000 A 
ENDBRANCH  23  24
ENDBRANCH  21  23
ENDBRANCH   9  19
BRANCH   1  32
ATOM     31  C   UNL     1       8.211  11.708  22.916  0.00  0.00    +0.000 C 
ATOM     32  C   UNL     1       7.819  12.801  21.945  0.00  0.00    +0.000 C 
ENDBRANCH   1  32
TORSDOF 4
ENDMDL
MODEL 8
REMARK VINA RESULT:      -7.4      4.381     10.453
REMARK  Name = 
REMARK  5 active torsions:
REMARK  status: ('A' for Active; 'I' for Inactive)
REMARK    1  A    between atoms: C_1  and  C_2
REMARK    2  A    between atoms: C_2  and  C_3
REMARK    3  A    between atoms: C_11  and  C_12
REMARK    4  A    between atoms: N_14  and  C_15
REMARK    5  A    between atoms: C_15  and  C_16
REMARK                            x       y       z     vdW  Elec       q    Type
REMARK                         _______ _______ _______ _____ _____    ______ ____
ROOT
ATOM      1  C   UNL     1       4.223   6.449  17.071  0.00  0.00    +0.000 C 
ATOM      2  C   UNL     1       2.793   6.760  17.460  0.00  0.00    +0.000 C 
ATOM      3  N   UNL     1       2.440   6.216  18.784  0.00  0.00    +0.000 N 
ATOM      4  C   UNL     1       1.918   6.897  19.895  0.00  0.00    +0.000 C 
ATOM      5  O   UNL     1       1.815   6.351  21.000  0.00  0.00    +0.000 OA
ATOM      6  N   UNL     1       1.540   8.242  19.809  0.00  0.00    +0.000 N 
ATOM      7  C   UNL     1       1.508   9.010  21.065  0.00  0.00    +0.000 C 
ATOM      8  C   UNL     1       0.346  10.003  21.110  0.00  0.00    +0.000 C 
ATOM      9  C   UNL     1       0.332  10.933  19.895  0.00  0.00    +0.000 C 
ATOM     10  C   UNL     1       0.324  10.097  18.630  0.00  0.00    +0.000 C 
ATOM     11  C   UNL     1       1.422   9.053  18.610  0.00  0.00    +0.000 C 
ATOM     12  C   UNL     1       2.849   4.815  18.866  0.00  0.00    +0.000 A 
ATOM     13  C   UNL     1       2.332   3.907  19.801  0.00  0.00    +0.000 A 
ATOM     14  C   UNL     1       2.746   2.566  19.822  0.00  0.00    +0.000 A 
ATOM     15  C   UNL     1       3.673   2.092  18.893  0.00  0.00    +0.000 A 
ATOM     16  C   UNL     1       4.188   2.970  17.950  0.00  0.00    +0.000 A 
ATOM     17  C   UNL     1       3.797   4.312  17.945  0.00  0.00    +0.000 A 
ATOM     18  O   UNL     1       4.452   5.053  16.994  0.00  0.00    +0.000 OA
ENDROOT
BRANCH   9  19
ATOM     19  C   UNL     1       1.485  11.930  19.877  0.00  0.00    +0.000 C 
ATOM     20  O   UNL     1       2.104  12.266  20.882  0.00  0.00    +0.000 OA
ATOM     21  N   UNL     1       1.788  12.406  18.621  0.00  0.00    +0.000 N 
ATOM     22  H   UNL     1       1.438  11.904  17.815  0.00  0.00    +0.000 HD
BRANCH  21  23
ATOM     23  C   UNL     1       2.948  13.244  18.438  0.00  0.00    +0.000 C 
BRANCH  23  24
ATOM     24  C   UNL     1       2.558  14.687  18.250  0.00  0.00    +0.000 A 
ATOM     25  C   UNL     1       3.332  15.541  17.460  0.00  0.00    +0.000 A 
ATOM     26  C   UNL     1       2.939  16.865  17.246  0.00  0.00    +0.000 A 
ATOM     27  C   UNL     1       1.762  17.326  17.822  0.00  0.00    +0.000 A 
ATOM     28  F   UNL     1       1.369  18.586  17.600  0.00  0.00    +0.000 F 
ATOM     29  C   UNL     1       0.978  16.493  18.613  0.00  0.00    +0.000 A 
ATOM     30  C   UNL     1       1.369  15.174  18.833  0.00  0.00    +0.000 A 
ENDBRANCH  23  24
ENDBRANCH  21  23
ENDBRANCH   9  19
BRANCH   1  32
ATOM     31  C   UNL     1       6.602   7.220  17.448  0.00  0.00    +0.000 C 
ATOM     32  C   UNL     1       5.195   7.181  18.006  0.00  0.00    +0.000 C 
ENDBRANCH   1  32
TORSDOF 4
ENDMDL
MODEL 9
REMARK VINA RESULT:      -7.3      4.388      7.856
REMARK  Name = 
REMARK  5 active torsions:
REMARK  status: ('A' for Active; 'I' for Inactive)
REMARK    1  A    between atoms: C_1  and  C_2
REMARK    2  A    between atoms: C_2  and  C_3
REMARK    3  A    between atoms: C_11  and  C_12
REMARK    4  A    between atoms: N_14  and  C_15
REMARK    5  A    between atoms: C_15  and  C_16
REMARK                            x       y       z     vdW  Elec       q    Type
REMARK                         _______ _______ _______ _____ _____    ______ ____
ROOT
ATOM      1  C   UNL     1      -1.093  10.931  19.712  0.00  0.00    +0.000 C 
ATOM      2  C   UNL     1      -1.101  11.767  20.974  0.00  0.00    +0.000 C 
ATOM      3  N   UNL     1      -0.764  13.179  20.715  0.00  0.00    +0.000 N 
ATOM      4  C   UNL     1      -1.499  14.326  21.052  0.00  0.00    +0.000 C 
ATOM      5  O   UNL     1      -1.180  15.446  20.635  0.00  0.00    +0.000 OA
ATOM      6  N   UNL     1      -2.657  14.241  21.835  0.00  0.00    +0.000 N 
ATOM      7  C   UNL     1      -3.629  15.341  21.713  0.00  0.00    +0.000 C 
ATOM      8  C   UNL     1      -4.280  15.691  23.051  0.00  0.00    +0.000 C 
ATOM      9  C   UNL     1      -4.910  14.472  23.727  0.00  0.00    +0.000 C 
ATOM     10  C   UNL     1      -3.861  13.384  23.865  0.00  0.00    +0.000 C 
ATOM     11  C   UNL     1      -3.151  13.085  22.561  0.00  0.00    +0.000 C 
ATOM     12  C   UNL     1       0.439  13.255  19.889  0.00  0.00    +0.000 A 
ATOM     13  C   UNL     1       1.241  14.401  19.785  0.00  0.00    +0.000 A 
ATOM     14  C   UNL     1       2.399  14.411  18.992  0.00  0.00    +0.000 A 
ATOM     15  C   UNL     1       2.798  13.269  18.298  0.00  0.00    +0.000 A 
ATOM     16  C   UNL     1       2.027  12.119  18.396  0.00  0.00    +0.000 A 
ATOM     17  C   UNL     1       0.859  12.114  19.165  0.00  0.00    +0.000 A 
ATOM     18  O   UNL     1       0.184  10.922  19.098  0.00  0.00    +0.000 OA
ENDROOT
BRANCH   9  19
ATOM     19  C   UNL     1      -6.143  13.943  23.002  0.00  0.00    +0.000 C 
ATOM     20  O   UNL     1      -7.031  14.667  22.562  0.00  0.00    +0.000 OA
ATOM     21  N   UNL     1      -6.162  12.573  22.865  0.00  0.00    +0.000 N 
ATOM     22  H   UNL     1      -5.299  12.061  22.999  0.00  0.00    +0.000 HD
BRANCH  21  23
ATOM     23  C   UNL     1      -7.197  11.951  22.075  0.00  0.00    +0.000 C 
BRANCH  23  24
ATOM     24  C   UNL     1      -6.756  11.758  20.647  0.00  0.00    +0.000 A 
ATOM     25  C   UNL     1      -5.962  12.714  20.009  0.00  0.00    +0.000 A 
ATOM     26  C   UNL     1      -5.511  12.508  18.702  0.00  0.00    +0.000 A 
ATOM     27  C   UNL     1      -5.855  11.335  18.042  0.00  0.00    +0.000 A 
ATOM     28  F   UNL     1      -5.406  11.123  16.799  0.00  0.00    +0.000 F 
ATOM     29  C   UNL     1      -6.646  10.372  18.659  0.00  0.00    +0.000 A 
ATOM     30  C   UNL     1      -7.101  10.576  19.960  0.00  0.00    +0.000 A 
ENDBRANCH  23  24
ENDBRANCH  21  23
ENDBRANCH   9  19
BRANCH   1  32
ATOM     31  C   UNL     1      -2.227  10.606  17.474  0.00  0.00    +0.000 C 
ATOM     32  C   UNL     1      -2.222  11.380  18.775  0.00  0.00    +0.000 C 
ENDBRANCH   1  32
TORSDOF 4
ENDMDL
