MODEL 1
REMARK VINA RESULT:      -6.6      0.000      0.000
REMARK  Name = 
REMARK  8 active torsions:
REMARK  status: ('A' for Active; 'I' for Inactive)
REMARK    1  A    between atoms: C_1  and  C_2
REMARK    2  A    between atoms: C_7  and  O_8
REMARK    3  A    between atoms: O_8  and  C_9
REMARK    4  A    between atoms: C_12  and  O_13
REMARK    5  A    between atoms: O_13  and  C_14
REMARK    6  A    between atoms: C_14  and  C_15
REMARK    7  A    between atoms: C_15  and  S_16
REMARK    8  A    between atoms: S_16  and  C_17
REMARK                            x       y       z     vdW  Elec       q    Type
REMARK                         _______ _______ _______ _____ _____    ______ ____
ROOT
ATOM      1  C   UNL     1       2.431   7.158  19.421  0.00  0.00    +0.000 A 
ATOM      2  C   UNL     1       2.401   7.751  18.160  0.00  0.00    +0.000 A 
ATOM      3  C   UNL     1       1.709   8.949  17.960  0.00  0.00    +0.000 A 
ATOM      4  C   UNL     1       1.030   9.561  19.016  0.00  0.00    +0.000 A 
ATOM      5  C   UNL     1       1.066   8.969  20.281  0.00  0.00    +0.000 A 
ATOM      6  C   UNL     1       1.740   7.758  20.479  0.00  0.00    +0.000 A 
ENDROOT
BRANCH   1   7
ATOM      7  O   UNL     1       3.119   5.967  19.522  0.00  0.00    +0.000 OA
BRANCH   7  14
ATOM      8  C   UNL     1       3.844   4.427  17.219  0.00  0.00    +0.000 C 
ATOM      9  C   UNL     1       2.765   4.020  18.181  0.00  0.00    +0.000 A 
ATOM     10  C   UNL     1       2.029   2.851  17.919  0.00  0.00    +0.000 A 
ATOM     11  C   UNL     1       1.032   2.424  18.795  0.00  0.00    +0.000 A 
ATOM     12  C   UNL     1       0.777   3.135  19.961  0.00  0.00    +0.000 A 
ATOM     13  C   UNL     1       1.499   4.294  20.236  0.00  0.00    +0.000 A 
ATOM     14  C   UNL     1       2.444   4.780  19.320  0.00  0.00    +0.000 A 
ENDBRANCH   7  14
ENDBRANCH   1   7
BRANCH   4  15
ATOM     15  O   UNL     1       0.290  10.712  18.924  0.00  0.00    +0.000 OA
BRANCH  15  16
ATOM     16  C   UNL     1      -0.798  10.829  19.845  0.00  0.00    +0.000 C 
BRANCH  16  17
ATOM     17  C   UNL     1      -0.883  12.244  20.412  0.00  0.00    +0.000 C 
BRANCH  17  18
ATOM     18  S   UNL     1      -1.805  12.269  21.983  0.00  0.00    +0.000 S 
BRANCH  18  19
ATOM     19  C   UNL     1      -0.886  11.107  22.795  0.00  0.00    +0.000 C 
ATOM     20  N   UNL     1      -0.253  10.300  23.327  0.00  0.00    +0.000 NA
ENDBRANCH  18  19
ENDBRANCH  17  18
ENDBRANCH  16  17
ENDBRANCH  15  16
ENDBRANCH   4  15
TORSDOF 7
ENDMDL
MODEL 2
REMARK VINA RESULT:      -6.5      6.096      7.913
REMARK  Name = 
REMARK  8 active torsions:
REMARK  status: ('A' for Active; 'I' for Inactive)
REMARK    1  A    between atoms: C_1  and  C_2
REMARK    2  A    between atoms: C_7  and  O_8
REMARK    3  A    between atoms: O_8  and  C_9
REMARK    4  A    between atoms: C_12  and  O_13
REMARK    5  A    between atoms: O_13  and  C_14
REMARK    6  A    between atoms: C_14  and  C_15
REMARK    7  A    between atoms: C_15  and  S_16
REMARK    8  A    between atoms: S_16  and  C_17
REMARK                            x       y       z     vdW  Elec       q    Type
REMARK                         _______ _______ _______ _____ _____    ______ ____
ROOT
ATOM      1  C   UNL     1       4.151   5.815  18.346  0.00  0.00    +0.000 A 
ATOM      2  C   UNL     1       4.985   4.734  18.622  0.00  0.00    +0.000 A 
ATOM      3  C   UNL     1       6.073   4.452  17.791  0.00  0.00    +0.000 A 
ATOM      4  C   UNL     1       6.331   5.240  16.667  0.00  0.00    +0.000 A 
ATOM      5  C   UNL     1       5.497   6.327  16.395  0.00  0.00    +0.000 A 
ATOM      6  C   UNL     1       4.394   6.599  17.214  0.00  0.00    +0.000 A 
ENDROOT
BRANCH   1   7
ATOM      7  O   UNL     1       3.090   6.005  19.208  0.00  0.00    +0.000 OA
BRANCH   7  14
ATOM      8  C   UNL     1       1.426   4.402  17.517  0.00  0.00    +0.000 C 
ATOM      9  C   UNL     1       1.639   4.120  18.977  0.00  0.00    +0.000 A 
ATOM     10  C   UNL     1       0.949   3.047  19.567  0.00  0.00    +0.000 A 
ATOM     11  C   UNL     1       1.132   2.737  20.914  0.00  0.00    +0.000 A 
ATOM     12  C   UNL     1       2.030   3.467  21.683  0.00  0.00    +0.000 A 
ATOM     13  C   UNL     1       2.723   4.531  21.112  0.00  0.00    +0.000 A 
ATOM     14  C   UNL     1       2.482   4.907  19.782  0.00  0.00    +0.000 A 
ENDBRANCH   7  14
ENDBRANCH   1   7
BRANCH   4  15
ATOM     15  O   UNL     1       7.342   5.032  15.765  0.00  0.00    +0.000 OA
BRANCH  15  16
ATOM     16  C   UNL     1       6.970   5.096  14.386  0.00  0.00    +0.000 C 
BRANCH  16  17
ATOM     17  C   UNL     1       6.268   3.812  13.950  0.00  0.00    +0.000 C 
BRANCH  17  18
ATOM     18  S   UNL     1       6.612   3.436  12.202  0.00  0.00    +0.000 S 
BRANCH  18  19
ATOM     19  C   UNL     1       5.011   3.255  11.697  0.00  0.00    +0.000 C 
ATOM     20  N   UNL     1       3.906   3.139  11.375  0.00  0.00    +0.000 NA
ENDBRANCH  18  19
ENDBRANCH  17  18
ENDBRANCH  16  17
ENDBRANCH  15  16
ENDBRANCH   4  15
TORSDOF 7
ENDMDL
MODEL 3
REMARK VINA RESULT:      -6.5      2.605      2.947
REMARK  Name = 
REMARK  8 active torsions:
REMARK  status: ('A' for Active; 'I' for Inactive)
REMARK    1  A    between atoms: C_1  and  C_2
REMARK    2  A    between atoms: C_7  and  O_8
REMARK    3  A    between atoms: O_8  and  C_9
REMARK    4  A    between atoms: C_12  and  O_13
REMARK    5  A    between atoms: O_13  and  C_14
REMARK    6  A    between atoms: C_14  and  C_15
REMARK    7  A    between atoms: C_15  and  S_16
REMARK    8  A    between atoms: S_16  and  C_17
REMARK                            x       y       z     vdW  Elec       q    Type
REMARK                         _______ _______ _______ _____ _____    ______ ____
ROOT
ATOM      1  C   UNL     1       2.327   7.288  19.519  0.00  0.00    +0.000 A 
ATOM      2  C   UNL     1       2.262   7.857  18.249  0.00  0.00    +0.000 A 
ATOM      3  C   UNL     1       1.551   9.042  18.042  0.00  0.00    +0.000 A 
ATOM      4  C   UNL     1       0.885   9.665  19.100  0.00  0.00    +0.000 A 
ATOM      5  C   UNL     1       0.956   9.097  20.374  0.00  0.00    +0.000 A 
ATOM      6  C   UNL     1       1.650   7.898  20.581  0.00  0.00    +0.000 A 
ENDROOT
BRANCH   1   7
ATOM      7  O   UNL     1       3.032   6.107  19.627  0.00  0.00    +0.000 OA
BRANCH   7  14
ATOM      8  C   UNL     1       3.806   4.622  17.304  0.00  0.00    +0.000 C 
ATOM      9  C   UNL     1       2.728   4.177  18.251  0.00  0.00    +0.000 A 
ATOM     10  C   UNL     1       2.017   2.999  17.962  0.00  0.00    +0.000 A 
ATOM     11  C   UNL     1       1.021   2.538  18.822  0.00  0.00    +0.000 A 
ATOM     12  C   UNL     1       0.743   3.223  19.998  0.00  0.00    +0.000 A 
ATOM     13  C   UNL     1       1.440   4.391  20.299  0.00  0.00    +0.000 A 
ATOM     14  C   UNL     1       2.382   4.911  19.400  0.00  0.00    +0.000 A 
ENDBRANCH   7  14
ENDBRANCH   1   7
BRANCH   4  15
ATOM     15  O   UNL     1       0.129  10.805  19.003  0.00  0.00    +0.000 OA
BRANCH  15  16
ATOM     16  C   UNL     1      -0.769  10.865  17.892  0.00  0.00    +0.000 C 
BRANCH  16  17
ATOM     17  C   UNL     1      -2.121  10.254  18.250  0.00  0.00    +0.000 C 
BRANCH  17  18
ATOM     18  S   UNL     1      -3.476  11.094  17.368  0.00  0.00    +0.000 S 
BRANCH  18  19
ATOM     19  C   UNL     1      -3.035  10.639  15.803  0.00  0.00    +0.000 C 
ATOM     20  N   UNL     1      -2.717  10.348  14.730  0.00  0.00    +0.000 NA
ENDBRANCH  18  19
ENDBRANCH  17  18
ENDBRANCH  16  17
ENDBRANCH  15  16
ENDBRANCH   4  15
TORSDOF 7
ENDMDL
MODEL 4
REMARK VINA RESULT:      -6.5      6.070      8.482
REMARK  Name = 
REMARK  8 active torsions:
REMARK  status: ('A' for Active; 'I' for Inactive)
REMARK    1  A    between atoms: C_1  and  C_2
REMARK    2  A    between atoms: C_7  and  O_8
REMARK    3  A    between atoms: O_8  and  C_9
REMARK    4  A    between atoms: C_12  and  O_13
REMARK    5  A    between atoms: O_13  and  C_14
REMARK    6  A    between atoms: C_14  and  C_15
REMARK    7  A    between atoms: C_15  and  S_16
REMARK    8  A    between atoms: S_16  and  C_17
REMARK                            x       y       z     vdW  Elec       q    Type
REMARK                         _______ _______ _______ _____ _____    ______ ____
ROOT
ATOM      1  C   UNL     1       4.895   5.344  17.917  0.00  0.00    +0.000 A 
ATOM      2  C   UNL     1       6.065   4.600  18.053  0.00  0.00    +0.000 A 
ATOM      3  C   UNL     1       7.001   4.560  17.015  0.00  0.00    +0.000 A 
ATOM      4  C   UNL     1       6.771   5.253  15.825  0.00  0.00    +0.000 A 
ATOM      5  C   UNL     1       5.600   6.004  15.692  0.00  0.00    +0.000 A 
ATOM      6  C   UNL     1       4.651   6.028  16.722  0.00  0.00    +0.000 A 
ENDROOT
BRANCH   1   7
ATOM      7  O   UNL     1       4.019   5.308  18.982  0.00  0.00    +0.000 OA
BRANCH   7  14
ATOM      8  C   UNL     1       1.778   5.854  20.679  0.00  0.00    +0.000 C 
ATOM      9  C   UNL     1       1.888   4.625  19.821  0.00  0.00    +0.000 A 
ATOM     10  C   UNL     1       0.868   3.660  19.887  0.00  0.00    +0.000 A 
ATOM     11  C   UNL     1       0.919   2.513  19.095  0.00  0.00    +0.000 A 
ATOM     12  C   UNL     1       1.966   2.329  18.201  0.00  0.00    +0.000 A 
ATOM     13  C   UNL     1       2.983   3.278  18.122  0.00  0.00    +0.000 A 
ATOM     14  C   UNL     1       2.987   4.391  18.976  0.00  0.00    +0.000 A 
ENDBRANCH   7  14
ENDBRANCH   1   7
BRANCH   4  15
ATOM     15  O   UNL     1       7.598   5.253  14.732  0.00  0.00    +0.000 OA
BRANCH  15  16
ATOM     16  C   UNL     1       6.973   4.972  13.476  0.00  0.00    +0.000 C 
BRANCH  16  17
ATOM     17  C   UNL     1       6.334   3.586  13.483  0.00  0.00    +0.000 C 
BRANCH  17  18
ATOM     18  S   UNL     1       5.193   3.381  12.079  0.00  0.00    +0.000 S 
BRANCH  18  19
ATOM     19  C   UNL     1       5.846   1.947  11.472  0.00  0.00    +0.000 C 
ATOM     20  N   UNL     1       6.314   0.966  11.075  0.00  0.00    +0.000 NA
ENDBRANCH  18  19
ENDBRANCH  17  18
ENDBRANCH  16  17
ENDBRANCH  15  16
ENDBRANCH   4  15
TORSDOF 7
ENDMDL
MODEL 5
REMARK VINA RESULT:      -6.5      5.787      8.212
REMARK  Name = 
REMARK  8 active torsions:
REMARK  status: ('A' for Active; 'I' for Inactive)
REMARK    1  A    between atoms: C_1  and  C_2
REMARK    2  A    between atoms: C_7  and  O_8
REMARK    3  A    between atoms: O_8  and  C_9
REMARK    4  A    between atoms: C_12  and  O_13
REMARK    5  A    between atoms: O_13  and  C_14
REMARK    6  A    between atoms: C_14  and  C_15
REMARK    7  A    between atoms: C_15  and  S_16
REMARK    8  A    between atoms: S_16  and  C_17
REMARK                            x       y       z     vdW  Elec       q    Type
REMARK                         _______ _______ _______ _____ _____    ______ ____
ROOT
ATOM      1  C   UNL     1       5.210   5.376  18.423  0.00  0.00    +0.000 A 
ATOM      2  C   UNL     1       6.482   4.810  18.476  0.00  0.00    +0.000 A 
ATOM      3  C   UNL     1       7.280   4.759  17.329  0.00  0.00    +0.000 A 
ATOM      4  C   UNL     1       6.809   5.261  16.114  0.00  0.00    +0.000 A 
ATOM      5  C   UNL     1       5.536   5.834  16.064  0.00  0.00    +0.000 A 
ATOM      6  C   UNL     1       4.726   5.867  17.206  0.00  0.00    +0.000 A 
ENDROOT
BRANCH   1   7
ATOM      7  O   UNL     1       4.485   5.364  19.597  0.00  0.00    +0.000 OA
BRANCH   7  14
ATOM      8  C   UNL     1       1.981   6.554  20.315  0.00  0.00    +0.000 C 
ATOM      9  C   UNL     1       2.162   5.080  20.086  0.00  0.00    +0.000 A 
ATOM     10  C   UNL     1       1.065   4.224  20.283  0.00  0.00    +0.000 A 
ATOM     11  C   UNL     1       1.182   2.852  20.064  0.00  0.00    +0.000 A 
ATOM     12  C   UNL     1       2.382   2.319  19.610  0.00  0.00    +0.000 A 
ATOM     13  C   UNL     1       3.478   3.154  19.407  0.00  0.00    +0.000 A 
ATOM     14  C   UNL     1       3.397   4.522  19.708  0.00  0.00    +0.000 A 
ENDBRANCH   7  14
ENDBRANCH   1   7
BRANCH   4  15
ATOM     15  O   UNL     1       7.488   5.228  14.923  0.00  0.00    +0.000 OA
BRANCH  15  16
ATOM     16  C   UNL     1       6.688   5.037  13.754  0.00  0.00    +0.000 C 
BRANCH  16  17
ATOM     17  C   UNL     1       6.158   3.607  13.684  0.00  0.00    +0.000 C 
BRANCH  17  18
ATOM     18  S   UNL     1       6.365   2.910  12.014  0.00  0.00    +0.000 S 
BRANCH  18  19
ATOM     19  C   UNL     1       4.776   3.129  11.486  0.00  0.00    +0.000 C 
ATOM     20  N   UNL     1       3.691   3.258  11.107  0.00  0.00    +0.000 NA
ENDBRANCH  18  19
ENDBRANCH  17  18
ENDBRANCH  16  17
ENDBRANCH  15  16
ENDBRANCH   4  15
TORSDOF 7
ENDMDL
MODEL 6
REMARK VINA RESULT:      -6.5      5.464      6.796
REMARK  Name = 
REMARK  8 active torsions:
REMARK  status: ('A' for Active; 'I' for Inactive)
REMARK    1  A    between atoms: C_1  and  C_2
REMARK    2  A    between atoms: C_7  and  O_8
REMARK    3  A    between atoms: O_8  and  C_9
REMARK    4  A    between atoms: C_12  and  O_13
REMARK    5  A    between atoms: O_13  and  C_14
REMARK    6  A    between atoms: C_14  and  C_15
REMARK    7  A    between atoms: C_15  and  S_16
REMARK    8  A    between atoms: S_16  and  C_17
REMARK                            x       y       z     vdW  Elec       q    Type
REMARK                         _______ _______ _______ _____ _____    ______ ____
ROOT
ATOM      1  C   UNL     1       4.668   5.105  17.590  0.00  0.00    +0.000 A 
ATOM      2  C   UNL     1       5.774   4.529  18.211  0.00  0.00    +0.000 A 
ATOM      3  C   UNL     1       6.953   5.263  18.375  0.00  0.00    +0.000 A 
ATOM      4  C   UNL     1       7.043   6.576  17.907  0.00  0.00    +0.000 A 
ATOM      5  C   UNL     1       5.931   7.154  17.289  0.00  0.00    +0.000 A 
ATOM      6  C   UNL     1       4.756   6.414  17.105  0.00  0.00    +0.000 A 
ENDROOT
BRANCH   1   7
ATOM      7  O   UNL     1       3.555   4.301  17.452  0.00  0.00    +0.000 OA
BRANCH   7  14
ATOM      8  C   UNL     1       3.470   1.587  18.360  0.00  0.00    +0.000 C 
ATOM      9  C   UNL     1       2.699   2.702  19.007  0.00  0.00    +0.000 A 
ATOM     10  C   UNL     1       1.846   2.399  20.083  0.00  0.00    +0.000 A 
ATOM     11  C   UNL     1       1.125   3.405  20.726  0.00  0.00    +0.000 A 
ATOM     12  C   UNL     1       1.271   4.729  20.332  0.00  0.00    +0.000 A 
ATOM     13  C   UNL     1       2.115   5.045  19.270  0.00  0.00    +0.000 A 
ATOM     14  C   UNL     1       2.777   4.032  18.559  0.00  0.00    +0.000 A 
ENDBRANCH   7  14
ENDBRANCH   1   7
BRANCH   4  15
ATOM     15  O   UNL     1       8.158   7.371  17.979  0.00  0.00    +0.000 OA
BRANCH  15  16
ATOM     16  C   UNL     1       7.936   8.773  17.804  0.00  0.00    +0.000 C 
BRANCH  16  17
ATOM     17  C   UNL     1       8.789   9.585  18.776  0.00  0.00    +0.000 C 
BRANCH  17  18
ATOM     18  S   UNL     1       9.235  11.201  18.065  0.00  0.00    +0.000 S 
BRANCH  18  19
ATOM     19  C   UNL     1      10.694  11.409  18.890  0.00  0.00    +0.000 C 
ATOM     20  N   UNL     1      11.693  11.525  19.461  0.00  0.00    +0.000 NA
ENDBRANCH  18  19
ENDBRANCH  17  18
ENDBRANCH  16  17
ENDBRANCH  15  16
ENDBRANCH   4  15
TORSDOF 7
ENDMDL
MODEL 7
REMARK VINA RESULT:      -6.4      4.759      7.089
REMARK  Name = 
REMARK  8 active torsions:
REMARK  status: ('A' for Active; 'I' for Inactive)
REMARK    1  A    between atoms: C_1  and  C_2
REMARK    2  A    between atoms: C_7  and  O_8
REMARK    3  A    between atoms: O_8  and  C_9
REMARK    4  A    between atoms: C_12  and  O_13
REMARK    5  A    between atoms: O_13  and  C_14
REMARK    6  A    between atoms: C_14  and  C_15
REMARK    7  A    between atoms: C_15  and  S_16
REMARK    8  A    between atoms: S_16  and  C_17
REMARK                            x       y       z     vdW  Elec       q    Type
REMARK                         _______ _______ _______ _____ _____    ______ ____
ROOT
ATOM      1  C   UNL     1       6.481   5.571  16.319  0.00  0.00    +0.000 A 
ATOM      2  C   UNL     1       6.891   4.775  17.386  0.00  0.00    +0.000 A 
ATOM      3  C   UNL     1       6.127   4.715  18.556  0.00  0.00    +0.000 A 
ATOM      4  C   UNL     1       4.952   5.460  18.675  0.00  0.00    +0.000 A 
ATOM      5  C   UNL     1       4.539   6.253  17.602  0.00  0.00    +0.000 A 
ATOM      6  C   UNL     1       5.313   6.332  16.437  0.00  0.00    +0.000 A 
ENDROOT
BRANCH   1   7
ATOM      7  O   UNL     1       7.307   5.587  15.214  0.00  0.00    +0.000 OA
BRANCH   7  14
ATOM      8  C   UNL     1       8.868   5.981  12.846  0.00  0.00    +0.000 C 
ATOM      9  C   UNL     1       7.689   5.053  12.916  0.00  0.00    +0.000 A 
ATOM     10  C   UNL     1       7.289   4.378  11.749  0.00  0.00    +0.000 A 
ATOM     11  C   UNL     1       6.213   3.492  11.771  0.00  0.00    +0.000 A 
ATOM     12  C   UNL     1       5.542   3.239  12.961  0.00  0.00    +0.000 A 
ATOM     13  C   UNL     1       5.928   3.898  14.126  0.00  0.00    +0.000 A 
ATOM     14  C   UNL     1       6.953   4.856  14.097  0.00  0.00    +0.000 A 
ENDBRANCH   7  14
ENDBRANCH   1   7
BRANCH   4  15
ATOM     15  O   UNL     1       4.150   5.506  19.786  0.00  0.00    +0.000 OA
BRANCH  15  16
ATOM     16  C   UNL     1       2.919   6.219  19.637  0.00  0.00    +0.000 C 
BRANCH  16  17
ATOM     17  C   UNL     1       1.765   5.457  20.285  0.00  0.00    +0.000 C 
BRANCH  17  18
ATOM     18  S   UNL     1       1.693   3.739  19.686  0.00  0.00    +0.000 S 
BRANCH  18  19
ATOM     19  C   UNL     1       1.594   2.984  21.193  0.00  0.00    +0.000 C 
ATOM     20  N   UNL     1       1.526   2.491  22.237  0.00  0.00    +0.000 NA
ENDBRANCH  18  19
ENDBRANCH  17  18
ENDBRANCH  16  17
ENDBRANCH  15  16
ENDBRANCH   4  15
TORSDOF 7
ENDMDL
MODEL 8
REMARK VINA RESULT:      -6.4      5.734      8.089
REMARK  Name = 
REMARK  8 active torsions:
REMARK  status: ('A' for Active; 'I' for Inactive)
REMARK    1  A    between atoms: C_1  and  C_2
REMARK    2  A    between atoms: C_7  and  O_8
REMARK    3  A    between atoms: O_8  and  C_9
REMARK    4  A    between atoms: C_12  and  O_13
REMARK    5  A    between atoms: O_13  and  C_14
REMARK    6  A    between atoms: C_14  and  C_15
REMARK    7  A    between atoms: C_15  and  S_16
REMARK    8  A    between atoms: S_16  and  C_17
REMARK                            x       y       z     vdW  Elec       q    Type
REMARK                         _______ _______ _______ _____ _____    ______ ____
ROOT
ATOM      1  C   UNL     1       5.190   5.466  18.608  0.00  0.00    +0.000 A 
ATOM      2  C   UNL     1       4.440   5.942  17.534  0.00  0.00    +0.000 A 
ATOM      3  C   UNL     1       5.009   6.025  16.259  0.00  0.00    +0.000 A 
ATOM      4  C   UNL     1       6.336   5.646  16.047  0.00  0.00    +0.000 A 
ATOM      5  C   UNL     1       7.084   5.164  17.124  0.00  0.00    +0.000 A 
ATOM      6  C   UNL     1       6.524   5.100  18.406  0.00  0.00    +0.000 A 
ENDROOT
BRANCH   1   7
ATOM      7  O   UNL     1       4.555   5.439  19.833  0.00  0.00    +0.000 OA
BRANCH   7  14
ATOM      8  C   UNL     1       2.109   6.856  20.287  0.00  0.00    +0.000 C 
ATOM      9  C   UNL     1       2.200   5.357  20.232  0.00  0.00    +0.000 A 
ATOM     10  C   UNL     1       1.040   4.599  20.467  0.00  0.00    +0.000 A 
ATOM     11  C   UNL     1       1.074   3.206  20.407  0.00  0.00    +0.000 A 
ATOM     12  C   UNL     1       2.254   2.551  20.077  0.00  0.00    +0.000 A 
ATOM     13  C   UNL     1       3.411   3.289  19.838  0.00  0.00    +0.000 A 
ATOM     14  C   UNL     1       3.409   4.684  19.982  0.00  0.00    +0.000 A 
ENDBRANCH   7  14
ENDBRANCH   1   7
BRANCH   4  15
ATOM     15  O   UNL     1       7.004   5.722  14.852  0.00  0.00    +0.000 OA
BRANCH  15  16
ATOM     16  C   UNL     1       7.202   4.483  14.168  0.00  0.00    +0.000 C 
BRANCH  16  17
ATOM     17  C   UNL     1       5.891   3.973  13.573  0.00  0.00    +0.000 C 
BRANCH  17  18
ATOM     18  S   UNL     1       6.182   3.072  12.018  0.00  0.00    +0.000 S 
BRANCH  18  19
ATOM     19  C   UNL     1       4.595   3.107  11.443  0.00  0.00    +0.000 C 
ATOM     20  N   UNL     1       3.506   3.157  11.056  0.00  0.00    +0.000 NA
ENDBRANCH  18  19
ENDBRANCH  17  18
ENDBRANCH  16  17
ENDBRANCH  15  16
ENDBRANCH   4  15
TORSDOF 7
ENDMDL
MODEL 9
REMARK VINA RESULT:      -6.4      2.937      3.351
REMARK  Name = 
REMARK  8 active torsions:
REMARK  status: ('A' for Active; 'I' for Inactive)
REMARK    1  A    between atoms: C_1  and  C_2
REMARK    2  A    between atoms: C_7  and  O_8
REMARK    3  A    between atoms: O_8  and  C_9
REMARK    4  A    between atoms: C_12  and  O_13
REMARK    5  A    between atoms: O_13  and  C_14
REMARK    6  A    between atoms: C_14  and  C_15
REMARK    7  A    between atoms: C_15  and  S_16
REMARK    8  A    between atoms: S_16  and  C_17
REMARK                            x       y       z     vdW  Elec       q    Type
REMARK                         _______ _______ _______ _____ _____    ______ ____
ROOT
ATOM      1  C   UNL     1       2.335   7.348  19.645  0.00  0.00    +0.000 A 
ATOM      2  C   UNL     1       2.421   7.789  18.326  0.00  0.00    +0.000 A 
ATOM      3  C   UNL     1       1.736   8.937  17.919  0.00  0.00    +0.000 A 
ATOM      4  C   UNL     1       0.945   9.650  18.824  0.00  0.00    +0.000 A 
ATOM      5  C   UNL     1       0.865   9.210  20.147  0.00  0.00    +0.000 A 
ATOM      6  C   UNL     1       1.533   8.048  20.552  0.00  0.00    +0.000 A 
ENDROOT
BRANCH   1   7
ATOM      7  O   UNL     1       3.026   6.194  19.952  0.00  0.00    +0.000 OA
BRANCH   7  14
ATOM      8  C   UNL     1       5.313   5.080  18.638  0.00  0.00    +0.000 C 
ATOM      9  C   UNL     1       3.928   4.514  18.512  0.00  0.00    +0.000 A 
ATOM     10  C   UNL     1       3.722   3.411  17.664  0.00  0.00    +0.000 A 
ATOM     11  C   UNL     1       2.456   2.841  17.531  0.00  0.00    +0.000 A 
ATOM     12  C   UNL     1       1.387   3.336  18.266  0.00  0.00    +0.000 A 
ATOM     13  C   UNL     1       1.576   4.427  19.112  0.00  0.00    +0.000 A 
ATOM     14  C   UNL     1       2.824   5.063  19.187  0.00  0.00    +0.000 A 
ENDBRANCH   7  14
ENDBRANCH   1   7
BRANCH   4  15
ATOM     15  O   UNL     1       0.202  10.763  18.525  0.00  0.00    +0.000 OA
BRANCH  15  16
ATOM     16  C   UNL     1      -1.215  10.617  18.648  0.00  0.00    +0.000 C 
BRANCH  16  17
ATOM     17  C   UNL     1      -1.813  10.005  17.384  0.00  0.00    +0.000 C 
BRANCH  17  18
ATOM     18  S   UNL     1      -3.167  11.033  16.733  0.00  0.00    +0.000 S 
BRANCH  18  19
ATOM     19  C   UNL     1      -3.034  10.572  15.114  0.00  0.00    +0.000 C 
ATOM     20  N   UNL     1      -2.917  10.268  14.004  0.00  0.00    +0.000 NA
ENDBRANCH  18  19
ENDBRANCH  17  18
ENDBRANCH  16  17
ENDBRANCH  15  16
ENDBRANCH   4  15
TORSDOF 7
ENDMDL
