MODEL 1
REMARK VINA RESULT:      -7.0      0.000      0.000
REMARK  Name = 
REMARK  7 active torsions:
REMARK  status: ('A' for Active; 'I' for Inactive)
REMARK    1  A    between atoms: C_1  and  N_2
REMARK    2  A    between atoms: N_2  and  C_3
REMARK    3  A    between atoms: C_3  and  C_4
REMARK    4  A    between atoms: C_9  and  C_11
REMARK    5  A    between atoms: C_11  and  C_12
REMARK    6  A    between atoms: C_12  and  N_13
REMARK    7  A    between atoms: N_16  and  C_17
REMARK                            x       y       z     vdW  Elec       q    Type
REMARK                         _______ _______ _______ _____ _____    ______ ____
ROOT
ATOM      1  C   UNL     1       3.208   3.269  18.802  0.00  0.00    +0.000 C 
ENDROOT
BRANCH   1   2
ATOM      2  N   UNL     1       1.847   3.843  18.749  0.00  0.00    +0.000 NA
ATOM      3  C   UNL     1       1.355   4.292  20.073  0.00  0.00    +0.000 C 
ATOM      4  C   UNL     1       2.136   5.470  20.687  0.00  0.00    +0.000 C 
ATOM      5  N   UNL     1       2.219   6.594  19.745  0.00  0.00    +0.000 N 
ATOM      6  C   UNL     1       2.613   6.265  18.366  0.00  0.00    +0.000 C 
ATOM      7  C   UNL     1       1.833   5.026  17.847  0.00  0.00    +0.000 C 
BRANCH   5   8
ATOM      8  C   UNL     1       1.683   7.830  20.048  0.00  0.00    +0.000 A 
ATOM      9  C   UNL     1       1.204   8.112  21.338  0.00  0.00    +0.000 A 
ATOM     10  C   UNL     1       0.621   9.345  21.647  0.00  0.00    +0.000 A 
ATOM     11  C   UNL     1       0.507  10.330  20.672  0.00  0.00    +0.000 A 
ATOM     12  C   UNL     1       0.981  10.080  19.390  0.00  0.00    +0.000 A 
ATOM     13  C   UNL     1       1.562   8.845  19.090  0.00  0.00    +0.000 A 
ENDBRANCH   5   8
ENDBRANCH   1   2
BRANCH   1  14
ATOM     14  C   UNL     1       4.118   3.749  17.670  0.00  0.00    +0.000 C 
BRANCH  14  17
ATOM     15  C   UNL     1       7.423   5.604  17.967  0.00  0.00    +0.000 C 
ATOM     16  N   UNL     1       6.141   5.165  17.441  0.00  0.00    +0.000 N 
ATOM     17  C   UNL     1       5.434   4.258  18.223  0.00  0.00    +0.000 C 
ATOM     18  O   UNL     1       5.882   3.851  19.294  0.00  0.00    +0.000 OA
BRANCH  16  19
ATOM     19  C   UNL     1       5.608   5.815  16.241  0.00  0.00    +0.000 C 
BRANCH  19  20
ATOM     20  C   UNL     1       6.079   5.132  14.991  0.00  0.00    +0.000 A 
ATOM     21  C   UNL     1       5.422   4.150  14.274  0.00  0.00    +0.000 A 
ATOM     22  S   UNL     1       6.359   3.664  12.922  0.00  0.00    +0.000 S 
ATOM     23  C   UNL     1       7.562   4.797  13.373  0.00  0.00    +0.000 A 
ATOM     24  N   UNL     1       7.303   5.515  14.448  0.00  0.00    +0.000 NA
ENDBRANCH  19  20
ENDBRANCH  16  19
ENDBRANCH  14  17
ENDBRANCH   1  14
TORSDOF 6
ENDMDL
MODEL 2
REMARK VINA RESULT:      -6.5      4.965      6.920
REMARK  Name = 
REMARK  7 active torsions:
REMARK  status: ('A' for Active; 'I' for Inactive)
REMARK    1  A    between atoms: C_1  and  N_2
REMARK    2  A    between atoms: N_2  and  C_3
REMARK    3  A    between atoms: C_3  and  C_4
REMARK    4  A    between atoms: C_9  and  C_11
REMARK    5  A    between atoms: C_11  and  C_12
REMARK    6  A    between atoms: C_12  and  N_13
REMARK    7  A    between atoms: N_16  and  C_17
REMARK                            x       y       z     vdW  Elec       q    Type
REMARK                         _______ _______ _______ _____ _____    ______ ____
ROOT
ATOM      1  C   UNL     1       7.410   6.908  17.197  0.00  0.00    +0.000 C 
ENDROOT
BRANCH   1   2
ATOM      2  N   UNL     1       6.296   6.508  16.311  0.00  0.00    +0.000 NA
ATOM      3  C   UNL     1       6.218   5.043  16.102  0.00  0.00    +0.000 C 
ATOM      4  C   UNL     1       5.883   4.227  17.366  0.00  0.00    +0.000 C 
ATOM      5  N   UNL     1       4.664   4.734  18.011  0.00  0.00    +0.000 N 
ATOM      6  C   UNL     1       4.579   6.192  18.197  0.00  0.00    +0.000 C 
ATOM      7  C   UNL     1       5.001   6.940  16.902  0.00  0.00    +0.000 C 
BRANCH   5   8
ATOM      8  C   UNL     1       3.546   3.939  18.169  0.00  0.00    +0.000 A 
ATOM      9  C   UNL     1       2.314   4.495  18.549  0.00  0.00    +0.000 A 
ATOM     10  C   UNL     1       1.184   3.696  18.753  0.00  0.00    +0.000 A 
ATOM     11  C   UNL     1       1.259   2.319  18.577  0.00  0.00    +0.000 A 
ATOM     12  C   UNL     1       2.465   1.744  18.192  0.00  0.00    +0.000 A 
ATOM     13  C   UNL     1       3.589   2.550  17.991  0.00  0.00    +0.000 A 
ENDBRANCH   5   8
ENDBRANCH   1   2
BRANCH   1  14
ATOM     14  C   UNL     1       7.632   8.421  17.255  0.00  0.00    +0.000 C 
BRANCH  14  17
ATOM     15  C   UNL     1       9.668  10.454  19.739  0.00  0.00    +0.000 C 
ATOM     16  N   UNL     1       8.829  10.128  18.598  0.00  0.00    +0.000 N 
ATOM     17  C   UNL     1       8.464   8.792  18.465  0.00  0.00    +0.000 C 
ATOM     18  O   UNL     1       8.845   7.942  19.270  0.00  0.00    +0.000 OA
BRANCH  16  19
ATOM     19  C   UNL     1       8.291  11.217  17.779  0.00  0.00    +0.000 C 
BRANCH  19  20
ATOM     20  C   UNL     1       9.198  12.413  17.791  0.00  0.00    +0.000 A 
ATOM     21  C   UNL     1       8.922  13.669  18.296  0.00  0.00    +0.000 A 
ATOM     22  S   UNL     1      10.262  14.715  18.071  0.00  0.00    +0.000 S 
ATOM     23  C   UNL     1      11.118  13.428  17.334  0.00  0.00    +0.000 A 
ATOM     24  N   UNL     1      10.478  12.278  17.259  0.00  0.00    +0.000 NA
ENDBRANCH  19  20
ENDBRANCH  16  19
ENDBRANCH  14  17
ENDBRANCH   1  14
TORSDOF 6
ENDMDL
MODEL 3
REMARK VINA RESULT:      -6.5      0.817      1.378
REMARK  Name = 
REMARK  7 active torsions:
REMARK  status: ('A' for Active; 'I' for Inactive)
REMARK    1  A    between atoms: C_1  and  N_2
REMARK    2  A    between atoms: N_2  and  C_3
REMARK    3  A    between atoms: C_3  and  C_4
REMARK    4  A    between atoms: C_9  and  C_11
REMARK    5  A    between atoms: C_11  and  C_12
REMARK    6  A    between atoms: C_12  and  N_13
REMARK    7  A    between atoms: N_16  and  C_17
REMARK                            x       y       z     vdW  Elec       q    Type
REMARK                         _______ _______ _______ _____ _____    ______ ____
ROOT
ATOM      1  C   UNL     1       3.657   3.790  19.153  0.00  0.00    +0.000 C 
ENDROOT
BRANCH   1   2
ATOM      2  N   UNL     1       2.292   4.247  18.816  0.00  0.00    +0.000 NA
ATOM      3  C   UNL     1       1.473   4.562  20.011  0.00  0.00    +0.000 C 
ATOM      4  C   UNL     1       1.976   5.758  20.842  0.00  0.00    +0.000 C 
ATOM      5  N   UNL     1       2.156   6.946  19.997  0.00  0.00    +0.000 N 
ATOM      6  C   UNL     1       2.881   6.747  18.732  0.00  0.00    +0.000 C 
ATOM      7  C   UNL     1       2.363   5.483  17.991  0.00  0.00    +0.000 C 
BRANCH   5   8
ATOM      8  C   UNL     1       1.446   8.109  20.225  0.00  0.00    +0.000 A 
ATOM      9  C   UNL     1       1.324   9.087  19.225  0.00  0.00    +0.000 A 
ATOM     10  C   UNL     1       0.644  10.287  19.456  0.00  0.00    +0.000 A 
ATOM     11  C   UNL     1       0.064  10.536  20.696  0.00  0.00    +0.000 A 
ATOM     12  C   UNL     1       0.162   9.580  21.700  0.00  0.00    +0.000 A 
ATOM     13  C   UNL     1       0.844   8.384  21.460  0.00  0.00    +0.000 A 
ENDBRANCH   5   8
ENDBRANCH   1   2
BRANCH   1  14
ATOM     14  C   UNL     1       4.615   3.792  17.961  0.00  0.00    +0.000 C 
BRANCH  14  17
ATOM     15  C   UNL     1       7.457   6.286  17.572  0.00  0.00    +0.000 C 
ATOM     16  N   UNL     1       6.251   5.528  17.284  0.00  0.00    +0.000 N 
ATOM     17  C   UNL     1       5.840   4.630  18.262  0.00  0.00    +0.000 C 
ATOM     18  O   UNL     1       6.476   4.487  19.307  0.00  0.00    +0.000 OA
BRANCH  16  19
ATOM     19  C   UNL     1       5.468   5.869  16.093  0.00  0.00    +0.000 C 
BRANCH  19  20
ATOM     20  C   UNL     1       5.954   5.125  14.884  0.00  0.00    +0.000 A 
ATOM     21  C   UNL     1       7.180   5.253  14.259  0.00  0.00    +0.000 A 
ATOM     22  S   UNL     1       7.276   4.204  12.905  0.00  0.00    +0.000 S 
ATOM     23  C   UNL     1       5.694   3.645  13.250  0.00  0.00    +0.000 A 
ATOM     24  N   UNL     1       5.113   4.177  14.307  0.00  0.00    +0.000 NA
ENDBRANCH  19  20
ENDBRANCH  16  19
ENDBRANCH  14  17
ENDBRANCH   1  14
TORSDOF 6
ENDMDL
MODEL 4
REMARK VINA RESULT:      -6.4      3.772      6.179
REMARK  Name = 
REMARK  7 active torsions:
REMARK  status: ('A' for Active; 'I' for Inactive)
REMARK    1  A    between atoms: C_1  and  N_2
REMARK    2  A    between atoms: N_2  and  C_3
REMARK    3  A    between atoms: C_3  and  C_4
REMARK    4  A    between atoms: C_9  and  C_11
REMARK    5  A    between atoms: C_11  and  C_12
REMARK    6  A    between atoms: C_12  and  N_13
REMARK    7  A    between atoms: N_16  and  C_17
REMARK                            x       y       z     vdW  Elec       q    Type
REMARK                         _______ _______ _______ _____ _____    ______ ____
ROOT
ATOM      1  C   UNL     1       1.289   9.091  20.231  0.00  0.00    +0.000 C 
ENDROOT
BRANCH   1   2
ATOM      2  N   UNL     1      -0.173   9.124  20.443  0.00  0.00    +0.000 NA
ATOM      3  C   UNL     1      -0.556   9.017  21.871  0.00  0.00    +0.000 C 
ATOM      4  C   UNL     1      -0.115  10.204  22.749  0.00  0.00    +0.000 C 
ATOM      5  N   UNL     1      -0.568  11.479  22.175  0.00  0.00    +0.000 N 
ATOM      6  C   UNL     1      -0.325  11.672  20.737  0.00  0.00    +0.000 C 
ATOM      7  C   UNL     1      -0.729  10.406  19.932  0.00  0.00    +0.000 C 
BRANCH   5   8
ATOM      8  C   UNL     1      -1.422  12.317  22.864  0.00  0.00    +0.000 A 
ATOM      9  C   UNL     1      -1.008  13.598  23.262  0.00  0.00    +0.000 A 
ATOM     10  C   UNL     1      -1.848  14.442  23.997  0.00  0.00    +0.000 A 
ATOM     11  C   UNL     1      -3.127  14.024  24.346  0.00  0.00    +0.000 A 
ATOM     12  C   UNL     1      -3.565  12.764  23.956  0.00  0.00    +0.000 A 
ATOM     13  C   UNL     1      -2.719  11.928  23.223  0.00  0.00    +0.000 A 
ENDBRANCH   5   8
ENDBRANCH   1   2
BRANCH   1  14
ATOM     14  C   UNL     1       1.851   7.678  20.066  0.00  0.00    +0.000 C 
BRANCH  14  17
ATOM     15  C   UNL     1       4.107   6.418  17.278  0.00  0.00    +0.000 C 
ATOM     16  N   UNL     1       3.464   6.525  18.576  0.00  0.00    +0.000 N 
ATOM     17  C   UNL     1       2.498   7.517  18.706  0.00  0.00    +0.000 C 
ATOM     18  O   UNL     1       2.219   8.263  17.767  0.00  0.00    +0.000 OA
BRANCH  16  19
ATOM     19  C   UNL     1       3.738   5.501  19.589  0.00  0.00    +0.000 C 
BRANCH  19  20
ATOM     20  C   UNL     1       2.683   4.434  19.591  0.00  0.00    +0.000 A 
ATOM     21  C   UNL     1       2.239   3.693  18.513  0.00  0.00    +0.000 A 
ATOM     22  S   UNL     1       1.009   2.602  19.000  0.00  0.00    +0.000 S 
ATOM     23  C   UNL     1       1.160   3.177  20.605  0.00  0.00    +0.000 A 
ATOM     24  N   UNL     1       2.070   4.111  20.799  0.00  0.00    +0.000 NA
ENDBRANCH  19  20
ENDBRANCH  16  19
ENDBRANCH  14  17
ENDBRANCH   1  14
TORSDOF 6
ENDMDL
MODEL 5
REMARK VINA RESULT:      -6.4      5.667      7.682
REMARK  Name = 
REMARK  7 active torsions:
REMARK  status: ('A' for Active; 'I' for Inactive)
REMARK    1  A    between atoms: C_1  and  N_2
REMARK    2  A    between atoms: N_2  and  C_3
REMARK    3  A    between atoms: C_3  and  C_4
REMARK    4  A    between atoms: C_9  and  C_11
REMARK    5  A    between atoms: C_11  and  C_12
REMARK    6  A    between atoms: C_12  and  N_13
REMARK    7  A    between atoms: N_16  and  C_17
REMARK                            x       y       z     vdW  Elec       q    Type
REMARK                         _______ _______ _______ _____ _____    ______ ____
ROOT
ATOM      1  C   UNL     1       7.154   8.326  17.841  0.00  0.00    +0.000 C 
ENDROOT
BRANCH   1   2
ATOM      2  N   UNL     1       7.267   7.040  17.122  0.00  0.00    +0.000 NA
ATOM      3  C   UNL     1       7.513   5.890  18.025  0.00  0.00    +0.000 C 
ATOM      4  C   UNL     1       6.359   5.572  18.995  0.00  0.00    +0.000 C 
ATOM      5  N   UNL     1       5.091   5.413  18.270  0.00  0.00    +0.000 N 
ATOM      6  C   UNL     1       4.771   6.449  17.275  0.00  0.00    +0.000 C 
ATOM      7  C   UNL     1       6.005   6.762  16.385  0.00  0.00    +0.000 C 
BRANCH   5   8
ATOM      8  C   UNL     1       4.385   4.227  18.302  0.00  0.00    +0.000 A 
ATOM      9  C   UNL     1       4.638   3.264  19.293  0.00  0.00    +0.000 A 
ATOM     10  C   UNL     1       3.960   2.041  19.314  0.00  0.00    +0.000 A 
ATOM     11  C   UNL     1       3.007   1.753  18.343  0.00  0.00    +0.000 A 
ATOM     12  C   UNL     1       2.731   2.691  17.356  0.00  0.00    +0.000 A 
ATOM     13  C   UNL     1       3.414   3.911  17.343  0.00  0.00    +0.000 A 
ENDBRANCH   5   8
ENDBRANCH   1   2
BRANCH   1  14
ATOM     14  C   UNL     1       8.223   9.346  17.443  0.00  0.00    +0.000 C 
BRANCH  14  17
ATOM     15  C   UNL     1      10.042  11.692  19.817  0.00  0.00    +0.000 C 
ATOM     16  N   UNL     1       9.315  11.215  18.653  0.00  0.00    +0.000 N 
ATOM     17  C   UNL     1       8.937   9.877  18.669  0.00  0.00    +0.000 C 
ATOM     18  O   UNL     1       9.216   9.145  19.619  0.00  0.00    +0.000 OA
BRANCH  16  19
ATOM     19  C   UNL     1       8.885  12.184  17.640  0.00  0.00    +0.000 C 
BRANCH  19  20
ATOM     20  C   UNL     1       9.787  13.383  17.608  0.00  0.00    +0.000 A 
ATOM     21  C   UNL     1      11.001  13.500  16.958  0.00  0.00    +0.000 A 
ATOM     22  S   UNL     1      11.673  15.056  17.220  0.00  0.00    +0.000 S 
ATOM     23  C   UNL     1      10.305  15.469  18.163  0.00  0.00    +0.000 A 
ATOM     24  N   UNL     1       9.383  14.533  18.281  0.00  0.00    +0.000 NA
ENDBRANCH  19  20
ENDBRANCH  16  19
ENDBRANCH  14  17
ENDBRANCH   1  14
TORSDOF 6
ENDMDL
MODEL 6
REMARK VINA RESULT:      -6.4      4.763      6.529
REMARK  Name = 
REMARK  7 active torsions:
REMARK  status: ('A' for Active; 'I' for Inactive)
REMARK    1  A    between atoms: C_1  and  N_2
REMARK    2  A    between atoms: N_2  and  C_3
REMARK    3  A    between atoms: C_3  and  C_4
REMARK    4  A    between atoms: C_9  and  C_11
REMARK    5  A    between atoms: C_11  and  C_12
REMARK    6  A    between atoms: C_12  and  N_13
REMARK    7  A    between atoms: N_16  and  C_17
REMARK                            x       y       z     vdW  Elec       q    Type
REMARK                         _______ _______ _______ _____ _____    ______ ____
ROOT
ATOM      1  C   UNL     1       7.246   6.599  17.128  0.00  0.00    +0.000 C 
ENDROOT
BRANCH   1   2
ATOM      2  N   UNL     1       5.985   6.262  16.433  0.00  0.00    +0.000 NA
ATOM      3  C   UNL     1       5.707   4.807  16.407  0.00  0.00    +0.000 C 
ATOM      4  C   UNL     1       5.447   4.174  17.788  0.00  0.00    +0.000 C 
ATOM      5  N   UNL     1       4.394   4.900  18.509  0.00  0.00    +0.000 N 
ATOM      6  C   UNL     1       4.508   6.367  18.533  0.00  0.00    +0.000 C 
ATOM      7  C   UNL     1       4.840   6.919  17.119  0.00  0.00    +0.000 C 
BRANCH   5   8
ATOM      8  C   UNL     1       3.220   4.280  18.890  0.00  0.00    +0.000 A 
ATOM      9  C   UNL     1       2.665   3.250  18.114  0.00  0.00    +0.000 A 
ATOM     10  C   UNL     1       1.455   2.641  18.465  0.00  0.00    +0.000 A 
ATOM     11  C   UNL     1       0.774   3.046  19.606  0.00  0.00    +0.000 A 
ATOM     12  C   UNL     1       1.306   4.057  20.398  0.00  0.00    +0.000 A 
ATOM     13  C   UNL     1       2.515   4.660  20.039  0.00  0.00    +0.000 A 
ENDBRANCH   5   8
ENDBRANCH   1   2
BRANCH   1  14
ATOM     14  C   UNL     1       7.560   8.096  17.134  0.00  0.00    +0.000 C 
BRANCH  14  17
ATOM     15  C   UNL     1       9.475  10.144  19.701  0.00  0.00    +0.000 C 
ATOM     16  N   UNL     1       8.681   9.812  18.531  0.00  0.00    +0.000 N 
ATOM     17  C   UNL     1       8.345   8.472  18.374  0.00  0.00    +0.000 C 
ATOM     18  O   UNL     1       8.713   7.621  19.185  0.00  0.00    +0.000 OA
BRANCH  16  19
ATOM     19  C   UNL     1       8.150  10.899  17.703  0.00  0.00    +0.000 C 
BRANCH  19  20
ATOM     20  C   UNL     1       8.999  12.133  17.808  0.00  0.00    +0.000 A 
ATOM     21  C   UNL     1       8.630  13.362  18.321  0.00  0.00    +0.000 A 
ATOM     22  S   UNL     1       9.933  14.471  18.217  0.00  0.00    +0.000 S 
ATOM     23  C   UNL     1      10.898  13.244  17.514  0.00  0.00    +0.000 A 
ATOM     24  N   UNL     1      10.317  12.069  17.366  0.00  0.00    +0.000 NA
ENDBRANCH  19  20
ENDBRANCH  16  19
ENDBRANCH  14  17
ENDBRANCH   1  14
TORSDOF 6
ENDMDL
MODEL 7
REMARK VINA RESULT:      -6.4      2.457      3.869
REMARK  Name = 
REMARK  7 active torsions:
REMARK  status: ('A' for Active; 'I' for Inactive)
REMARK    1  A    between atoms: C_1  and  N_2
REMARK    2  A    between atoms: N_2  and  C_3
REMARK    3  A    between atoms: C_3  and  C_4
REMARK    4  A    between atoms: C_9  and  C_11
REMARK    5  A    between atoms: C_11  and  C_12
REMARK    6  A    between atoms: C_12  and  N_13
REMARK    7  A    between atoms: N_16  and  C_17
REMARK                            x       y       z     vdW  Elec       q    Type
REMARK                         _______ _______ _______ _____ _____    ______ ____
ROOT
ATOM      1  C   UNL     1       1.919   5.805  18.297  0.00  0.00    +0.000 C 
ENDROOT
BRANCH   1   2
ATOM      2  N   UNL     1       2.894   6.829  18.728  0.00  0.00    +0.000 NA
ATOM      3  C   UNL     1       2.962   7.990  17.808  0.00  0.00    +0.000 C 
ATOM      4  C   UNL     1       1.675   8.835  17.738  0.00  0.00    +0.000 C 
ATOM      5  N   UNL     1       1.244   9.249  19.080  0.00  0.00    +0.000 N 
ATOM      6  C   UNL     1       1.219   8.200  20.113  0.00  0.00    +0.000 C 
ATOM      7  C   UNL     1       2.519   7.350  20.070  0.00  0.00    +0.000 C 
BRANCH   5   8
ATOM      8  C   UNL     1       1.150  10.582  19.429  0.00  0.00    +0.000 A 
ATOM      9  C   UNL     1       0.523  10.972  20.624  0.00  0.00    +0.000 A 
ATOM     10  C   UNL     1       0.382  12.320  20.969  0.00  0.00    +0.000 A 
ATOM     11  C   UNL     1       0.872  13.312  20.127  0.00  0.00    +0.000 A 
ATOM     12  C   UNL     1       1.505  12.954  18.943  0.00  0.00    +0.000 A 
ATOM     13  C   UNL     1       1.640  11.604  18.606  0.00  0.00    +0.000 A 
ENDBRANCH   5   8
ENDBRANCH   1   2
BRANCH   1  14
ATOM     14  C   UNL     1       1.741   4.668  19.304  0.00  0.00    +0.000 C 
BRANCH  14  17
ATOM     15  C   UNL     1       3.578   1.566  18.097  0.00  0.00    +0.000 C 
ATOM     16  N   UNL     1       3.315   2.827  18.770  0.00  0.00    +0.000 N 
ATOM     17  C   UNL     1       2.024   3.330  18.653  0.00  0.00    +0.000 C 
ATOM     18  O   UNL     1       1.162   2.734  18.007  0.00  0.00    +0.000 OA
BRANCH  16  19
ATOM     19  C   UNL     1       4.345   3.391  19.647  0.00  0.00    +0.000 C 
BRANCH  19  20
ATOM     20  C   UNL     1       5.303   4.258  18.883  0.00  0.00    +0.000 A 
ATOM     21  C   UNL     1       5.370   4.427  17.513  0.00  0.00    +0.000 A 
ATOM     22  S   UNL     1       6.637   5.507  17.103  0.00  0.00    +0.000 S 
ATOM     23  C   UNL     1       6.998   5.687  18.767  0.00  0.00    +0.000 A 
ATOM     24  N   UNL     1       6.232   5.009  19.599  0.00  0.00    +0.000 NA
ENDBRANCH  19  20
ENDBRANCH  16  19
ENDBRANCH  14  17
ENDBRANCH   1  14
TORSDOF 6
ENDMDL
MODEL 8
REMARK VINA RESULT:      -6.3      3.431      5.587
REMARK  Name = 
REMARK  7 active torsions:
REMARK  status: ('A' for Active; 'I' for Inactive)
REMARK    1  A    between atoms: C_1  and  N_2
REMARK    2  A    between atoms: N_2  and  C_3
REMARK    3  A    between atoms: C_3  and  C_4
REMARK    4  A    between atoms: C_9  and  C_11
REMARK    5  A    between atoms: C_11  and  C_12
REMARK    6  A    between atoms: C_12  and  N_13
REMARK    7  A    between atoms: N_16  and  C_17
REMARK                            x       y       z     vdW  Elec       q    Type
REMARK                         _______ _______ _______ _____ _____    ______ ____
ROOT
ATOM      1  C   UNL     1       1.562   8.462  20.741  0.00  0.00    +0.000 C 
ENDROOT
BRANCH   1   2
ATOM      2  N   UNL     1       0.117   8.733  20.593  0.00  0.00    +0.000 NA
ATOM      3  C   UNL     1      -0.622   8.657  21.876  0.00  0.00    +0.000 C 
ATOM      4  C   UNL     1      -0.236   9.734  22.908  0.00  0.00    +0.000 C 
ATOM      5  N   UNL     1      -0.327  11.079  22.325  0.00  0.00    +0.000 N 
ATOM      6  C   UNL     1       0.295  11.263  21.004  0.00  0.00    +0.000 C 
ATOM      7  C   UNL     1      -0.086  10.101  20.045  0.00  0.00    +0.000 C 
BRANCH   5   8
ATOM      8  C   UNL     1      -1.185  12.032  22.837  0.00  0.00    +0.000 A 
ATOM      9  C   UNL     1      -2.468  11.679  23.287  0.00  0.00    +0.000 A 
ATOM     10  C   UNL     1      -3.363  12.639  23.770  0.00  0.00    +0.000 A 
ATOM     11  C   UNL     1      -2.993  13.979  23.818  0.00  0.00    +0.000 A 
ATOM     12  C   UNL     1      -1.726  14.354  23.387  0.00  0.00    +0.000 A 
ATOM     13  C   UNL     1      -0.838  13.387  22.906  0.00  0.00    +0.000 A 
ENDBRANCH   5   8
ENDBRANCH   1   2
BRANCH   1  14
ATOM     14  C   UNL     1       1.992   7.109  20.171  0.00  0.00    +0.000 C 
BRANCH  14  17
ATOM     15  C   UNL     1       4.354   6.782  17.210  0.00  0.00    +0.000 C 
ATOM     16  N   UNL     1       3.762   6.568  18.520  0.00  0.00    +0.000 N 
ATOM     17  C   UNL     1       2.598   7.278  18.793  0.00  0.00    +0.000 C 
ATOM     18  O   UNL     1       2.111   8.049  17.966  0.00  0.00    +0.000 OA
BRANCH  16  19
ATOM     19  C   UNL     1       4.312   5.519  19.383  0.00  0.00    +0.000 C 
BRANCH  19  20
ATOM     20  C   UNL     1       3.684   4.186  19.097  0.00  0.00    +0.000 A 
ATOM     21  C   UNL     1       3.833   3.417  17.959  0.00  0.00    +0.000 A 
ATOM     22  S   UNL     1       2.909   1.978  18.082  0.00  0.00    +0.000 S 
ATOM     23  C   UNL     1       2.388   2.467  19.638  0.00  0.00    +0.000 A 
ATOM     24  N   UNL     1       2.866   3.617  20.070  0.00  0.00    +0.000 NA
ENDBRANCH  19  20
ENDBRANCH  16  19
ENDBRANCH  14  17
ENDBRANCH   1  14
TORSDOF 6
ENDMDL
MODEL 9
REMARK VINA RESULT:      -6.3      4.745      6.565
REMARK  Name = 
REMARK  7 active torsions:
REMARK  status: ('A' for Active; 'I' for Inactive)
REMARK    1  A    between atoms: C_1  and  N_2
REMARK    2  A    between atoms: N_2  and  C_3
REMARK    3  A    between atoms: C_3  and  C_4
REMARK    4  A    between atoms: C_9  and  C_11
REMARK    5  A    between atoms: C_11  and  C_12
REMARK    6  A    between atoms: C_12  and  N_13
REMARK    7  A    between atoms: N_16  and  C_17
REMARK                            x       y       z     vdW  Elec       q    Type
REMARK                         _______ _______ _______ _____ _____    ______ ____
ROOT
ATOM      1  C   UNL     1       7.037   6.643  17.070  0.00  0.00    +0.000 C 
ENDROOT
BRANCH   1   2
ATOM      2  N   UNL     1       5.705   6.516  16.442  0.00  0.00    +0.000 NA
ATOM      3  C   UNL     1       5.352   5.115  16.107  0.00  0.00    +0.000 C 
ATOM      4  C   UNL     1       5.184   4.183  17.323  0.00  0.00    +0.000 C 
ATOM      5  N   UNL     1       4.236   4.749  18.291  0.00  0.00    +0.000 N 
ATOM      6  C   UNL     1       4.425   6.165  18.643  0.00  0.00    +0.000 C 
ATOM      7  C   UNL     1       4.659   7.025  17.369  0.00  0.00    +0.000 C 
BRANCH   5   8
ATOM      8  C   UNL     1       3.071   4.089  18.630  0.00  0.00    +0.000 A 
ATOM      9  C   UNL     1       2.196   4.620  19.593  0.00  0.00    +0.000 A 
ATOM     10  C   UNL     1       1.034   3.943  19.977  0.00  0.00    +0.000 A 
ATOM     11  C   UNL     1       0.716   2.717  19.402  0.00  0.00    +0.000 A 
ATOM     12  C   UNL     1       1.560   2.174  18.440  0.00  0.00    +0.000 A 
ATOM     13  C   UNL     1       2.719   2.858  18.063  0.00  0.00    +0.000 A 
ENDBRANCH   5   8
ENDBRANCH   1   2
BRANCH   1  14
ATOM     14  C   UNL     1       7.605   8.062  17.014  0.00  0.00    +0.000 C 
BRANCH  14  17
ATOM     15  C   UNL     1       9.399  10.027  19.730  0.00  0.00    +0.000 C 
ATOM     16  N   UNL     1       8.667   9.732  18.510  0.00  0.00    +0.000 N 
ATOM     17  C   UNL     1       8.324   8.400  18.304  0.00  0.00    +0.000 C 
ATOM     18  O   UNL     1       8.637   7.527  19.115  0.00  0.00    +0.000 OA
BRANCH  16  19
ATOM     19  C   UNL     1       8.196  10.844  17.679  0.00  0.00    +0.000 C 
BRANCH  19  20
ATOM     20  C   UNL     1       9.080  12.048  17.821  0.00  0.00    +0.000 A 
ATOM     21  C   UNL     1      10.409  12.160  17.457  0.00  0.00    +0.000 A 
ATOM     22  S   UNL     1      11.003  13.726  17.826  0.00  0.00    +0.000 S 
ATOM     23  C   UNL     1       9.457  14.150  18.427  0.00  0.00    +0.000 A 
ATOM     24  N   UNL     1       8.534  13.211  18.358  0.00  0.00    +0.000 NA
ENDBRANCH  19  20
ENDBRANCH  16  19
ENDBRANCH  14  17
ENDBRANCH   1  14
TORSDOF 6
ENDMDL
