MODEL 1
REMARK VINA RESULT:      -6.5      0.000      0.000
REMARK  Name = 
REMARK  8 active torsions:
REMARK  status: ('A' for Active; 'I' for Inactive)
REMARK    1  A    between atoms: C_1  and  O_2
REMARK    2  A    between atoms: O_2  and  C_3
REMARK    3  A    between atoms: C_3  and  C_4
REMARK    4  A    between atoms: C_4  and  N_5
REMARK    5  A    between atoms: C_6  and  C_8
REMARK    6  A    between atoms: C_9  and  N_10
REMARK    7  A    between atoms: C_11  and  C_13
REMARK    8  A    between atoms: C_13  and  N_14
REMARK                            x       y       z     vdW  Elec       q    Type
REMARK                         _______ _______ _______ _____ _____    ______ ____
ROOT
ATOM      1  C   UNL     1       6.450   5.123  16.170  0.00  0.00    +0.000 A 
ATOM      2  C   UNL     1       5.184   4.668  16.503  0.00  0.00    +0.000 A 
ATOM      3  S   UNL     1       4.352   3.956  15.203  0.00  0.00    +0.000 S 
ATOM      4  C   UNL     1       5.654   4.223  14.153  0.00  0.00    +0.000 A 
ATOM      5  C   UNL     1       6.714   4.869  14.767  0.00  0.00    +0.000 A 
ATOM      6  C   UNL     1       7.980   5.163  14.011  0.00  0.00    +0.000 C 
ATOM      7  C   UNL     1       7.768   5.096  12.488  0.00  0.00    +0.000 C 
ATOM      8  C   UNL     1       6.989   3.838  12.081  0.00  0.00    +0.000 C 
ATOM      9  C   UNL     1       5.593   3.804  12.716  0.00  0.00    +0.000 C 
ENDROOT
BRANCH   1  11
ATOM     10  N   UNL     1       7.372   7.103  17.144  0.00  0.00    +0.000 N 
ATOM     11  C   UNL     1       7.385   5.723  17.133  0.00  0.00    +0.000 C 
ATOM     12  O   UNL     1       8.099   5.058  17.876  0.00  0.00    +0.000 OA
ATOM     13  H   UNL     1       6.548   7.553  16.756  0.00  0.00    +0.000 HD
BRANCH  10  14
ATOM     14  C   UNL     1       8.132   7.901  18.081  0.00  0.00    +0.000 C 
BRANCH  14  15
ATOM     15  C   UNL     1       7.904   9.394  17.832  0.00  0.00    +0.000 C 
BRANCH  15  17
ATOM     16  C   UNL     1       9.310  10.439  19.416  0.00  0.00    +0.000 C 
ATOM     17  O   UNL     1       9.131  10.105  18.044  0.00  0.00    +0.000 OA
ENDBRANCH  15  17
ENDBRANCH  14  15
ENDBRANCH  10  14
ENDBRANCH   1  11
BRANCH   2  18
ATOM     18  N   UNL     1       4.505   4.818  17.700  0.00  0.00    +0.000 N 
ATOM     19  C   UNL     1       3.998   6.039  18.111  0.00  0.00    +0.000 C 
ATOM     20  O   UNL     1       4.034   7.084  17.468  0.00  0.00    +0.000 OA
ATOM     21  H   UNL     1       4.063   4.002  18.113  0.00  0.00    +0.000 HD
BRANCH  19  22
ATOM     22  C   UNL     1       3.212   5.969  19.423  0.00  0.00    +0.000 C 
BRANCH  22  23
ATOM     23  N   UNL     1       2.831   4.584  19.815  0.00  0.00    +0.000 NA
ATOM     24  C   UNL     1       2.583   4.525  21.272  0.00  0.00    +0.000 C 
ATOM     25  C   UNL     1       2.101   3.143  21.711  0.00  0.00    +0.000 C 
ATOM     26  C   UNL     1       0.839   2.744  20.962  0.00  0.00    +0.000 C 
ATOM     27  C   UNL     1       1.078   2.836  19.460  0.00  0.00    +0.000 C 
ATOM     28  C   UNL     1       1.607   4.217  19.073  0.00  0.00    +0.000 C 
ENDBRANCH  22  23
ENDBRANCH  19  22
ENDBRANCH   2  18
TORSDOF 7
ENDMDL
MODEL 2
REMARK VINA RESULT:      -6.5      2.482      7.145
REMARK  Name = 
REMARK  8 active torsions:
REMARK  status: ('A' for Active; 'I' for Inactive)
REMARK    1  A    between atoms: C_1  and  O_2
REMARK    2  A    between atoms: O_2  and  C_3
REMARK    3  A    between atoms: C_3  and  C_4
REMARK    4  A    between atoms: C_4  and  N_5
REMARK    5  A    between atoms: C_6  and  C_8
REMARK    6  A    between atoms: C_9  and  N_10
REMARK    7  A    between atoms: C_11  and  C_13
REMARK    8  A    between atoms: C_13  and  N_14
REMARK                            x       y       z     vdW  Elec       q    Type
REMARK                         _______ _______ _______ _____ _____    ______ ____
ROOT
ATOM      1  C   UNL     1       3.468   5.432  17.960  0.00  0.00    +0.000 A 
ATOM      2  C   UNL     1       4.217   4.582  17.161  0.00  0.00    +0.000 A 
ATOM      3  S   UNL     1       3.890   2.935  17.425  0.00  0.00    +0.000 S 
ATOM      4  C   UNL     1       2.734   3.299  18.609  0.00  0.00    +0.000 A 
ATOM      5  C   UNL     1       2.602   4.660  18.829  0.00  0.00    +0.000 A 
ATOM      6  C   UNL     1       1.598   5.187  19.816  0.00  0.00    +0.000 C 
ATOM      7  C   UNL     1       1.135   4.099  20.801  0.00  0.00    +0.000 C 
ATOM      8  C   UNL     1       0.781   2.794  20.076  0.00  0.00    +0.000 C 
ATOM      9  C   UNL     1       1.986   2.216  19.324  0.00  0.00    +0.000 C 
ENDROOT
BRANCH   1  11
ATOM     10  N   UNL     1       2.292   7.511  17.849  0.00  0.00    +0.000 N 
ATOM     11  C   UNL     1       3.528   6.899  17.877  0.00  0.00    +0.000 C 
ATOM     12  O   UNL     1       4.582   7.526  17.856  0.00  0.00    +0.000 OA
ATOM     13  H   UNL     1       1.507   6.966  18.194  0.00  0.00    +0.000 HD
BRANCH  10  14
ATOM     14  C   UNL     1       2.110   8.946  17.873  0.00  0.00    +0.000 C 
BRANCH  14  15
ATOM     15  C   UNL     1       1.285   9.368  19.090  0.00  0.00    +0.000 C 
BRANCH  15  17
ATOM     16  C   UNL     1      -0.194  11.132  19.616  0.00  0.00    +0.000 C 
ATOM     17  O   UNL     1       0.158  10.141  18.657  0.00  0.00    +0.000 OA
ENDBRANCH  15  17
ENDBRANCH  14  15
ENDBRANCH  10  14
ENDBRANCH   1  11
BRANCH   2  18
ATOM     18  N   UNL     1       5.237   4.905  16.283  0.00  0.00    +0.000 N 
ATOM     19  C   UNL     1       6.565   4.934  16.675  0.00  0.00    +0.000 C 
ATOM     20  O   UNL     1       6.991   4.633  17.786  0.00  0.00    +0.000 OA
ATOM     21  H   UNL     1       5.080   4.777  15.287  0.00  0.00    +0.000 HD
BRANCH  19  22
ATOM     22  C   UNL     1       7.537   5.234  15.532  0.00  0.00    +0.000 C 
BRANCH  22  23
ATOM     23  N   UNL     1       6.935   5.073  14.180  0.00  0.00    +0.000 NA
ATOM     24  C   UNL     1       7.972   5.263  13.142  0.00  0.00    +0.000 C 
ATOM     25  C   UNL     1       7.422   5.020  11.737  0.00  0.00    +0.000 C 
ATOM     26  C   UNL     1       6.832   3.623  11.619  0.00  0.00    +0.000 C 
ATOM     27  C   UNL     1       5.788   3.410  12.707  0.00  0.00    +0.000 C 
ATOM     28  C   UNL     1       6.366   3.713  14.090  0.00  0.00    +0.000 C 
ENDBRANCH  22  23
ENDBRANCH  19  22
ENDBRANCH   2  18
TORSDOF 7
ENDMDL
MODEL 3
REMARK VINA RESULT:      -6.4      3.490      6.433
REMARK  Name = 
REMARK  8 active torsions:
REMARK  status: ('A' for Active; 'I' for Inactive)
REMARK    1  A    between atoms: C_1  and  O_2
REMARK    2  A    between atoms: O_2  and  C_3
REMARK    3  A    between atoms: C_3  and  C_4
REMARK    4  A    between atoms: C_4  and  N_5
REMARK    5  A    between atoms: C_6  and  C_8
REMARK    6  A    between atoms: C_9  and  N_10
REMARK    7  A    between atoms: C_11  and  C_13
REMARK    8  A    between atoms: C_13  and  N_14
REMARK                            x       y       z     vdW  Elec       q    Type
REMARK                         _______ _______ _______ _____ _____    ______ ____
ROOT
ATOM      1  C   UNL     1       2.133   7.608  19.243  0.00  0.00    +0.000 A 
ATOM      2  C   UNL     1       1.865   7.056  20.486  0.00  0.00    +0.000 A 
ATOM      3  S   UNL     1       1.026   8.102  21.530  0.00  0.00    +0.000 S 
ATOM      4  C   UNL     1       0.984   9.325  20.358  0.00  0.00    +0.000 A 
ATOM      5  C   UNL     1       1.620   8.963  19.183  0.00  0.00    +0.000 A 
ATOM      6  C   UNL     1       1.657   9.899  18.007  0.00  0.00    +0.000 C 
ATOM      7  C   UNL     1       1.353  11.350  18.418  0.00  0.00    +0.000 C 
ATOM      8  C   UNL     1       0.127  11.433  19.336  0.00  0.00    +0.000 C 
ATOM      9  C   UNL     1       0.335  10.646  20.636  0.00  0.00    +0.000 C 
ENDROOT
BRANCH   1  11
ATOM     10  N   UNL     1       4.046   7.366  17.829  0.00  0.00    +0.000 N 
ATOM     11  C   UNL     1       2.794   6.882  18.149  0.00  0.00    +0.000 C 
ATOM     12  O   UNL     1       2.289   5.918  17.584  0.00  0.00    +0.000 OA
ATOM     13  H   UNL     1       4.511   7.927  18.537  0.00  0.00    +0.000 HD
BRANCH  10  14
ATOM     14  C   UNL     1       4.919   6.744  16.858  0.00  0.00    +0.000 C 
BRANCH  14  15
ATOM     15  C   UNL     1       6.378   7.126  17.116  0.00  0.00    +0.000 C 
BRANCH  15  17
ATOM     16  C   UNL     1       6.501   5.238  15.704  0.00  0.00    +0.000 C 
ATOM     17  O   UNL     1       7.240   6.170  16.485  0.00  0.00    +0.000 OA
ENDBRANCH  15  17
ENDBRANCH  14  15
ENDBRANCH  10  14
ENDBRANCH   1  11
BRANCH   2  18
ATOM     18  N   UNL     1       2.281   5.837  20.991  0.00  0.00    +0.000 N 
ATOM     19  C   UNL     1       1.523   4.686  20.857  0.00  0.00    +0.000 C 
ATOM     20  O   UNL     1       0.460   4.594  20.248  0.00  0.00    +0.000 OA
ATOM     21  H   UNL     1       3.275   5.687  21.145  0.00  0.00    +0.000 HD
BRANCH  19  22
ATOM     22  C   UNL     1       2.202   3.433  21.414  0.00  0.00    +0.000 C 
BRANCH  22  23
ATOM     23  N   UNL     1       3.144   2.791  20.457  0.00  0.00    +0.000 NA
ATOM     24  C   UNL     1       2.385   2.075  19.409  0.00  0.00    +0.000 C 
ATOM     25  C   UNL     1       3.308   1.472  18.350  0.00  0.00    +0.000 C 
ATOM     26  C   UNL     1       4.173   2.546  17.709  0.00  0.00    +0.000 C 
ATOM     27  C   UNL     1       4.931   3.310  18.787  0.00  0.00    +0.000 C 
ATOM     28  C   UNL     1       3.976   3.851  19.851  0.00  0.00    +0.000 C 
ENDBRANCH  22  23
ENDBRANCH  19  22
ENDBRANCH   2  18
TORSDOF 7
ENDMDL
MODEL 4
REMARK VINA RESULT:      -6.4      4.133      6.508
REMARK  Name = 
REMARK  8 active torsions:
REMARK  status: ('A' for Active; 'I' for Inactive)
REMARK    1  A    between atoms: C_1  and  O_2
REMARK    2  A    between atoms: O_2  and  C_3
REMARK    3  A    between atoms: C_3  and  C_4
REMARK    4  A    between atoms: C_4  and  N_5
REMARK    5  A    between atoms: C_6  and  C_8
REMARK    6  A    between atoms: C_9  and  N_10
REMARK    7  A    between atoms: C_11  and  C_13
REMARK    8  A    between atoms: C_13  and  N_14
REMARK                            x       y       z     vdW  Elec       q    Type
REMARK                         _______ _______ _______ _____ _____    ______ ____
ROOT
ATOM      1  C   UNL     1       3.245   5.847  18.505  0.00  0.00    +0.000 A 
ATOM      2  C   UNL     1       2.444   6.637  19.314  0.00  0.00    +0.000 A 
ATOM      3  S   UNL     1       1.240   5.766  20.140  0.00  0.00    +0.000 S 
ATOM      4  C   UNL     1       1.749   4.304  19.451  0.00  0.00    +0.000 A 
ATOM      5  C   UNL     1       2.813   4.464  18.579  0.00  0.00    +0.000 A 
ATOM      6  C   UNL     1       3.434   3.278  17.896  0.00  0.00    +0.000 C 
ATOM      7  C   UNL     1       2.505   2.052  17.916  0.00  0.00    +0.000 C 
ATOM      8  C   UNL     1       1.907   1.819  19.309  0.00  0.00    +0.000 C 
ATOM      9  C   UNL     1       1.063   3.012  19.772  0.00  0.00    +0.000 C 
ENDROOT
BRANCH   1  11
ATOM     10  N   UNL     1       5.616   5.950  18.218  0.00  0.00    +0.000 N 
ATOM     11  C   UNL     1       4.389   6.357  17.736  0.00  0.00    +0.000 C 
ATOM     12  O   UNL     1       4.266   7.064  16.742  0.00  0.00    +0.000 OA
ATOM     13  H   UNL     1       5.620   5.129  18.816  0.00  0.00    +0.000 HD
BRANCH  10  14
ATOM     14  C   UNL     1       6.871   6.246  17.561  0.00  0.00    +0.000 C 
BRANCH  14  15
ATOM     15  C   UNL     1       7.341   5.053  16.727  0.00  0.00    +0.000 C 
BRANCH  15  17
ATOM     16  C   UNL     1       6.427   4.802  14.564  0.00  0.00    +0.000 C 
ATOM     17  O   UNL     1       7.428   5.440  15.349  0.00  0.00    +0.000 OA
ENDBRANCH  15  17
ENDBRANCH  14  15
ENDBRANCH  10  14
ENDBRANCH   1  11
BRANCH   2  18
ATOM     18  N   UNL     1       2.444   8.015  19.440  0.00  0.00    +0.000 N 
ATOM     19  C   UNL     1       1.843   8.840  18.506  0.00  0.00    +0.000 C 
ATOM     20  O   UNL     1       1.210   8.468  17.521  0.00  0.00    +0.000 OA
ATOM     21  H   UNL     1       2.561   8.418  20.366  0.00  0.00    +0.000 HD
BRANCH  19  22
ATOM     22  C   UNL     1       1.887  10.325  18.876  0.00  0.00    +0.000 C 
BRANCH  22  23
ATOM     23  N   UNL     1       0.610  11.042  18.612  0.00  0.00    +0.000 NA
ATOM     24  C   UNL     1      -0.399  10.661  19.625  0.00  0.00    +0.000 C 
ATOM     25  C   UNL     1      -1.703  11.440  19.450  0.00  0.00    +0.000 C 
ATOM     26  C   UNL     1      -1.454  12.938  19.517  0.00  0.00    +0.000 C 
ATOM     27  C   UNL     1      -0.391  13.331  18.499  0.00  0.00    +0.000 C 
ATOM     28  C   UNL     1       0.876  12.494  18.678  0.00  0.00    +0.000 C 
ENDBRANCH  22  23
ENDBRANCH  19  22
ENDBRANCH   2  18
TORSDOF 7
ENDMDL
MODEL 5
REMARK VINA RESULT:      -6.3      2.726      7.907
REMARK  Name = 
REMARK  8 active torsions:
REMARK  status: ('A' for Active; 'I' for Inactive)
REMARK    1  A    between atoms: C_1  and  O_2
REMARK    2  A    between atoms: O_2  and  C_3
REMARK    3  A    between atoms: C_3  and  C_4
REMARK    4  A    between atoms: C_4  and  N_5
REMARK    5  A    between atoms: C_6  and  C_8
REMARK    6  A    between atoms: C_9  and  N_10
REMARK    7  A    between atoms: C_11  and  C_13
REMARK    8  A    between atoms: C_13  and  N_14
REMARK                            x       y       z     vdW  Elec       q    Type
REMARK                         _______ _______ _______ _____ _____    ______ ____
ROOT
ATOM      1  C   UNL     1       2.511   6.394  19.307  0.00  0.00    +0.000 A 
ATOM      2  C   UNL     1       3.125   6.569  18.076  0.00  0.00    +0.000 A 
ATOM      3  S   UNL     1       2.919   8.127  17.428  0.00  0.00    +0.000 S 
ATOM      4  C   UNL     1       2.010   8.624  18.769  0.00  0.00    +0.000 A 
ATOM      5  C   UNL     1       1.837   7.615  19.702  0.00  0.00    +0.000 A 
ATOM      6  C   UNL     1       1.090   7.870  20.981  0.00  0.00    +0.000 C 
ATOM      7  C   UNL     1       0.215   9.132  20.894  0.00  0.00    +0.000 C 
ATOM      8  C   UNL     1       0.985  10.314  20.290  0.00  0.00    +0.000 C 
ATOM      9  C   UNL     1       1.459  10.013  18.863  0.00  0.00    +0.000 C 
ENDROOT
BRANCH   1  11
ATOM     10  N   UNL     1       1.390   4.496  20.233  0.00  0.00    +0.000 N 
ATOM     11  C   UNL     1       2.594   5.156  20.095  0.00  0.00    +0.000 C 
ATOM     12  O   UNL     1       3.643   4.734  20.570  0.00  0.00    +0.000 OA
ATOM     13  H   UNL     1       0.667   4.723  19.557  0.00  0.00    +0.000 HD
BRANCH  10  14
ATOM     14  C   UNL     1       1.254   3.208  20.878  0.00  0.00    +0.000 C 
BRANCH  14  15
ATOM     15  C   UNL     1       1.202   2.084  19.841  0.00  0.00    +0.000 C 
BRANCH  15  17
ATOM     16  C   UNL     1       2.631   2.092  17.961  0.00  0.00    +0.000 C 
ATOM     17  O   UNL     1       2.526   1.823  19.354  0.00  0.00    +0.000 OA
ENDBRANCH  15  17
ENDBRANCH  14  15
ENDBRANCH  10  14
ENDBRANCH   1  11
BRANCH   2  18
ATOM     18  N   UNL     1       3.770   5.626  17.296  0.00  0.00    +0.000 N 
ATOM     19  C   UNL     1       5.146   5.470  17.315  0.00  0.00    +0.000 C 
ATOM     20  O   UNL     1       5.927   6.084  18.037  0.00  0.00    +0.000 OA
ATOM     21  H   UNL     1       3.245   4.815  16.981  0.00  0.00    +0.000 HD
BRANCH  19  22
ATOM     22  C   UNL     1       5.647   4.318  16.441  0.00  0.00    +0.000 C 
BRANCH  22  23
ATOM     23  N   UNL     1       5.845   4.695  15.015  0.00  0.00    +0.000 NA
ATOM     24  C   UNL     1       7.286   4.897  14.744  0.00  0.00    +0.000 C 
ATOM     25  C   UNL     1       7.550   5.199  13.270  0.00  0.00    +0.000 C 
ATOM     26  C   UNL     1       7.016   4.086  12.383  0.00  0.00    +0.000 C 
ATOM     27  C   UNL     1       5.541   3.850  12.681  0.00  0.00    +0.000 C 
ATOM     28  C   UNL     1       5.315   3.603  14.173  0.00  0.00    +0.000 C 
ENDBRANCH  22  23
ENDBRANCH  19  22
ENDBRANCH   2  18
TORSDOF 7
ENDMDL
MODEL 6
REMARK VINA RESULT:      -6.3      9.036     12.051
REMARK  Name = 
REMARK  8 active torsions:
REMARK  status: ('A' for Active; 'I' for Inactive)
REMARK    1  A    between atoms: C_1  and  O_2
REMARK    2  A    between atoms: O_2  and  C_3
REMARK    3  A    between atoms: C_3  and  C_4
REMARK    4  A    between atoms: C_4  and  N_5
REMARK    5  A    between atoms: C_6  and  C_8
REMARK    6  A    between atoms: C_9  and  N_10
REMARK    7  A    between atoms: C_11  and  C_13
REMARK    8  A    between atoms: C_13  and  N_14
REMARK                            x       y       z     vdW  Elec       q    Type
REMARK                         _______ _______ _______ _____ _____    ______ ____
ROOT
ATOM      1  C   UNL     1      -3.980  11.558  18.266  0.00  0.00    +0.000 A 
ATOM      2  C   UNL     1      -3.160  11.847  19.346  0.00  0.00    +0.000 A 
ATOM      3  S   UNL     1      -3.850  12.937  20.453  0.00  0.00    +0.000 S 
ATOM      4  C   UNL     1      -5.268  13.057  19.534  0.00  0.00    +0.000 A 
ATOM      5  C   UNL     1      -5.224  12.296  18.378  0.00  0.00    +0.000 A 
ATOM      6  C   UNL     1      -6.403  12.239  17.448  0.00  0.00    +0.000 C 
ATOM      7  C   UNL     1      -7.376  13.408  17.681  0.00  0.00    +0.000 C 
ATOM      8  C   UNL     1      -7.674  13.607  19.173  0.00  0.00    +0.000 C 
ATOM      9  C   UNL     1      -6.404  13.932  19.968  0.00  0.00    +0.000 C 
ENDROOT
BRANCH   1  11
ATOM     10  N   UNL     1      -3.400  11.183  15.977  0.00  0.00    +0.000 N 
ATOM     11  C   UNL     1      -3.633  10.601  17.206  0.00  0.00    +0.000 C 
ATOM     12  O   UNL     1      -3.538   9.394  17.399  0.00  0.00    +0.000 OA
ATOM     13  H   UNL     1      -3.179  12.175  15.978  0.00  0.00    +0.000 HD
BRANCH  10  14
ATOM     14  C   UNL     1      -2.944  10.447  14.818  0.00  0.00    +0.000 C 
BRANCH  14  15
ATOM     15  C   UNL     1      -4.126  10.037  13.936  0.00  0.00    +0.000 C 
BRANCH  15  17
ATOM     16  C   UNL     1      -4.734   9.714  11.677  0.00  0.00    +0.000 C 
ATOM     17  O   UNL     1      -3.658   9.768  12.607  0.00  0.00    +0.000 OA
ENDBRANCH  15  17
ENDBRANCH  14  15
ENDBRANCH  10  14
ENDBRANCH   1  11
BRANCH   2  18
ATOM     18  N   UNL     1      -1.853  11.447  19.562  0.00  0.00    +0.000 N 
ATOM     19  C   UNL     1      -0.788  12.011  18.881  0.00  0.00    +0.000 C 
ATOM     20  O   UNL     1      -0.860  12.936  18.077  0.00  0.00    +0.000 OA
ATOM     21  H   UNL     1      -1.620  11.008  20.449  0.00  0.00    +0.000 HD
BRANCH  19  22
ATOM     22  C   UNL     1       0.577  11.483  19.329  0.00  0.00    +0.000 C 
BRANCH  22  23
ATOM     23  N   UNL     1       0.732  10.013  19.157  0.00  0.00    +0.000 NA
ATOM     24  C   UNL     1       1.726   9.733  18.097  0.00  0.00    +0.000 C 
ATOM     25  C   UNL     1       1.986   8.234  17.944  0.00  0.00    +0.000 C 
ATOM     26  C   UNL     1       2.457   7.628  19.257  0.00  0.00    +0.000 C 
ATOM     27  C   UNL     1       1.454   7.943  20.360  0.00  0.00    +0.000 C 
ATOM     28  C   UNL     1       1.185   9.445  20.444  0.00  0.00    +0.000 C 
ENDBRANCH  22  23
ENDBRANCH  19  22
ENDBRANCH   2  18
TORSDOF 7
ENDMDL
MODEL 7
REMARK VINA RESULT:      -6.3      3.811      6.400
REMARK  Name = 
REMARK  8 active torsions:
REMARK  status: ('A' for Active; 'I' for Inactive)
REMARK    1  A    between atoms: C_1  and  O_2
REMARK    2  A    between atoms: O_2  and  C_3
REMARK    3  A    between atoms: C_3  and  C_4
REMARK    4  A    between atoms: C_4  and  N_5
REMARK    5  A    between atoms: C_6  and  C_8
REMARK    6  A    between atoms: C_9  and  N_10
REMARK    7  A    between atoms: C_11  and  C_13
REMARK    8  A    between atoms: C_13  and  N_14
REMARK                            x       y       z     vdW  Elec       q    Type
REMARK                         _______ _______ _______ _____ _____    ______ ____
ROOT
ATOM      1  C   UNL     1       3.484   5.175  17.511  0.00  0.00    +0.000 A 
ATOM      2  C   UNL     1       3.630   6.430  18.081  0.00  0.00    +0.000 A 
ATOM      3  S   UNL     1       5.065   7.221  17.630  0.00  0.00    +0.000 S 
ATOM      4  C   UNL     1       5.539   5.921  16.653  0.00  0.00    +0.000 A 
ATOM      5  C   UNL     1       4.632   4.874  16.677  0.00  0.00    +0.000 A 
ATOM      6  C   UNL     1       4.855   3.643  15.844  0.00  0.00    +0.000 C 
ATOM      7  C   UNL     1       6.319   3.513  15.391  0.00  0.00    +0.000 C 
ATOM      8  C   UNL     1       6.860   4.837  14.836  0.00  0.00    +0.000 C 
ATOM      9  C   UNL     1       6.826   5.951  15.889  0.00  0.00    +0.000 C 
ENDROOT
BRANCH   1  11
ATOM     10  N   UNL     1       2.558   3.155  18.394  0.00  0.00    +0.000 N 
ATOM     11  C   UNL     1       2.303   4.321  17.701  0.00  0.00    +0.000 C 
ATOM     12  O   UNL     1       1.185   4.624  17.298  0.00  0.00    +0.000 OA
ATOM     13  H   UNL     1       3.402   3.138  18.960  0.00  0.00    +0.000 HD
BRANCH  10  14
ATOM     14  C   UNL     1       1.529   2.216  18.786  0.00  0.00    +0.000 C 
BRANCH  14  15
ATOM     15  C   UNL     1       0.807   2.698  20.045  0.00  0.00    +0.000 C 
BRANCH  15  17
ATOM     16  C   UNL     1       2.190   3.483  21.790  0.00  0.00    +0.000 C 
ATOM     17  O   UNL     1       1.576   2.342  21.202  0.00  0.00    +0.000 OA
ENDBRANCH  15  17
ENDBRANCH  14  15
ENDBRANCH  10  14
ENDBRANCH   1  11
BRANCH   2  18
ATOM     18  N   UNL     1       2.823   7.043  19.023  0.00  0.00    +0.000 N 
ATOM     19  C   UNL     1       2.094   8.185  18.738  0.00  0.00    +0.000 C 
ATOM     20  O   UNL     1       2.029   8.740  17.644  0.00  0.00    +0.000 OA
ATOM     21  H   UNL     1       2.476   6.489  19.801  0.00  0.00    +0.000 HD
BRANCH  19  22
ATOM     22  C   UNL     1       1.206   8.654  19.893  0.00  0.00    +0.000 C 
BRANCH  22  23
ATOM     23  N   UNL     1       0.749  10.064  19.758  0.00  0.00    +0.000 NA
ATOM     24  C   UNL     1      -0.648  10.095  19.272  0.00  0.00    +0.000 C 
ATOM     25  C   UNL     1      -1.194  11.521  19.202  0.00  0.00    +0.000 C 
ATOM     26  C   UNL     1      -1.111  12.202  20.559  0.00  0.00    +0.000 C 
ATOM     27  C   UNL     1       0.319  12.143  21.080  0.00  0.00    +0.000 C 
ATOM     28  C   UNL     1       0.842  10.706  21.086  0.00  0.00    +0.000 C 
ENDBRANCH  22  23
ENDBRANCH  19  22
ENDBRANCH   2  18
TORSDOF 7
ENDMDL
MODEL 8
REMARK VINA RESULT:      -6.3      4.188      6.616
REMARK  Name = 
REMARK  8 active torsions:
REMARK  status: ('A' for Active; 'I' for Inactive)
REMARK    1  A    between atoms: C_1  and  O_2
REMARK    2  A    between atoms: O_2  and  C_3
REMARK    3  A    between atoms: C_3  and  C_4
REMARK    4  A    between atoms: C_4  and  N_5
REMARK    5  A    between atoms: C_6  and  C_8
REMARK    6  A    between atoms: C_9  and  N_10
REMARK    7  A    between atoms: C_11  and  C_13
REMARK    8  A    between atoms: C_13  and  N_14
REMARK                            x       y       z     vdW  Elec       q    Type
REMARK                         _______ _______ _______ _____ _____    ______ ____
ROOT
ATOM      1  C   UNL     1       3.034   5.462  17.875  0.00  0.00    +0.000 A 
ATOM      2  C   UNL     1       3.093   6.834  18.070  0.00  0.00    +0.000 A 
ATOM      3  S   UNL     1       4.394   7.580  17.270  0.00  0.00    +0.000 S 
ATOM      4  C   UNL     1       4.919   6.102  16.630  0.00  0.00    +0.000 A 
ATOM      5  C   UNL     1       4.133   5.034  17.032  0.00  0.00    +0.000 A 
ATOM      6  C   UNL     1       4.415   3.642  16.539  0.00  0.00    +0.000 C 
ATOM      7  C   UNL     1       5.842   3.508  15.982  0.00  0.00    +0.000 C 
ATOM      8  C   UNL     1       6.191   4.665  15.037  0.00  0.00    +0.000 C 
ATOM      9  C   UNL     1       6.129   6.021  15.751  0.00  0.00    +0.000 C 
ENDROOT
BRANCH   1  11
ATOM     10  N   UNL     1       2.008   4.454  19.785  0.00  0.00    +0.000 N 
ATOM     11  C   UNL     1       1.969   4.604  18.414  0.00  0.00    +0.000 C 
ATOM     12  O   UNL     1       1.110   4.082  17.712  0.00  0.00    +0.000 OA
ATOM     13  H   UNL     1       2.525   5.158  20.305  0.00  0.00    +0.000 HD
BRANCH  10  14
ATOM     14  C   UNL     1       1.001   3.740  20.540  0.00  0.00    +0.000 C 
BRANCH  14  15
ATOM     15  C   UNL     1       1.615   2.538  21.261  0.00  0.00    +0.000 C 
BRANCH  15  17
ATOM     16  C   UNL     1       3.898   2.166  20.785  0.00  0.00    +0.000 C 
ATOM     17  O   UNL     1       2.969   2.841  21.625  0.00  0.00    +0.000 OA
ENDBRANCH  15  17
ENDBRANCH  14  15
ENDBRANCH  10  14
ENDBRANCH   1  11
BRANCH   2  18
ATOM     18  N   UNL     1       2.307   7.618  18.896  0.00  0.00    +0.000 N 
ATOM     19  C   UNL     1       1.816   8.849  18.494  0.00  0.00    +0.000 C 
ATOM     20  O   UNL     1       1.962   9.352  17.383  0.00  0.00    +0.000 OA
ATOM     21  H   UNL     1       1.791   7.168  19.646  0.00  0.00    +0.000 HD
BRANCH  19  22
ATOM     22  C   UNL     1       0.904   9.515  19.527  0.00  0.00    +0.000 C 
BRANCH  22  23
ATOM     23  N   UNL     1       0.051  10.594  18.959  0.00  0.00    +0.000 NA
ATOM     24  C   UNL     1      -1.143  10.004  18.315  0.00  0.00    +0.000 C 
ATOM     25  C   UNL     1      -2.097  11.078  17.794  0.00  0.00    +0.000 C 
ATOM     26  C   UNL     1      -2.530  12.011  18.914  0.00  0.00    +0.000 C 
ATOM     27  C   UNL     1      -1.304  12.595  19.604  0.00  0.00    +0.000 C 
ATOM     28  C   UNL     1      -0.354  11.489  20.063  0.00  0.00    +0.000 C 
ENDBRANCH  22  23
ENDBRANCH  19  22
ENDBRANCH   2  18
TORSDOF 7
ENDMDL
MODEL 9
REMARK VINA RESULT:      -6.3      4.030      6.028
REMARK  Name = 
REMARK  8 active torsions:
REMARK  status: ('A' for Active; 'I' for Inactive)
REMARK    1  A    between atoms: C_1  and  O_2
REMARK    2  A    between atoms: O_2  and  C_3
REMARK    3  A    between atoms: C_3  and  C_4
REMARK    4  A    between atoms: C_4  and  N_5
REMARK    5  A    between atoms: C_6  and  C_8
REMARK    6  A    between atoms: C_9  and  N_10
REMARK    7  A    between atoms: C_11  and  C_13
REMARK    8  A    between atoms: C_13  and  N_14
REMARK                            x       y       z     vdW  Elec       q    Type
REMARK                         _______ _______ _______ _____ _____    ______ ____
ROOT
ATOM      1  C   UNL     1       3.262   5.842  18.475  0.00  0.00    +0.000 A 
ATOM      2  C   UNL     1       2.451   6.600  19.307  0.00  0.00    +0.000 A 
ATOM      3  S   UNL     1       1.316   5.679  20.174  0.00  0.00    +0.000 S 
ATOM      4  C   UNL     1       1.869   4.238  19.475  0.00  0.00    +0.000 A 
ATOM      5  C   UNL     1       2.897   4.442  18.569  0.00  0.00    +0.000 A 
ATOM      6  C   UNL     1       3.550   3.282  17.871  0.00  0.00    +0.000 C 
ATOM      7  C   UNL     1       2.679   2.015  17.926  0.00  0.00    +0.000 C 
ATOM      8  C   UNL     1       2.136   1.762  19.339  0.00  0.00    +0.000 C 
ATOM      9  C   UNL     1       1.253   2.918  19.824  0.00  0.00    +0.000 C 
ENDROOT
BRANCH   1  11
ATOM     10  N   UNL     1       5.595   5.863  17.954  0.00  0.00    +0.000 N 
ATOM     11  C   UNL     1       4.356   6.400  17.668  0.00  0.00    +0.000 C 
ATOM     12  O   UNL     1       4.184   7.252  16.803  0.00  0.00    +0.000 OA
ATOM     13  H   UNL     1       5.603   4.963  18.425  0.00  0.00    +0.000 HD
BRANCH  10  14
ATOM     14  C   UNL     1       6.796   6.186  17.214  0.00  0.00    +0.000 C 
BRANCH  14  15
ATOM     15  C   UNL     1       7.681   7.148  18.010  0.00  0.00    +0.000 C 
BRANCH  15  17
ATOM     16  C   UNL     1       8.385   9.399  18.113  0.00  0.00    +0.000 C 
ATOM     17  O   UNL     1       7.786   8.392  17.305  0.00  0.00    +0.000 OA
ENDBRANCH  15  17
ENDBRANCH  14  15
ENDBRANCH  10  14
ENDBRANCH   1  11
BRANCH   2  18
ATOM     18  N   UNL     1       2.393   7.977  19.427  0.00  0.00    +0.000 N 
ATOM     19  C   UNL     1       1.743   8.771  18.497  0.00  0.00    +0.000 C 
ATOM     20  O   UNL     1       1.115   8.366  17.522  0.00  0.00    +0.000 OA
ATOM     21  H   UNL     1       2.504   8.390  20.349  0.00  0.00    +0.000 HD
BRANCH  19  22
ATOM     22  C   UNL     1       1.726  10.257  18.860  0.00  0.00    +0.000 C 
BRANCH  22  23
ATOM     23  N   UNL     1       0.539  10.661  19.661  0.00  0.00    +0.000 NA
ATOM     24  C   UNL     1       0.951  11.581  20.743  0.00  0.00    +0.000 C 
ATOM     25  C   UNL     1      -0.247  12.095  21.541  0.00  0.00    +0.000 C 
ATOM     26  C   UNL     1      -1.246  12.794  20.631  0.00  0.00    +0.000 C 
ATOM     27  C   UNL     1      -1.648  11.862  19.495  0.00  0.00    +0.000 C 
ATOM     28  C   UNL     1      -0.418  11.332  18.757  0.00  0.00    +0.000 C 
ENDBRANCH  22  23
ENDBRANCH  19  22
ENDBRANCH   2  18
TORSDOF 7
ENDMDL
