MODEL 1
REMARK VINA RESULT:      -6.8      0.000      0.000
REMARK  Name = 
REMARK  16 active torsions:
REMARK  status: ('A' for Active; 'I' for Inactive)
REMARK    1  A    between atoms: C_2  and  C_3
REMARK    2  A    between atoms: C_3  and  C_4
REMARK    3  A    between atoms: C_3  and  C_5
REMARK    4  A    between atoms: C_3  and  C_22
REMARK    5  A    between atoms: C_6  and  C_7
REMARK    6  A    between atoms: C_10  and  O_11
REMARK    7  A    between atoms: C_12  and  C_13
REMARK    8  A    between atoms: C_14  and  C_15
REMARK    9  A    between atoms: C_14  and  C_16
REMARK   10  A    between atoms: C_16  and  O_18
REMARK   11  A    between atoms: O_18  and  C_19
REMARK   12  A    between atoms: C_19  and  C_20
REMARK   13  A    between atoms: C_22  and  C_23
REMARK   14  A    between atoms: C_23  and  C_24
REMARK   15  A    between atoms: C_25  and  C_26
REMARK   16  A    between atoms: C_25  and  C_27
REMARK                            x       y       z     vdW  Elec       q    Type
REMARK                         _______ _______ _______ _____ _____    ______ ____
ROOT
ATOM      1  C   UNL     1       2.782   7.289  18.652  0.00  0.00    +0.000 A 
ATOM      2  C   UNL     1       2.557   7.955  17.445  0.00  0.00    +0.000 A 
ATOM      3  C   UNL     1       1.885   9.177  17.428  0.00  0.00    +0.000 A 
ATOM      4  C   UNL     1       1.410   9.733  18.618  0.00  0.00    +0.000 A 
ATOM      5  C   UNL     1       1.526   9.050  19.836  0.00  0.00    +0.000 A 
ATOM      6  C   UNL     1       2.237   7.829  19.831  0.00  0.00    +0.000 A 
ENDROOT
BRANCH   5   7
ATOM      7  C   UNL     1       1.046   9.536  21.156  0.00  0.00    +0.000 C 
ATOM      8  C   UNL     1       0.010   9.125  21.921  0.00  0.00    +0.000 C 
ATOM      9  C   UNL     1      -0.944   8.006  21.618  0.00  0.00    +0.000 C 
BRANCH   8  10
ATOM     10  C   UNL     1      -0.242   9.769  23.253  0.00  0.00    +0.000 C 
ATOM     11  O   UNL     1       0.492   9.622  24.219  0.00  0.00    +0.000 OA
BRANCH  10  12
ATOM     12  O   UNL     1      -1.390  10.495  23.251  0.00  0.00    +0.000 OA
BRANCH  12  13
ATOM     13  C   UNL     1      -1.312  11.785  22.628  0.00  0.00    +0.000 C 
ATOM     14  C   UNL     1      -2.684  12.430  22.572  0.00  0.00    +0.000 C 
ENDBRANCH  12  13
ENDBRANCH  10  12
ENDBRANCH   8  10
ENDBRANCH   5   7
BRANCH   1  16
ATOM     15  C   UNL     1       3.608   5.201  17.582  0.00  0.00    +0.000 C 
ATOM     16  C   UNL     1       3.601   6.065  18.617  0.00  0.00    +0.000 C 
BRANCH  15  17
ATOM     17  C   UNL     1       4.309   3.843  17.557  0.00  0.00    +0.000 C 
ATOM     18  C   UNL     1       5.024   3.614  18.911  0.00  0.00    +0.000 C 
BRANCH  17  20
ATOM     19  C   UNL     1       5.334   4.638  15.323  0.00  0.00    +0.000 C 
ATOM     20  C   UNL     1       5.279   3.804  16.372  0.00  0.00    +0.000 C 
ENDBRANCH  17  20
BRANCH  17  21
ATOM     21  C   UNL     1       3.255   2.706  17.339  0.00  0.00    +0.000 C 
BRANCH  21  22
ATOM     22  C   UNL     1       1.882   2.959  17.988  0.00  0.00    +0.000 C 
BRANCH  22  23
ATOM     23  C   UNL     1       1.782   2.416  19.387  0.00  0.00    +0.000 C 
ATOM     24  C   UNL     1       1.431   3.098  20.494  0.00  0.00    +0.000 C 
ATOM     25  C   UNL     1       0.973   4.531  20.512  0.00  0.00    +0.000 C 
ATOM     26  C   UNL     1       1.472   2.442  21.850  0.00  0.00    +0.000 C 
ENDBRANCH  22  23
ENDBRANCH  21  22
ENDBRANCH  17  21
ENDBRANCH  15  17
ENDBRANCH   1  16
BRANCH   4  27
ATOM     27  O   UNL     1       0.865  10.986  18.567  0.00  0.00    +0.000 OA
ATOM     28  H   UNL     1       0.307  11.119  19.349  0.00  0.00    +0.000 HD
ENDBRANCH   4  27
TORSDOF 11
ENDMDL
MODEL 2
REMARK VINA RESULT:      -6.8      1.425      3.561
REMARK  Name = 
REMARK  16 active torsions:
REMARK  status: ('A' for Active; 'I' for Inactive)
REMARK    1  A    between atoms: C_2  and  C_3
REMARK    2  A    between atoms: C_3  and  C_4
REMARK    3  A    between atoms: C_3  and  C_5
REMARK    4  A    between atoms: C_3  and  C_22
REMARK    5  A    between atoms: C_6  and  C_7
REMARK    6  A    between atoms: C_10  and  O_11
REMARK    7  A    between atoms: C_12  and  C_13
REMARK    8  A    between atoms: C_14  and  C_15
REMARK    9  A    between atoms: C_14  and  C_16
REMARK   10  A    between atoms: C_16  and  O_18
REMARK   11  A    between atoms: O_18  and  C_19
REMARK   12  A    between atoms: C_19  and  C_20
REMARK   13  A    between atoms: C_22  and  C_23
REMARK   14  A    between atoms: C_23  and  C_24
REMARK   15  A    between atoms: C_25  and  C_26
REMARK   16  A    between atoms: C_25  and  C_27
REMARK                            x       y       z     vdW  Elec       q    Type
REMARK                         _______ _______ _______ _____ _____    ______ ____
ROOT
ATOM      1  C   UNL     1       2.008   7.656  19.409  0.00  0.00    +0.000 A 
ATOM      2  C   UNL     1       2.228   8.133  18.116  0.00  0.00    +0.000 A 
ATOM      3  C   UNL     1       1.941   9.459  17.794  0.00  0.00    +0.000 A 
ATOM      4  C   UNL     1       1.407  10.315  18.760  0.00  0.00    +0.000 A 
ATOM      5  C   UNL     1       1.077   9.851  20.040  0.00  0.00    +0.000 A 
ATOM      6  C   UNL     1       1.405   8.511  20.349  0.00  0.00    +0.000 A 
ENDROOT
BRANCH   5   7
ATOM      7  C   UNL     1       0.491  10.663  21.138  0.00  0.00    +0.000 C 
ATOM      8  C   UNL     1      -0.650  11.387  21.185  0.00  0.00    +0.000 C 
ATOM      9  C   UNL     1      -1.665  11.537  20.089  0.00  0.00    +0.000 C 
BRANCH   8  10
ATOM     10  C   UNL     1      -1.037  12.097  22.448  0.00  0.00    +0.000 C 
ATOM     11  O   UNL     1      -0.324  12.924  22.999  0.00  0.00    +0.000 OA
BRANCH  10  12
ATOM     12  O   UNL     1      -2.246  11.684  22.907  0.00  0.00    +0.000 OA
BRANCH  12  13
ATOM     13  C   UNL     1      -3.220  12.715  23.118  0.00  0.00    +0.000 C 
ATOM     14  C   UNL     1      -3.978  12.473  24.410  0.00  0.00    +0.000 C 
ENDBRANCH  12  13
ENDBRANCH  10  12
ENDBRANCH   8  10
ENDBRANCH   5   7
BRANCH   1  16
ATOM     15  C   UNL     1       1.866   5.182  19.194  0.00  0.00    +0.000 C 
ATOM     16  C   UNL     1       2.443   6.282  19.716  0.00  0.00    +0.000 C 
BRANCH  15  17
ATOM     17  C   UNL     1       2.167   3.739  19.596  0.00  0.00    +0.000 C 
ATOM     18  C   UNL     1       1.230   2.786  18.814  0.00  0.00    +0.000 C 
BRANCH  17  20
ATOM     19  C   UNL     1       1.549   2.543  21.801  0.00  0.00    +0.000 C 
ATOM     20  C   UNL     1       2.008   3.599  21.112  0.00  0.00    +0.000 C 
ENDBRANCH  17  20
BRANCH  17  21
ATOM     21  C   UNL     1       3.654   3.391  19.246  0.00  0.00    +0.000 C 
BRANCH  21  22
ATOM     22  C   UNL     1       3.907   3.026  17.772  0.00  0.00    +0.000 C 
BRANCH  22  23
ATOM     23  C   UNL     1       4.100   4.230  16.891  0.00  0.00    +0.000 C 
ATOM     24  C   UNL     1       5.187   5.025  16.838  0.00  0.00    +0.000 C 
ATOM     25  C   UNL     1       6.464   4.786  17.595  0.00  0.00    +0.000 C 
ATOM     26  C   UNL     1       5.197   6.260  15.975  0.00  0.00    +0.000 C 
ENDBRANCH  22  23
ENDBRANCH  21  22
ENDBRANCH  17  21
ENDBRANCH  15  17
ENDBRANCH   1  16
BRANCH   4  27
ATOM     27  O   UNL     1       1.254  11.634  18.434  0.00  0.00    +0.000 OA
ATOM     28  H   UNL     1       1.884  12.162  18.949  0.00  0.00    +0.000 HD
ENDBRANCH   4  27
TORSDOF 11
ENDMDL
MODEL 3
REMARK VINA RESULT:      -6.8      1.698      3.619
REMARK  Name = 
REMARK  16 active torsions:
REMARK  status: ('A' for Active; 'I' for Inactive)
REMARK    1  A    between atoms: C_2  and  C_3
REMARK    2  A    between atoms: C_3  and  C_4
REMARK    3  A    between atoms: C_3  and  C_5
REMARK    4  A    between atoms: C_3  and  C_22
REMARK    5  A    between atoms: C_6  and  C_7
REMARK    6  A    between atoms: C_10  and  O_11
REMARK    7  A    between atoms: C_12  and  C_13
REMARK    8  A    between atoms: C_14  and  C_15
REMARK    9  A    between atoms: C_14  and  C_16
REMARK   10  A    between atoms: C_16  and  O_18
REMARK   11  A    between atoms: O_18  and  C_19
REMARK   12  A    between atoms: C_19  and  C_20
REMARK   13  A    between atoms: C_22  and  C_23
REMARK   14  A    between atoms: C_23  and  C_24
REMARK   15  A    between atoms: C_25  and  C_26
REMARK   16  A    between atoms: C_25  and  C_27
REMARK                            x       y       z     vdW  Elec       q    Type
REMARK                         _______ _______ _______ _____ _____    ______ ____
ROOT
ATOM      1  C   UNL     1       2.052   7.351  19.380  0.00  0.00    +0.000 A 
ATOM      2  C   UNL     1       2.287   7.787  18.075  0.00  0.00    +0.000 A 
ATOM      3  C   UNL     1       2.050   9.115  17.720  0.00  0.00    +0.000 A 
ATOM      4  C   UNL     1       1.552  10.015  18.665  0.00  0.00    +0.000 A 
ATOM      5  C   UNL     1       1.209   9.596  19.958  0.00  0.00    +0.000 A 
ATOM      6  C   UNL     1       1.486   8.253  20.300  0.00  0.00    +0.000 A 
ENDROOT
BRANCH   5   7
ATOM      7  C   UNL     1       0.658  10.458  21.035  0.00  0.00    +0.000 C 
ATOM      8  C   UNL     1      -0.480  11.186  21.085  0.00  0.00    +0.000 C 
ATOM      9  C   UNL     1      -1.528  11.291  20.015  0.00  0.00    +0.000 C 
BRANCH   8  10
ATOM     10  C   UNL     1      -0.827  11.953  22.327  0.00  0.00    +0.000 C 
ATOM     11  O   UNL     1      -1.702  11.606  23.107  0.00  0.00    +0.000 OA
BRANCH  10  12
ATOM     12  O   UNL     1      -0.079  13.080  22.448  0.00  0.00    +0.000 OA
BRANCH  12  13
ATOM     13  C   UNL     1      -0.812  14.306  22.572  0.00  0.00    +0.000 C 
ATOM     14  C   UNL     1      -1.097  14.895  21.203  0.00  0.00    +0.000 C 
ENDBRANCH  12  13
ENDBRANCH  10  12
ENDBRANCH   8  10
ENDBRANCH   5   7
BRANCH   1  16
ATOM     15  C   UNL     1       2.288   4.926  18.882  0.00  0.00    +0.000 C 
ATOM     16  C   UNL     1       2.435   5.970  19.722  0.00  0.00    +0.000 C 
BRANCH  15  17
ATOM     17  C   UNL     1       2.517   3.457  19.235  0.00  0.00    +0.000 C 
ATOM     18  C   UNL     1       1.420   2.595  18.566  0.00  0.00    +0.000 C 
BRANCH  17  20
ATOM     19  C   UNL     1       1.573   2.788  21.545  0.00  0.00    +0.000 C 
ATOM     20  C   UNL     1       2.529   3.306  20.759  0.00  0.00    +0.000 C 
ENDBRANCH  17  20
BRANCH  17  21
ATOM     21  C   UNL     1       3.919   2.997  18.707  0.00  0.00    +0.000 C 
BRANCH  21  22
ATOM     22  C   UNL     1       4.442   3.777  17.487  0.00  0.00    +0.000 C 
BRANCH  22  23
ATOM     23  C   UNL     1       5.615   4.660  17.811  0.00  0.00    +0.000 C 
ATOM     24  C   UNL     1       5.933   5.829  17.220  0.00  0.00    +0.000 C 
ATOM     25  C   UNL     1       5.097   6.520  16.178  0.00  0.00    +0.000 C 
ATOM     26  C   UNL     1       7.201   6.556  17.583  0.00  0.00    +0.000 C 
ENDBRANCH  22  23
ENDBRANCH  21  22
ENDBRANCH  17  21
ENDBRANCH  15  17
ENDBRANCH   1  16
BRANCH   4  27
ATOM     27  O   UNL     1       1.449  11.330  18.306  0.00  0.00    +0.000 OA
ATOM     28  H   UNL     1       2.317  11.644  18.005  0.00  0.00    +0.000 HD
ENDBRANCH   4  27
TORSDOF 11
ENDMDL
MODEL 4
REMARK VINA RESULT:      -6.7      3.933      9.124
REMARK  Name = 
REMARK  16 active torsions:
REMARK  status: ('A' for Active; 'I' for Inactive)
REMARK    1  A    between atoms: C_2  and  C_3
REMARK    2  A    between atoms: C_3  and  C_4
REMARK    3  A    between atoms: C_3  and  C_5
REMARK    4  A    between atoms: C_3  and  C_22
REMARK    5  A    between atoms: C_6  and  C_7
REMARK    6  A    between atoms: C_10  and  O_11
REMARK    7  A    between atoms: C_12  and  C_13
REMARK    8  A    between atoms: C_14  and  C_15
REMARK    9  A    between atoms: C_14  and  C_16
REMARK   10  A    between atoms: C_16  and  O_18
REMARK   11  A    between atoms: O_18  and  C_19
REMARK   12  A    between atoms: C_19  and  C_20
REMARK   13  A    between atoms: C_22  and  C_23
REMARK   14  A    between atoms: C_23  and  C_24
REMARK   15  A    between atoms: C_25  and  C_26
REMARK   16  A    between atoms: C_25  and  C_27
REMARK                            x       y       z     vdW  Elec       q    Type
REMARK                         _______ _______ _______ _____ _____    ______ ____
ROOT
ATOM      1  C   UNL     1       2.342   7.866  18.953  0.00  0.00    +0.000 A 
ATOM      2  C   UNL     1       2.020   6.995  19.997  0.00  0.00    +0.000 A 
ATOM      3  C   UNL     1       2.557   5.709  20.035  0.00  0.00    +0.000 A 
ATOM      4  C   UNL     1       3.403   5.272  19.013  0.00  0.00    +0.000 A 
ATOM      5  C   UNL     1       3.672   6.077  17.897  0.00  0.00    +0.000 A 
ATOM      6  C   UNL     1       3.140   7.386  17.898  0.00  0.00    +0.000 A 
ENDROOT
BRANCH   5   7
ATOM      7  C   UNL     1       4.540   5.711  16.748  0.00  0.00    +0.000 C 
ATOM      8  C   UNL     1       5.851   5.951  16.524  0.00  0.00    +0.000 C 
ATOM      9  C   UNL     1       6.803   6.666  17.439  0.00  0.00    +0.000 C 
BRANCH   8  10
ATOM     10  C   UNL     1       6.508   5.432  15.279  0.00  0.00    +0.000 C 
ATOM     11  O   UNL     1       7.674   5.662  14.990  0.00  0.00    +0.000 OA
BRANCH  10  12
ATOM     12  O   UNL     1       5.643   4.716  14.515  0.00  0.00    +0.000 OA
BRANCH  12  13
ATOM     13  C   UNL     1       6.186   3.546  13.888  0.00  0.00    +0.000 C 
ATOM     14  C   UNL     1       5.771   3.486  12.429  0.00  0.00    +0.000 C 
ENDBRANCH  12  13
ENDBRANCH  10  12
ENDBRANCH   8  10
ENDBRANCH   5   7
BRANCH   1  16
ATOM     15  C   UNL     1       0.830   9.630  19.840  0.00  0.00    +0.000 C 
ATOM     16  C   UNL     1       1.840   9.248  19.033  0.00  0.00    +0.000 C 
BRANCH  15  17
ATOM     17  C   UNL     1       0.165  11.006  19.850  0.00  0.00    +0.000 C 
ATOM     18  C   UNL     1       1.254  12.097  19.984  0.00  0.00    +0.000 C 
BRANCH  17  20
ATOM     19  C   UNL     1      -0.651  10.831  22.294  0.00  0.00    +0.000 C 
ATOM     20  C   UNL     1      -0.857  11.059  20.989  0.00  0.00    +0.000 C 
ENDBRANCH  17  20
BRANCH  17  21
ATOM     21  C   UNL     1      -0.615  11.226  18.509  0.00  0.00    +0.000 C 
BRANCH  21  22
ATOM     22  C   UNL     1      -1.641  10.131  18.165  0.00  0.00    +0.000 C 
BRANCH  22  23
ATOM     23  C   UNL     1      -3.044  10.658  18.036  0.00  0.00    +0.000 C 
ATOM     24  C   UNL     1      -3.660  11.043  16.901  0.00  0.00    +0.000 C 
ATOM     25  C   UNL     1      -3.074  10.918  15.520  0.00  0.00    +0.000 C 
ATOM     26  C   UNL     1      -5.039  11.647  16.939  0.00  0.00    +0.000 C 
ENDBRANCH  22  23
ENDBRANCH  21  22
ENDBRANCH  17  21
ENDBRANCH  15  17
ENDBRANCH   1  16
BRANCH   4  27
ATOM     27  O   UNL     1       4.000   4.050  19.153  0.00  0.00    +0.000 OA
ATOM     28  H   UNL     1       4.829   4.157  19.644  0.00  0.00    +0.000 HD
ENDBRANCH   4  27
TORSDOF 11
ENDMDL
MODEL 5
REMARK VINA RESULT:      -6.7      3.650      9.295
REMARK  Name = 
REMARK  16 active torsions:
REMARK  status: ('A' for Active; 'I' for Inactive)
REMARK    1  A    between atoms: C_2  and  C_3
REMARK    2  A    between atoms: C_3  and  C_4
REMARK    3  A    between atoms: C_3  and  C_5
REMARK    4  A    between atoms: C_3  and  C_22
REMARK    5  A    between atoms: C_6  and  C_7
REMARK    6  A    between atoms: C_10  and  O_11
REMARK    7  A    between atoms: C_12  and  C_13
REMARK    8  A    between atoms: C_14  and  C_15
REMARK    9  A    between atoms: C_14  and  C_16
REMARK   10  A    between atoms: C_16  and  O_18
REMARK   11  A    between atoms: O_18  and  C_19
REMARK   12  A    between atoms: C_19  and  C_20
REMARK   13  A    between atoms: C_22  and  C_23
REMARK   14  A    between atoms: C_23  and  C_24
REMARK   15  A    between atoms: C_25  and  C_26
REMARK   16  A    between atoms: C_25  and  C_27
REMARK                            x       y       z     vdW  Elec       q    Type
REMARK                         _______ _______ _______ _____ _____    ______ ____
ROOT
ATOM      1  C   UNL     1       2.731   6.846  18.762  0.00  0.00    +0.000 A 
ATOM      2  C   UNL     1       2.781   6.028  19.893  0.00  0.00    +0.000 A 
ATOM      3  C   UNL     1       3.611   4.907  19.918  0.00  0.00    +0.000 A 
ATOM      4  C   UNL     1       4.382   4.581  18.800  0.00  0.00    +0.000 A 
ATOM      5  C   UNL     1       4.286   5.316  17.611  0.00  0.00    +0.000 A 
ATOM      6  C   UNL     1       3.460   6.463  17.621  0.00  0.00    +0.000 A 
ENDROOT
BRANCH   5   7
ATOM      7  C   UNL     1       5.042   5.051  16.360  0.00  0.00    +0.000 C 
ATOM      8  C   UNL     1       6.320   5.340  16.026  0.00  0.00    +0.000 C 
ATOM      9  C   UNL     1       7.344   6.016  16.890  0.00  0.00    +0.000 C 
BRANCH   8  10
ATOM     10  C   UNL     1       6.860   4.923  14.689  0.00  0.00    +0.000 C 
ATOM     11  O   UNL     1       7.851   5.424  14.179  0.00  0.00    +0.000 OA
BRANCH  10  12
ATOM     12  O   UNL     1       6.096   3.956  14.118  0.00  0.00    +0.000 OA
BRANCH  12  13
ATOM     13  C   UNL     1       6.375   3.673  12.740  0.00  0.00    +0.000 C 
ATOM     14  C   UNL     1       5.107   3.261  12.015  0.00  0.00    +0.000 C 
ENDBRANCH  12  13
ENDBRANCH  10  12
ENDBRANCH   8  10
ENDBRANCH   5   7
BRANCH   1  16
ATOM     15  C   UNL     1       1.490   8.610  20.000  0.00  0.00    +0.000 C 
ATOM     16  C   UNL     1       1.928   8.078  18.842  0.00  0.00    +0.000 C 
BRANCH  15  17
ATOM     17  C   UNL     1       0.527   9.789  20.134  0.00  0.00    +0.000 C 
ATOM     18  C   UNL     1      -0.684   9.361  20.998  0.00  0.00    +0.000 C 
BRANCH  17  20
ATOM     19  C   UNL     1      -1.118  10.253  18.198  0.00  0.00    +0.000 C 
ATOM     20  C   UNL     1       0.110  10.254  18.736  0.00  0.00    +0.000 C 
ENDBRANCH  17  20
BRANCH  17  21
ATOM     21  C   UNL     1       1.252  10.989  20.832  0.00  0.00    +0.000 C 
BRANCH  21  22
ATOM     22  C   UNL     1       0.535  12.345  20.704  0.00  0.00    +0.000 C 
BRANCH  22  23
ATOM     23  C   UNL     1      -0.313  12.679  21.901  0.00  0.00    +0.000 C 
ATOM     24  C   UNL     1      -1.651  12.833  21.923  0.00  0.00    +0.000 C 
ATOM     25  C   UNL     1      -2.564  12.597  20.751  0.00  0.00    +0.000 C 
ATOM     26  C   UNL     1      -2.356  13.268  23.182  0.00  0.00    +0.000 C 
ENDBRANCH  22  23
ENDBRANCH  21  22
ENDBRANCH  17  21
ENDBRANCH  15  17
ENDBRANCH   1  16
BRANCH   4  27
ATOM     27  O   UNL     1       5.268   3.546  18.913  0.00  0.00    +0.000 OA
ATOM     28  H   UNL     1       5.022   3.001  19.677  0.00  0.00    +0.000 HD
ENDBRANCH   4  27
TORSDOF 11
ENDMDL
MODEL 6
REMARK VINA RESULT:      -6.6      4.089      9.643
REMARK  Name = 
REMARK  16 active torsions:
REMARK  status: ('A' for Active; 'I' for Inactive)
REMARK    1  A    between atoms: C_2  and  C_3
REMARK    2  A    between atoms: C_3  and  C_4
REMARK    3  A    between atoms: C_3  and  C_5
REMARK    4  A    between atoms: C_3  and  C_22
REMARK    5  A    between atoms: C_6  and  C_7
REMARK    6  A    between atoms: C_10  and  O_11
REMARK    7  A    between atoms: C_12  and  C_13
REMARK    8  A    between atoms: C_14  and  C_15
REMARK    9  A    between atoms: C_14  and  C_16
REMARK   10  A    between atoms: C_16  and  O_18
REMARK   11  A    between atoms: O_18  and  C_19
REMARK   12  A    between atoms: C_19  and  C_20
REMARK   13  A    between atoms: C_22  and  C_23
REMARK   14  A    between atoms: C_23  and  C_24
REMARK   15  A    between atoms: C_25  and  C_26
REMARK   16  A    between atoms: C_25  and  C_27
REMARK                            x       y       z     vdW  Elec       q    Type
REMARK                         _______ _______ _______ _____ _____    ______ ____
ROOT
ATOM      1  C   UNL     1       2.519   7.452  18.517  0.00  0.00    +0.000 A 
ATOM      2  C   UNL     1       2.438   6.683  19.680  0.00  0.00    +0.000 A 
ATOM      3  C   UNL     1       3.180   5.509  19.804  0.00  0.00    +0.000 A 
ATOM      4  C   UNL     1       3.995   5.081  18.753  0.00  0.00    +0.000 A 
ATOM      5  C   UNL     1       4.028   5.768  17.532  0.00  0.00    +0.000 A 
ATOM      6  C   UNL     1       3.290   6.970  17.444  0.00  0.00    +0.000 A 
ENDROOT
BRANCH   5   7
ATOM      7  C   UNL     1       4.842   5.397  16.345  0.00  0.00    +0.000 C 
ATOM      8  C   UNL     1       6.159   5.566  16.092  0.00  0.00    +0.000 C 
ATOM      9  C   UNL     1       7.177   6.186  17.005  0.00  0.00    +0.000 C 
BRANCH   8  10
ATOM     10  C   UNL     1       6.749   5.058  14.810  0.00  0.00    +0.000 C 
ATOM     11  O   UNL     1       7.822   5.442  14.366  0.00  0.00    +0.000 OA
BRANCH  10  12
ATOM     12  O   UNL     1       5.933   4.158  14.202  0.00  0.00    +0.000 OA
BRANCH  12  13
ATOM     13  C   UNL     1       6.385   3.662  12.935  0.00  0.00    +0.000 C 
ATOM     14  C   UNL     1       5.202   3.293  12.058  0.00  0.00    +0.000 C 
ENDBRANCH  12  13
ENDBRANCH  10  12
ENDBRANCH   8  10
ENDBRANCH   5   7
BRANCH   1  16
ATOM     15  C   UNL     1       1.096   9.218  19.538  0.00  0.00    +0.000 C 
ATOM     16  C   UNL     1       1.805   8.740  18.496  0.00  0.00    +0.000 C 
BRANCH  15  17
ATOM     17  C   UNL     1       0.209  10.463  19.519  0.00  0.00    +0.000 C 
ATOM     18  C   UNL     1      -0.383  10.687  20.932  0.00  0.00    +0.000 C 
BRANCH  17  20
ATOM     19  C   UNL     1      -1.617  11.237  17.865  0.00  0.00    +0.000 C 
ATOM     20  C   UNL     1      -0.876  10.287  18.453  0.00  0.00    +0.000 C 
ENDBRANCH  17  20
BRANCH  17  21
ATOM     21  C   UNL     1       1.062  11.714  19.119  0.00  0.00    +0.000 C 
BRANCH  21  22
ATOM     22  C   UNL     1       1.053  12.862  20.146  0.00  0.00    +0.000 C 
BRANCH  22  23
ATOM     23  C   UNL     1       0.358  14.097  19.643  0.00  0.00    +0.000 C 
ATOM     24  C   UNL     1       0.915  15.111  18.950  0.00  0.00    +0.000 C 
ATOM     25  C   UNL     1       2.338  15.139  18.464  0.00  0.00    +0.000 C 
ATOM     26  C   UNL     1       0.112  16.336  18.598  0.00  0.00    +0.000 C 
ENDBRANCH  22  23
ENDBRANCH  21  22
ENDBRANCH  17  21
ENDBRANCH  15  17
ENDBRANCH   1  16
BRANCH   4  27
ATOM     27  O   UNL     1       4.794   3.992  18.964  0.00  0.00    +0.000 OA
ATOM     28  H   UNL     1       4.838   3.469  18.148  0.00  0.00    +0.000 HD
ENDBRANCH   4  27
TORSDOF 11
ENDMDL
MODEL 7
REMARK VINA RESULT:      -6.6      1.292      3.552
REMARK  Name = 
REMARK  16 active torsions:
REMARK  status: ('A' for Active; 'I' for Inactive)
REMARK    1  A    between atoms: C_2  and  C_3
REMARK    2  A    between atoms: C_3  and  C_4
REMARK    3  A    between atoms: C_3  and  C_5
REMARK    4  A    between atoms: C_3  and  C_22
REMARK    5  A    between atoms: C_6  and  C_7
REMARK    6  A    between atoms: C_10  and  O_11
REMARK    7  A    between atoms: C_12  and  C_13
REMARK    8  A    between atoms: C_14  and  C_15
REMARK    9  A    between atoms: C_14  and  C_16
REMARK   10  A    between atoms: C_16  and  O_18
REMARK   11  A    between atoms: O_18  and  C_19
REMARK   12  A    between atoms: C_19  and  C_20
REMARK   13  A    between atoms: C_22  and  C_23
REMARK   14  A    between atoms: C_23  and  C_24
REMARK   15  A    between atoms: C_25  and  C_26
REMARK   16  A    between atoms: C_25  and  C_27
REMARK                            x       y       z     vdW  Elec       q    Type
REMARK                         _______ _______ _______ _____ _____    ______ ____
ROOT
ATOM      1  C   UNL     1       2.169   7.259  19.408  0.00  0.00    +0.000 A 
ATOM      2  C   UNL     1       2.452   7.724  18.122  0.00  0.00    +0.000 A 
ATOM      3  C   UNL     1       2.142   9.034  17.760  0.00  0.00    +0.000 A 
ATOM      4  C   UNL     1       1.523   9.887  18.677  0.00  0.00    +0.000 A 
ATOM      5  C   UNL     1       1.131   9.432  19.943  0.00  0.00    +0.000 A 
ATOM      6  C   UNL     1       1.484   8.109  20.295  0.00  0.00    +0.000 A 
ENDROOT
BRANCH   5   7
ATOM      7  C   UNL     1       0.454  10.242  20.989  0.00  0.00    +0.000 C 
ATOM      8  C   UNL     1      -0.694  10.955  20.944  0.00  0.00    +0.000 C 
ATOM      9  C   UNL     1      -1.622  11.092  19.772  0.00  0.00    +0.000 C 
BRANCH   8  10
ATOM     10  C   UNL     1      -1.185  11.665  22.171  0.00  0.00    +0.000 C 
ATOM     11  O   UNL     1      -0.544  11.732  23.210  0.00  0.00    +0.000 OA
BRANCH  10  12
ATOM     12  O   UNL     1      -2.427  12.184  21.988  0.00  0.00    +0.000 OA
BRANCH  12  13
ATOM     13  C   UNL     1      -3.215  12.350  23.175  0.00  0.00    +0.000 C 
ATOM     14  C   UNL     1      -3.416  13.824  23.477  0.00  0.00    +0.000 C 
ENDBRANCH  12  13
ENDBRANCH  10  12
ENDBRANCH   8  10
ENDBRANCH   5   7
BRANCH   1  16
ATOM     15  C   UNL     1       2.633   4.868  18.907  0.00  0.00    +0.000 C 
ATOM     16  C   UNL     1       2.630   5.906  19.766  0.00  0.00    +0.000 C 
BRANCH  15  17
ATOM     17  C   UNL     1       2.946   3.415  19.263  0.00  0.00    +0.000 C 
ATOM     18  C   UNL     1       2.357   2.486  18.174  0.00  0.00    +0.000 C 
BRANCH  17  20
ATOM     19  C   UNL     1       1.103   2.950  21.012  0.00  0.00    +0.000 C 
ATOM     20  C   UNL     1       2.385   3.110  20.655  0.00  0.00    +0.000 C 
ENDBRANCH  17  20
BRANCH  17  21
ATOM     21  C   UNL     1       4.497   3.207  19.325  0.00  0.00    +0.000 C 
BRANCH  21  22
ATOM     22  C   UNL     1       5.328   4.302  18.631  0.00  0.00    +0.000 C 
BRANCH  22  23
ATOM     23  C   UNL     1       5.526   4.050  17.162  0.00  0.00    +0.000 C 
ATOM     24  C   UNL     1       5.540   4.972  16.179  0.00  0.00    +0.000 C 
ATOM     25  C   UNL     1       5.456   6.459  16.394  0.00  0.00    +0.000 C 
ATOM     26  C   UNL     1       5.649   4.558  14.735  0.00  0.00    +0.000 C 
ENDBRANCH  22  23
ENDBRANCH  21  22
ENDBRANCH  17  21
ENDBRANCH  15  17
ENDBRANCH   1  16
BRANCH   4  27
ATOM     27  O   UNL     1       1.347  11.194  18.319  0.00  0.00    +0.000 OA
ATOM     28  H   UNL     1       0.758  11.621  18.960  0.00  0.00    +0.000 HD
ENDBRANCH   4  27
TORSDOF 11
ENDMDL
MODEL 8
REMARK VINA RESULT:      -6.6      3.942      9.418
REMARK  Name = 
REMARK  16 active torsions:
REMARK  status: ('A' for Active; 'I' for Inactive)
REMARK    1  A    between atoms: C_2  and  C_3
REMARK    2  A    between atoms: C_3  and  C_4
REMARK    3  A    between atoms: C_3  and  C_5
REMARK    4  A    between atoms: C_3  and  C_22
REMARK    5  A    between atoms: C_6  and  C_7
REMARK    6  A    between atoms: C_10  and  O_11
REMARK    7  A    between atoms: C_12  and  C_13
REMARK    8  A    between atoms: C_14  and  C_15
REMARK    9  A    between atoms: C_14  and  C_16
REMARK   10  A    between atoms: C_16  and  O_18
REMARK   11  A    between atoms: O_18  and  C_19
REMARK   12  A    between atoms: C_19  and  C_20
REMARK   13  A    between atoms: C_22  and  C_23
REMARK   14  A    between atoms: C_23  and  C_24
REMARK   15  A    between atoms: C_25  and  C_26
REMARK   16  A    between atoms: C_25  and  C_27
REMARK                            x       y       z     vdW  Elec       q    Type
REMARK                         _______ _______ _______ _____ _____    ______ ____
ROOT
ATOM      1  C   UNL     1       2.755   6.352  19.010  0.00  0.00    +0.000 A 
ATOM      2  C   UNL     1       2.493   5.269  19.852  0.00  0.00    +0.000 A 
ATOM      3  C   UNL     1       3.067   4.023  19.600  0.00  0.00    +0.000 A 
ATOM      4  C   UNL     1       3.891   3.843  18.486  0.00  0.00    +0.000 A 
ATOM      5  C   UNL     1       4.099   4.876  17.561  0.00  0.00    +0.000 A 
ATOM      6  C   UNL     1       3.531   6.135  17.856  0.00  0.00    +0.000 A 
ENDROOT
BRANCH   5   7
ATOM      7  C   UNL     1       4.939   4.793  16.338  0.00  0.00    +0.000 C 
ATOM      8  C   UNL     1       6.281   4.841  16.187  0.00  0.00    +0.000 C 
ATOM      9  C   UNL     1       7.304   4.978  17.277  0.00  0.00    +0.000 C 
BRANCH   8  10
ATOM     10  C   UNL     1       6.889   4.694  14.823  0.00  0.00    +0.000 C 
ATOM     11  O   UNL     1       7.831   5.369  14.432  0.00  0.00    +0.000 OA
BRANCH  10  12
ATOM     12  O   UNL     1       6.246   3.753  14.084  0.00  0.00    +0.000 OA
BRANCH  12  13
ATOM     13  C   UNL     1       6.488   3.796  12.672  0.00  0.00    +0.000 C 
ATOM     14  C   UNL     1       5.437   2.993  11.928  0.00  0.00    +0.000 C 
ENDBRANCH  12  13
ENDBRANCH  10  12
ENDBRANCH   8  10
ENDBRANCH   5   7
BRANCH   1  16
ATOM     15  C   UNL     1       1.575   8.491  18.544  0.00  0.00    +0.000 C 
ATOM     16  C   UNL     1       2.217   7.668  19.397  0.00  0.00    +0.000 C 
BRANCH  15  17
ATOM     17  C   UNL     1       1.139   9.924  18.845  0.00  0.00    +0.000 C 
ATOM     18  C   UNL     1       1.000  10.103  20.376  0.00  0.00    +0.000 C 
BRANCH  17  20
ATOM     19  C   UNL     1      -1.387  10.419  18.626  0.00  0.00    +0.000 C 
ATOM     20  C   UNL     1      -0.169  10.214  18.103  0.00  0.00    +0.000 C 
ENDBRANCH  17  20
BRANCH  17  21
ATOM     21  C   UNL     1       2.215  10.929  18.310  0.00  0.00    +0.000 C 
BRANCH  21  22
ATOM     22  C   UNL     1       1.684  12.336  17.980  0.00  0.00    +0.000 C 
BRANCH  22  23
ATOM     23  C   UNL     1       1.898  13.323  19.094  0.00  0.00    +0.000 C 
ATOM     24  C   UNL     1       0.954  14.057  19.714  0.00  0.00    +0.000 C 
ATOM     25  C   UNL     1      -0.525  13.945  19.462  0.00  0.00    +0.000 C 
ATOM     26  C   UNL     1       1.332  15.084  20.750  0.00  0.00    +0.000 C 
ENDBRANCH  22  23
ENDBRANCH  21  22
ENDBRANCH  17  21
ENDBRANCH  15  17
ENDBRANCH   1  16
BRANCH   4  27
ATOM     27  O   UNL     1       4.526   2.641  18.347  0.00  0.00    +0.000 OA
ATOM     28  H   UNL     1       5.064   2.473  19.136  0.00  0.00    +0.000 HD
ENDBRANCH   4  27
TORSDOF 11
ENDMDL
MODEL 9
REMARK VINA RESULT:      -6.6      2.670      5.323
REMARK  Name = 
REMARK  16 active torsions:
REMARK  status: ('A' for Active; 'I' for Inactive)
REMARK    1  A    between atoms: C_2  and  C_3
REMARK    2  A    between atoms: C_3  and  C_4
REMARK    3  A    between atoms: C_3  and  C_5
REMARK    4  A    between atoms: C_3  and  C_22
REMARK    5  A    between atoms: C_6  and  C_7
REMARK    6  A    between atoms: C_10  and  O_11
REMARK    7  A    between atoms: C_12  and  C_13
REMARK    8  A    between atoms: C_14  and  C_15
REMARK    9  A    between atoms: C_14  and  C_16
REMARK   10  A    between atoms: C_16  and  O_18
REMARK   11  A    between atoms: O_18  and  C_19
REMARK   12  A    between atoms: C_19  and  C_20
REMARK   13  A    between atoms: C_22  and  C_23
REMARK   14  A    between atoms: C_23  and  C_24
REMARK   15  A    between atoms: C_25  and  C_26
REMARK   16  A    between atoms: C_25  and  C_27
REMARK                            x       y       z     vdW  Elec       q    Type
REMARK                         _______ _______ _______ _____ _____    ______ ____
ROOT
ATOM      1  C   UNL     1       4.100   4.299  19.086  0.00  0.00    +0.000 A 
ATOM      2  C   UNL     1       3.538   3.021  19.085  0.00  0.00    +0.000 A 
ATOM      3  C   UNL     1       2.264   2.809  19.610  0.00  0.00    +0.000 A 
ATOM      4  C   UNL     1       1.548   3.874  20.163  0.00  0.00    +0.000 A 
ATOM      5  C   UNL     1       2.115   5.151  20.275  0.00  0.00    +0.000 A 
ATOM      6  C   UNL     1       3.395   5.344  19.709  0.00  0.00    +0.000 A 
ENDROOT
BRANCH   5   7
ATOM      7  C   UNL     1       1.455   6.348  20.858  0.00  0.00    +0.000 C 
ATOM      8  C   UNL     1       1.416   7.628  20.427  0.00  0.00    +0.000 C 
ATOM      9  C   UNL     1       2.044   8.177  19.178  0.00  0.00    +0.000 C 
BRANCH   8  10
ATOM     10  C   UNL     1       0.635   8.655  21.193  0.00  0.00    +0.000 C 
ATOM     11  O   UNL     1      -0.302   8.376  21.927  0.00  0.00    +0.000 OA
BRANCH  10  12
ATOM     12  O   UNL     1       1.079   9.914  20.943  0.00  0.00    +0.000 OA
BRANCH  12  13
ATOM     13  C   UNL     1       0.094  10.953  21.031  0.00  0.00    +0.000 C 
ATOM     14  C   UNL     1      -0.319  11.411  19.644  0.00  0.00    +0.000 C 
ENDBRANCH  12  13
ENDBRANCH  10  12
ENDBRANCH   8  10
ENDBRANCH   5   7
BRANCH   1  16
ATOM     15  C   UNL     1       5.646   5.462  17.523  0.00  0.00    +0.000 C 
ATOM     16  C   UNL     1       5.397   4.478  18.410  0.00  0.00    +0.000 C 
BRANCH  15  17
ATOM     17  C   UNL     1       6.911   5.603  16.676  0.00  0.00    +0.000 C 
ATOM     18  C   UNL     1       7.918   4.499  17.080  0.00  0.00    +0.000 C 
BRANCH  17  20
ATOM     19  C   UNL     1       7.729   7.656  18.012  0.00  0.00    +0.000 C 
ATOM     20  C   UNL     1       7.483   7.011  16.863  0.00  0.00    +0.000 C 
ENDBRANCH  17  20
BRANCH  17  21
ATOM     21  C   UNL     1       6.554   5.437  15.160  0.00  0.00    +0.000 C 
BRANCH  21  22
ATOM     22  C   UNL     1       6.398   3.982  14.684  0.00  0.00    +0.000 C 
BRANCH  22  23
ATOM     23  C   UNL     1       5.316   3.812  13.653  0.00  0.00    +0.000 C 
ATOM     24  C   UNL     1       5.469   3.370  12.389  0.00  0.00    +0.000 C 
ATOM     25  C   UNL     1       6.760   2.864  11.805  0.00  0.00    +0.000 C 
ATOM     26  C   UNL     1       4.304   3.347  11.434  0.00  0.00    +0.000 C 
ENDBRANCH  22  23
ENDBRANCH  21  22
ENDBRANCH  17  21
ENDBRANCH  15  17
ENDBRANCH   1  16
BRANCH   4  27
ATOM     27  O   UNL     1       0.259   3.644  20.555  0.00  0.00    +0.000 OA
ATOM     28  H   UNL     1       0.023   4.276  21.253  0.00  0.00    +0.000 HD
ENDBRANCH   4  27
TORSDOF 11
ENDMDL
