MODEL 1
REMARK VINA RESULT:      -8.0      0.000      0.000
REMARK  Name = 
REMARK  8 active torsions:
REMARK  status: ('A' for Active; 'I' for Inactive)
REMARK    1  A    between atoms: C_1  and  N_2
REMARK    2  A    between atoms: C_3  and  C_5
REMARK    3  A    between atoms: C_8  and  C_9
REMARK    4  A    between atoms: C_9  and  N_10
REMARK    5  A    between atoms: C_11  and  C_13
REMARK    6  A    between atoms: C_17  and  C_18
REMARK    7  A    between atoms: C_21  and  O_22
REMARK    8  A    between atoms: O_22  and  C_23
REMARK                            x       y       z     vdW  Elec       q    Type
REMARK                         _______ _______ _______ _____ _____    ______ ____
ROOT
ATOM      1  N   UNL     1       1.698   6.747  21.038  0.00  0.00    +0.000 N 
ATOM      2  C   UNL     1       2.079   6.166  19.854  0.00  0.00    +0.000 C 
ATOM      3  O   UNL     1       2.441   6.829  18.882  0.00  0.00    +0.000 OA
ATOM      4  H   UNL     1       1.345   6.137  21.769  0.00  0.00    +0.000 HD
ENDROOT
BRANCH   2   5
ATOM      5  C   UNL     1       1.997   4.718  19.843  0.00  0.00    +0.000 A 
ATOM      6  N   UNL     1       1.002   3.984  20.476  0.00  0.00    +0.000 NA
ATOM      7  C   UNL     1       1.393   2.741  20.306  0.00  0.00    +0.000 A 
ATOM      8  O   UNL     1       2.521   2.579  19.561  0.00  0.00    +0.000 OA
ATOM      9  C   UNL     1       2.900   3.858  19.244  0.00  0.00    +0.000 A 
BRANCH   9  10
ATOM     10  C   UNL     1       4.099   4.020  18.436  0.00  0.00    +0.000 A 
ATOM     11  C   UNL     1       4.056   3.861  17.042  0.00  0.00    +0.000 A 
ATOM     12  C   UNL     1       5.164   4.174  16.250  0.00  0.00    +0.000 A 
ATOM     13  C   UNL     1       6.336   4.636  16.842  0.00  0.00    +0.000 A 
ATOM     14  C   UNL     1       6.416   4.721  18.232  0.00  0.00    +0.000 A 
ATOM     15  C   UNL     1       5.303   4.413  19.024  0.00  0.00    +0.000 A 
BRANCH  13  16
ATOM     16  O   UNL     1       7.348   4.946  15.977  0.00  0.00    +0.000 OA
ATOM     17  C   UNL     1       7.025   4.810  14.597  0.00  0.00    +0.000 C 
ENDBRANCH  13  16
ENDBRANCH   9  10
ENDBRANCH   2   5
BRANCH   1  18
ATOM     18  C   UNL     1       1.570   8.181  21.133  0.00  0.00    +0.000 C 
BRANCH  18  22
ATOM     19  C   UNL     1      -0.150  11.389  22.119  0.00  0.00    +0.000 C 
ATOM     20  C   UNL     1      -0.138  10.108  22.966  0.00  0.00    +0.000 C 
ATOM     21  C   UNL     1      -0.640   8.894  22.184  0.00  0.00    +0.000 C 
ATOM     22  C   UNL     1       0.140   8.660  20.880  0.00  0.00    +0.000 C 
ATOM     23  C   UNL     1       0.154   9.937  20.026  0.00  0.00    +0.000 C 
ATOM     24  C   UNL     1       0.616  11.177  20.803  0.00  0.00    +0.000 C 
BRANCH  19  27
ATOM     25  C   UNL     1      -3.697  12.465  22.953  0.00  0.00    +0.000 C 
ATOM     26  N   UNL     1      -2.308  12.098  23.020  0.00  0.00    +0.000 N 
ATOM     27  C   UNL     1      -1.578  11.889  21.870  0.00  0.00    +0.000 C 
ATOM     28  O   UNL     1      -2.040  12.091  20.754  0.00  0.00    +0.000 OA
ATOM     29  H   UNL     1      -1.876  11.970  23.926  0.00  0.00    +0.000 HD
ENDBRANCH  19  27
ENDBRANCH  18  22
ENDBRANCH   1  18
TORSDOF 6
ENDMDL
MODEL 2
REMARK VINA RESULT:      -7.9      3.395      7.518
REMARK  Name = 
REMARK  8 active torsions:
REMARK  status: ('A' for Active; 'I' for Inactive)
REMARK    1  A    between atoms: C_1  and  N_2
REMARK    2  A    between atoms: C_3  and  C_5
REMARK    3  A    between atoms: C_8  and  C_9
REMARK    4  A    between atoms: C_9  and  N_10
REMARK    5  A    between atoms: C_11  and  C_13
REMARK    6  A    between atoms: C_17  and  C_18
REMARK    7  A    between atoms: C_21  and  O_22
REMARK    8  A    between atoms: O_22  and  C_23
REMARK                            x       y       z     vdW  Elec       q    Type
REMARK                         _______ _______ _______ _____ _____    ______ ____
ROOT
ATOM      1  N   UNL     1       4.222   3.227  17.907  0.00  0.00    +0.000 N 
ATOM      2  C   UNL     1       2.850   3.203  17.939  0.00  0.00    +0.000 C 
ATOM      3  O   UNL     1       2.170   3.131  16.916  0.00  0.00    +0.000 OA
ATOM      4  H   UNL     1       4.710   3.361  18.788  0.00  0.00    +0.000 HD
ENDROOT
BRANCH   2   5
ATOM      5  C   UNL     1       2.279   3.294  19.270  0.00  0.00    +0.000 A 
ATOM      6  N   UNL     1       1.988   2.200  20.074  0.00  0.00    +0.000 NA
ATOM      7  C   UNL     1       1.388   2.742  21.110  0.00  0.00    +0.000 A 
ATOM      8  O   UNL     1       1.312   4.101  21.097  0.00  0.00    +0.000 OA
ATOM      9  C   UNL     1       1.909   4.459  19.916  0.00  0.00    +0.000 A 
BRANCH   9  10
ATOM     10  C   UNL     1       1.984   5.879  19.608  0.00  0.00    +0.000 A 
ATOM     11  C   UNL     1       2.190   6.322  18.293  0.00  0.00    +0.000 A 
ATOM     12  C   UNL     1       2.100   7.679  17.970  0.00  0.00    +0.000 A 
ATOM     13  C   UNL     1       1.818   8.614  18.961  0.00  0.00    +0.000 A 
ATOM     14  C   UNL     1       1.690   8.194  20.285  0.00  0.00    +0.000 A 
ATOM     15  C   UNL     1       1.774   6.834  20.606  0.00  0.00    +0.000 A 
BRANCH  13  16
ATOM     16  O   UNL     1       1.717   9.909  18.535  0.00  0.00    +0.000 OA
ATOM     17  C   UNL     1       0.453  10.523  18.762  0.00  0.00    +0.000 C 
ENDBRANCH  13  16
ENDBRANCH   9  10
ENDBRANCH   2   5
BRANCH   1  18
ATOM     18  C   UNL     1       4.916   3.315  16.645  0.00  0.00    +0.000 C 
BRANCH  18  22
ATOM     19  C   UNL     1       7.416   5.668  18.205  0.00  0.00    +0.000 C 
ATOM     20  C   UNL     1       5.939   5.568  18.613  0.00  0.00    +0.000 C 
ATOM     21  C   UNL     1       4.997   5.742  17.421  0.00  0.00    +0.000 C 
ATOM     22  C   UNL     1       5.289   4.752  16.280  0.00  0.00    +0.000 C 
ATOM     23  C   UNL     1       6.767   4.826  15.870  0.00  0.00    +0.000 C 
ATOM     24  C   UNL     1       7.730   4.694  17.058  0.00  0.00    +0.000 C 
BRANCH  19  27
ATOM     25  C   UNL     1       8.802   9.167  18.725  0.00  0.00    +0.000 C 
ATOM     26  N   UNL     1       8.463   7.776  18.862  0.00  0.00    +0.000 N 
ATOM     27  C   UNL     1       7.808   7.107  17.851  0.00  0.00    +0.000 C 
ATOM     28  O   UNL     1       7.569   7.628  16.768  0.00  0.00    +0.000 OA
ATOM     29  H   UNL     1       8.688   7.297  19.725  0.00  0.00    +0.000 HD
ENDBRANCH  19  27
ENDBRANCH  18  22
ENDBRANCH   1  18
TORSDOF 6
ENDMDL
MODEL 3
REMARK VINA RESULT:      -7.7      3.278      7.475
REMARK  Name = 
REMARK  8 active torsions:
REMARK  status: ('A' for Active; 'I' for Inactive)
REMARK    1  A    between atoms: C_1  and  N_2
REMARK    2  A    between atoms: C_3  and  C_5
REMARK    3  A    between atoms: C_8  and  C_9
REMARK    4  A    between atoms: C_9  and  N_10
REMARK    5  A    between atoms: C_11  and  C_13
REMARK    6  A    between atoms: C_17  and  C_18
REMARK    7  A    between atoms: C_21  and  O_22
REMARK    8  A    between atoms: O_22  and  C_23
REMARK                            x       y       z     vdW  Elec       q    Type
REMARK                         _______ _______ _______ _____ _____    ______ ____
ROOT
ATOM      1  N   UNL     1       4.179   3.392  17.768  0.00  0.00    +0.000 N 
ATOM      2  C   UNL     1       2.838   3.384  18.064  0.00  0.00    +0.000 C 
ATOM      3  O   UNL     1       1.974   3.302  17.192  0.00  0.00    +0.000 OA
ATOM      4  H   UNL     1       4.828   3.536  18.536  0.00  0.00    +0.000 HD
ENDROOT
BRANCH   2   5
ATOM      5  C   UNL     1       2.535   3.505  19.477  0.00  0.00    +0.000 A 
ATOM      6  N   UNL     1       2.471   2.434  20.360  0.00  0.00    +0.000 NA
ATOM      7  C   UNL     1       2.055   2.991  21.475  0.00  0.00    +0.000 A 
ATOM      8  O   UNL     1       1.899   4.342  21.432  0.00  0.00    +0.000 OA
ATOM      9  C   UNL     1       2.231   4.677  20.145  0.00  0.00    +0.000 A 
BRANCH   9  10
ATOM     10  C   UNL     1       2.160   6.084  19.781  0.00  0.00    +0.000 A 
ATOM     11  C   UNL     1       2.474   6.510  18.481  0.00  0.00    +0.000 A 
ATOM     12  C   UNL     1       2.251   7.831  18.085  0.00  0.00    +0.000 A 
ATOM     13  C   UNL     1       1.727   8.750  18.988  0.00  0.00    +0.000 A 
ATOM     14  C   UNL     1       1.486   8.359  20.305  0.00  0.00    +0.000 A 
ATOM     15  C   UNL     1       1.703   7.033  20.699  0.00  0.00    +0.000 A 
BRANCH  13  16
ATOM     16  O   UNL     1       1.515  10.007  18.491  0.00  0.00    +0.000 OA
ATOM     17  C   UNL     1       0.823  10.892  19.365  0.00  0.00    +0.000 C 
ENDBRANCH  13  16
ENDBRANCH   9  10
ENDBRANCH   2   5
BRANCH   1  18
ATOM     18  C   UNL     1       4.618   3.450  16.395  0.00  0.00    +0.000 C 
BRANCH  18  22
ATOM     19  C   UNL     1       5.804   6.899  17.350  0.00  0.00    +0.000 C 
ATOM     20  C   UNL     1       5.219   6.526  15.981  0.00  0.00    +0.000 C 
ATOM     21  C   UNL     1       5.954   5.348  15.341  0.00  0.00    +0.000 C 
ATOM     22  C   UNL     1       5.992   4.105  16.246  0.00  0.00    +0.000 C 
ATOM     23  C   UNL     1       6.558   4.463  17.627  0.00  0.00    +0.000 C 
ATOM     24  C   UNL     1       5.861   5.669  18.271  0.00  0.00    +0.000 C 
BRANCH  19  27
ATOM     25  C   UNL     1       8.504   9.523  17.864  0.00  0.00    +0.000 C 
ATOM     26  N   UNL     1       7.315   8.719  17.964  0.00  0.00    +0.000 N 
ATOM     27  C   UNL     1       7.175   7.571  17.215  0.00  0.00    +0.000 C 
ATOM     28  O   UNL     1       8.077   7.135  16.509  0.00  0.00    +0.000 OA
ATOM     29  H   UNL     1       6.567   9.021  18.575  0.00  0.00    +0.000 HD
ENDBRANCH  19  27
ENDBRANCH  18  22
ENDBRANCH   1  18
TORSDOF 6
ENDMDL
MODEL 4
REMARK VINA RESULT:      -7.7      1.759      2.481
REMARK  Name = 
REMARK  8 active torsions:
REMARK  status: ('A' for Active; 'I' for Inactive)
REMARK    1  A    between atoms: C_1  and  N_2
REMARK    2  A    between atoms: C_3  and  C_5
REMARK    3  A    between atoms: C_8  and  C_9
REMARK    4  A    between atoms: C_9  and  N_10
REMARK    5  A    between atoms: C_11  and  C_13
REMARK    6  A    between atoms: C_17  and  C_18
REMARK    7  A    between atoms: C_21  and  O_22
REMARK    8  A    between atoms: O_22  and  C_23
REMARK                            x       y       z     vdW  Elec       q    Type
REMARK                         _______ _______ _______ _____ _____    ______ ____
ROOT
ATOM      1  N   UNL     1       2.061   5.813  20.724  0.00  0.00    +0.000 N 
ATOM      2  C   UNL     1       2.286   4.994  19.645  0.00  0.00    +0.000 C 
ATOM      3  O   UNL     1       1.778   5.203  18.544  0.00  0.00    +0.000 OA
ATOM      4  H   UNL     1       2.459   5.535  21.616  0.00  0.00    +0.000 HD
ENDROOT
BRANCH   2   5
ATOM      5  C   UNL     1       3.149   3.861  19.922  0.00  0.00    +0.000 A 
ATOM      6  N   UNL     1       2.911   2.918  20.913  0.00  0.00    +0.000 NA
ATOM      7  C   UNL     1       3.991   2.170  20.879  0.00  0.00    +0.000 A 
ATOM      8  O   UNL     1       4.895   2.490  19.914  0.00  0.00    +0.000 OA
ATOM      9  C   UNL     1       4.340   3.573  19.280  0.00  0.00    +0.000 A 
BRANCH   9  10
ATOM     10  C   UNL     1       5.086   4.157  18.177  0.00  0.00    +0.000 A 
ATOM     11  C   UNL     1       6.339   4.753  18.388  0.00  0.00    +0.000 A 
ATOM     12  C   UNL     1       7.128   5.167  17.312  0.00  0.00    +0.000 A 
ATOM     13  C   UNL     1       6.668   5.006  16.009  0.00  0.00    +0.000 A 
ATOM     14  C   UNL     1       5.391   4.489  15.789  0.00  0.00    +0.000 A 
ATOM     15  C   UNL     1       4.605   4.068  16.868  0.00  0.00    +0.000 A 
BRANCH  13  16
ATOM     16  O   UNL     1       7.530   5.412  15.027  0.00  0.00    +0.000 OA
ATOM     17  C   UNL     1       7.254   4.894  13.731  0.00  0.00    +0.000 C 
ENDBRANCH  13  16
ENDBRANCH   9  10
ENDBRANCH   2   5
BRANCH   1  18
ATOM     18  C   UNL     1       1.091   6.878  20.635  0.00  0.00    +0.000 C 
BRANCH  18  22
ATOM     19  C   UNL     1      -0.482  10.303  20.755  0.00  0.00    +0.000 C 
ATOM     20  C   UNL     1      -0.066   9.578  19.467  0.00  0.00    +0.000 C 
ATOM     21  C   UNL     1       1.398   9.139  19.498  0.00  0.00    +0.000 C 
ATOM     22  C   UNL     1       1.733   8.264  20.718  0.00  0.00    +0.000 C 
ATOM     23  C   UNL     1       1.308   8.965  22.016  0.00  0.00    +0.000 C 
ATOM     24  C   UNL     1      -0.148   9.451  21.991  0.00  0.00    +0.000 C 
BRANCH  19  27
ATOM     25  C   UNL     1       0.969  13.594  19.529  0.00  0.00    +0.000 C 
ATOM     26  N   UNL     1       0.300  12.323  19.625  0.00  0.00    +0.000 N 
ATOM     27  C   UNL     1       0.142  11.700  20.844  0.00  0.00    +0.000 C 
ATOM     28  O   UNL     1       0.473  12.229  21.898  0.00  0.00    +0.000 OA
ATOM     29  H   UNL     1      -0.032  11.877  18.780  0.00  0.00    +0.000 HD
ENDBRANCH  19  27
ENDBRANCH  18  22
ENDBRANCH   1  18
TORSDOF 6
ENDMDL
MODEL 5
REMARK VINA RESULT:      -7.7      2.533      3.455
REMARK  Name = 
REMARK  8 active torsions:
REMARK  status: ('A' for Active; 'I' for Inactive)
REMARK    1  A    between atoms: C_1  and  N_2
REMARK    2  A    between atoms: C_3  and  C_5
REMARK    3  A    between atoms: C_8  and  C_9
REMARK    4  A    between atoms: C_9  and  N_10
REMARK    5  A    between atoms: C_11  and  C_13
REMARK    6  A    between atoms: C_17  and  C_18
REMARK    7  A    between atoms: C_21  and  O_22
REMARK    8  A    between atoms: O_22  and  C_23
REMARK                            x       y       z     vdW  Elec       q    Type
REMARK                         _______ _______ _______ _____ _____    ______ ____
ROOT
ATOM      1  N   UNL     1       1.558   5.321  19.695  0.00  0.00    +0.000 N 
ATOM      2  C   UNL     1       2.289   4.320  20.286  0.00  0.00    +0.000 C 
ATOM      3  O   UNL     1       2.441   4.250  21.505  0.00  0.00    +0.000 OA
ATOM      4  H   UNL     1       1.538   5.351  18.680  0.00  0.00    +0.000 HD
ENDROOT
BRANCH   2   5
ATOM      5  C   UNL     1       2.878   3.377  19.355  0.00  0.00    +0.000 A 
ATOM      6  N   UNL     1       2.485   2.052  19.225  0.00  0.00    +0.000 NA
ATOM      7  C   UNL     1       3.357   1.563  18.373  0.00  0.00    +0.000 A 
ATOM      8  O   UNL     1       4.253   2.457  17.874  0.00  0.00    +0.000 OA
ATOM      9  C   UNL     1       3.930   3.637  18.494  0.00  0.00    +0.000 A 
BRANCH   9  10
ATOM     10  C   UNL     1       4.727   4.808  18.162  0.00  0.00    +0.000 A 
ATOM     11  C   UNL     1       6.010   4.984  18.700  0.00  0.00    +0.000 A 
ATOM     12  C   UNL     1       6.838   6.019  18.258  0.00  0.00    +0.000 A 
ATOM     13  C   UNL     1       6.389   6.902  17.281  0.00  0.00    +0.000 A 
ATOM     14  C   UNL     1       5.086   6.786  16.797  0.00  0.00    +0.000 A 
ATOM     15  C   UNL     1       4.260   5.745  17.236  0.00  0.00    +0.000 A 
BRANCH  13  16
ATOM     16  O   UNL     1       7.288   7.857  16.894  0.00  0.00    +0.000 OA
ATOM     17  C   UNL     1       7.992   8.488  17.958  0.00  0.00    +0.000 C 
ENDBRANCH  13  16
ENDBRANCH   9  10
ENDBRANCH   2   5
BRANCH   1  18
ATOM     18  C   UNL     1       1.059   6.418  20.488  0.00  0.00    +0.000 C 
BRANCH  18  22
ATOM     19  C   UNL     1       0.321   9.963  19.434  0.00  0.00    +0.000 C 
ATOM     20  C   UNL     1       0.821   8.858  18.492  0.00  0.00    +0.000 C 
ATOM     21  C   UNL     1       2.106   8.204  19.000  0.00  0.00    +0.000 C 
ATOM     22  C   UNL     1       1.969   7.646  20.427  0.00  0.00    +0.000 C 
ATOM     23  C   UNL     1       1.452   8.733  21.381  0.00  0.00    +0.000 C 
ATOM     24  C   UNL     1       0.185   9.432  20.871  0.00  0.00    +0.000 C 
BRANCH  19  27
ATOM     25  C   UNL     1       2.716  12.504  17.936  0.00  0.00    +0.000 C 
ATOM     26  N   UNL     1       1.770  11.439  18.132  0.00  0.00    +0.000 N 
ATOM     27  C   UNL     1       1.216  11.206  19.372  0.00  0.00    +0.000 C 
ATOM     28  O   UNL     1       1.426  11.940  20.331  0.00  0.00    +0.000 OA
ATOM     29  H   UNL     1       1.533  10.841  17.350  0.00  0.00    +0.000 HD
ENDBRANCH  19  27
ENDBRANCH  18  22
ENDBRANCH   1  18
TORSDOF 6
ENDMDL
MODEL 6
REMARK VINA RESULT:      -7.7      6.103      8.658
REMARK  Name = 
REMARK  8 active torsions:
REMARK  status: ('A' for Active; 'I' for Inactive)
REMARK    1  A    between atoms: C_1  and  N_2
REMARK    2  A    between atoms: C_3  and  C_5
REMARK    3  A    between atoms: C_8  and  C_9
REMARK    4  A    between atoms: C_9  and  N_10
REMARK    5  A    between atoms: C_11  and  C_13
REMARK    6  A    between atoms: C_17  and  C_18
REMARK    7  A    between atoms: C_21  and  O_22
REMARK    8  A    between atoms: O_22  and  C_23
REMARK                            x       y       z     vdW  Elec       q    Type
REMARK                         _______ _______ _______ _____ _____    ______ ____
ROOT
ATOM      1  N   UNL     1       8.054   8.229  17.797  0.00  0.00    +0.000 N 
ATOM      2  C   UNL     1       7.638   6.944  18.043  0.00  0.00    +0.000 C 
ATOM      3  O   UNL     1       7.857   6.376  19.113  0.00  0.00    +0.000 OA
ATOM      4  H   UNL     1       7.898   8.602  16.865  0.00  0.00    +0.000 HD
ENDROOT
BRANCH   2   5
ATOM      5  C   UNL     1       6.945   6.315  16.935  0.00  0.00    +0.000 A 
ATOM      6  N   UNL     1       7.556   5.909  15.756  0.00  0.00    +0.000 NA
ATOM      7  C   UNL     1       6.545   5.518  15.014  0.00  0.00    +0.000 A 
ATOM      8  O   UNL     1       5.325   5.566  15.615  0.00  0.00    +0.000 OA
ATOM      9  C   UNL     1       5.586   6.062  16.866  0.00  0.00    +0.000 A 
BRANCH   9  10
ATOM     10  C   UNL     1       4.457   6.233  17.768  0.00  0.00    +0.000 A 
ATOM     11  C   UNL     1       4.291   5.397  18.882  0.00  0.00    +0.000 A 
ATOM     12  C   UNL     1       3.304   5.661  19.836  0.00  0.00    +0.000 A 
ATOM     13  C   UNL     1       2.459   6.755  19.680  0.00  0.00    +0.000 A 
ATOM     14  C   UNL     1       2.562   7.545  18.535  0.00  0.00    +0.000 A 
ATOM     15  C   UNL     1       3.556   7.284  17.584  0.00  0.00    +0.000 A 
BRANCH  13  16
ATOM     16  O   UNL     1       1.551   6.944  20.685  0.00  0.00    +0.000 OA
ATOM     17  C   UNL     1       1.345   8.300  21.064  0.00  0.00    +0.000 C 
ENDBRANCH  13  16
ENDBRANCH   9  10
ENDBRANCH   2   5
BRANCH   1  18
ATOM     18  C   UNL     1       8.900   8.911  18.746  0.00  0.00    +0.000 C 
BRANCH  18  22
ATOM     19  C   UNL     1      11.095  11.964  19.026  0.00  0.00    +0.000 C 
ATOM     20  C   UNL     1      10.590  11.140  20.219  0.00  0.00    +0.000 C 
ATOM     21  C   UNL     1       9.068  10.989  20.213  0.00  0.00    +0.000 C 
ATOM     22  C   UNL     1       8.533  10.387  18.903  0.00  0.00    +0.000 C 
ATOM     23  C   UNL     1       9.042  11.189  17.697  0.00  0.00    +0.000 C 
ATOM     24  C   UNL     1      10.564  11.388  17.703  0.00  0.00    +0.000 C 
BRANCH  19  27
ATOM     25  C   UNL     1      10.420  15.548  17.958  0.00  0.00    +0.000 C 
ATOM     26  N   UNL     1      10.637  14.126  17.982  0.00  0.00    +0.000 N 
ATOM     27  C   UNL     1      10.746  13.450  19.178  0.00  0.00    +0.000 C 
ATOM     28  O   UNL     1      10.575  13.999  20.259  0.00  0.00    +0.000 OA
ATOM     29  H   UNL     1      10.734  13.628  17.106  0.00  0.00    +0.000 HD
ENDBRANCH  19  27
ENDBRANCH  18  22
ENDBRANCH   1  18
TORSDOF 6
ENDMDL
MODEL 7
REMARK VINA RESULT:      -7.6      2.008      2.602
REMARK  Name = 
REMARK  8 active torsions:
REMARK  status: ('A' for Active; 'I' for Inactive)
REMARK    1  A    between atoms: C_1  and  N_2
REMARK    2  A    between atoms: C_3  and  C_5
REMARK    3  A    between atoms: C_8  and  C_9
REMARK    4  A    between atoms: C_9  and  N_10
REMARK    5  A    between atoms: C_11  and  C_13
REMARK    6  A    between atoms: C_17  and  C_18
REMARK    7  A    between atoms: C_21  and  O_22
REMARK    8  A    between atoms: O_22  and  C_23
REMARK                            x       y       z     vdW  Elec       q    Type
REMARK                         _______ _______ _______ _____ _____    ______ ____
ROOT
ATOM      1  N   UNL     1       2.102   5.966  20.813  0.00  0.00    +0.000 N 
ATOM      2  C   UNL     1       2.435   5.393  19.611  0.00  0.00    +0.000 C 
ATOM      3  O   UNL     1       1.998   5.812  18.539  0.00  0.00    +0.000 OA
ATOM      4  H   UNL     1       2.446   5.519  21.658  0.00  0.00    +0.000 HD
ENDROOT
BRANCH   2   5
ATOM      5  C   UNL     1       3.319   4.248  19.716  0.00  0.00    +0.000 A 
ATOM      6  N   UNL     1       2.957   3.026  20.269  0.00  0.00    +0.000 NA
ATOM      7  C   UNL     1       4.084   2.351  20.265  0.00  0.00    +0.000 A 
ATOM      8  O   UNL     1       5.146   2.987  19.700  0.00  0.00    +0.000 OA
ATOM      9  C   UNL     1       4.645   4.208  19.325  0.00  0.00    +0.000 A 
BRANCH   9  10
ATOM     10  C   UNL     1       5.559   5.137  18.679  0.00  0.00    +0.000 A 
ATOM     11  C   UNL     1       5.148   5.907  17.581  0.00  0.00    +0.000 A 
ATOM     12  C   UNL     1       5.968   6.914  17.064  0.00  0.00    +0.000 A 
ATOM     13  C   UNL     1       7.217   7.153  17.627  0.00  0.00    +0.000 A 
ATOM     14  C   UNL     1       7.670   6.341  18.666  0.00  0.00    +0.000 A 
ATOM     15  C   UNL     1       6.845   5.338  19.188  0.00  0.00    +0.000 A 
BRANCH  13  16
ATOM     16  O   UNL     1       7.925   8.182  17.069  0.00  0.00    +0.000 OA
ATOM     17  C   UNL     1       8.243   9.247  17.958  0.00  0.00    +0.000 C 
ENDBRANCH  13  16
ENDBRANCH   9  10
ENDBRANCH   2   5
BRANCH   1  18
ATOM     18  C   UNL     1       1.101   7.003  20.869  0.00  0.00    +0.000 C 
BRANCH  18  22
ATOM     19  C   UNL     1      -0.550  10.390  20.704  0.00  0.00    +0.000 C 
ATOM     20  C   UNL     1      -0.084   9.586  19.482  0.00  0.00    +0.000 C 
ATOM     21  C   UNL     1       1.388   9.185  19.581  0.00  0.00    +0.000 C 
ATOM     22  C   UNL     1       1.710   8.406  20.868  0.00  0.00    +0.000 C 
ATOM     23  C   UNL     1       1.235   9.188  22.101  0.00  0.00    +0.000 C 
ATOM     24  C   UNL     1      -0.230   9.636  22.005  0.00  0.00    +0.000 C 
BRANCH  19  27
ATOM     25  C   UNL     1       0.171  13.899  21.970  0.00  0.00    +0.000 C 
ATOM     26  N   UNL     1      -0.223  12.521  21.855  0.00  0.00    +0.000 N 
ATOM     27  C   UNL     1       0.041  11.804  20.708  0.00  0.00    +0.000 C 
ATOM     28  O   UNL     1       0.696  12.269  19.782  0.00  0.00    +0.000 OA
ATOM     29  H   UNL     1      -0.723  12.086  22.621  0.00  0.00    +0.000 HD
ENDBRANCH  19  27
ENDBRANCH  18  22
ENDBRANCH   1  18
TORSDOF 6
ENDMDL
MODEL 8
REMARK VINA RESULT:      -7.5      2.966      8.825
REMARK  Name = 
REMARK  8 active torsions:
REMARK  status: ('A' for Active; 'I' for Inactive)
REMARK    1  A    between atoms: C_1  and  N_2
REMARK    2  A    between atoms: C_3  and  C_5
REMARK    3  A    between atoms: C_8  and  C_9
REMARK    4  A    between atoms: C_9  and  N_10
REMARK    5  A    between atoms: C_11  and  C_13
REMARK    6  A    between atoms: C_17  and  C_18
REMARK    7  A    between atoms: C_21  and  O_22
REMARK    8  A    between atoms: O_22  and  C_23
REMARK                            x       y       z     vdW  Elec       q    Type
REMARK                         _______ _______ _______ _____ _____    ______ ____
ROOT
ATOM      1  N   UNL     1       1.370   8.266  20.686  0.00  0.00    +0.000 N 
ATOM      2  C   UNL     1       0.324   9.072  21.064  0.00  0.00    +0.000 C 
ATOM      3  O   UNL     1      -0.697   8.622  21.583  0.00  0.00    +0.000 OA
ATOM      4  H   UNL     1       2.147   8.704  20.199  0.00  0.00    +0.000 HD
ENDROOT
BRANCH   2   5
ATOM      5  C   UNL     1       0.518  10.481  20.778  0.00  0.00    +0.000 A 
ATOM      6  N   UNL     1       1.427  11.297  21.438  0.00  0.00    +0.000 NA
ATOM      7  C   UNL     1       1.172  12.488  20.945  0.00  0.00    +0.000 A 
ATOM      8  O   UNL     1       0.222  12.527  19.970  0.00  0.00    +0.000 OA
ATOM      9  C   UNL     1      -0.186  11.224  19.847  0.00  0.00    +0.000 A 
BRANCH   9  10
ATOM     10  C   UNL     1      -1.218  10.936  18.863  0.00  0.00    +0.000 A 
ATOM     11  C   UNL     1      -2.433  11.636  18.866  0.00  0.00    +0.000 A 
ATOM     12  C   UNL     1      -3.356  11.478  17.828  0.00  0.00    +0.000 A 
ATOM     13  C   UNL     1      -3.082  10.605  16.781  0.00  0.00    +0.000 A 
ATOM     14  C   UNL     1      -1.914   9.843  16.808  0.00  0.00    +0.000 A 
ATOM     15  C   UNL     1      -0.988  10.008  17.844  0.00  0.00    +0.000 A 
BRANCH  13  16
ATOM     16  O   UNL     1      -4.034  10.548  15.800  0.00  0.00    +0.000 OA
ATOM     17  C   UNL     1      -3.554  10.166  14.515  0.00  0.00    +0.000 C 
ENDBRANCH  13  16
ENDBRANCH   9  10
ENDBRANCH   2   5
BRANCH   1  18
ATOM     18  C   UNL     1       1.241   6.831  20.756  0.00  0.00    +0.000 C 
BRANCH  18  22
ATOM     19  C   UNL     1       2.078   4.529  17.890  0.00  0.00    +0.000 C 
ATOM     20  C   UNL     1       1.536   4.067  19.250  0.00  0.00    +0.000 C 
ATOM     21  C   UNL     1       2.385   4.579  20.414  0.00  0.00    +0.000 C 
ATOM     22  C   UNL     1       2.544   6.108  20.410  0.00  0.00    +0.000 C 
ATOM     23  C   UNL     1       3.069   6.590  19.050  0.00  0.00    +0.000 C 
ATOM     24  C   UNL     1       2.255   6.056  17.864  0.00  0.00    +0.000 C 
BRANCH  19  27
ATOM     25  C   UNL     1       5.440   3.958  16.214  0.00  0.00    +0.000 C 
ATOM     26  N   UNL     1       4.230   4.538  16.731  0.00  0.00    +0.000 N 
ATOM     27  C   UNL     1       3.376   3.800  17.523  0.00  0.00    +0.000 C 
ATOM     28  O   UNL     1       3.646   2.665  17.896  0.00  0.00    +0.000 OA
ATOM     29  H   UNL     1       3.997   5.492  16.485  0.00  0.00    +0.000 HD
ENDBRANCH  19  27
ENDBRANCH  18  22
ENDBRANCH   1  18
TORSDOF 6
ENDMDL
MODEL 9
REMARK VINA RESULT:      -7.5      1.098      1.476
REMARK  Name = 
REMARK  8 active torsions:
REMARK  status: ('A' for Active; 'I' for Inactive)
REMARK    1  A    between atoms: C_1  and  N_2
REMARK    2  A    between atoms: C_3  and  C_5
REMARK    3  A    between atoms: C_8  and  C_9
REMARK    4  A    between atoms: C_9  and  N_10
REMARK    5  A    between atoms: C_11  and  C_13
REMARK    6  A    between atoms: C_17  and  C_18
REMARK    7  A    between atoms: C_21  and  O_22
REMARK    8  A    between atoms: O_22  and  C_23
REMARK                            x       y       z     vdW  Elec       q    Type
REMARK                         _______ _______ _______ _____ _____    ______ ____
ROOT
ATOM      1  N   UNL     1       1.746   7.729  21.272  0.00  0.00    +0.000 N 
ATOM      2  C   UNL     1       2.139   7.128  20.102  0.00  0.00    +0.000 C 
ATOM      3  O   UNL     1       2.273   7.756  19.052  0.00  0.00    +0.000 OA
ATOM      4  H   UNL     1       1.588   7.131  22.077  0.00  0.00    +0.000 HD
ENDROOT
BRANCH   2   5
ATOM      5  C   UNL     1       2.357   5.697  20.206  0.00  0.00    +0.000 A 
ATOM      6  N   UNL     1       1.625   4.850  21.029  0.00  0.00    +0.000 NA
ATOM      7  C   UNL     1       2.240   3.697  20.892  0.00  0.00    +0.000 A 
ATOM      8  O   UNL     1       3.272   3.685  20.005  0.00  0.00    +0.000 OA
ATOM      9  C   UNL     1       3.334   4.975  19.545  0.00  0.00    +0.000 A 
BRANCH   9  10
ATOM     10  C   UNL     1       4.360   5.286  18.561  0.00  0.00    +0.000 A 
ATOM     11  C   UNL     1       5.714   5.337  18.923  0.00  0.00    +0.000 A 
ATOM     12  C   UNL     1       6.711   5.473  17.954  0.00  0.00    +0.000 A 
ATOM     13  C   UNL     1       6.367   5.577  16.610  0.00  0.00    +0.000 A 
ATOM     14  C   UNL     1       5.021   5.608  16.246  0.00  0.00    +0.000 A 
ATOM     15  C   UNL     1       4.024   5.465  17.217  0.00  0.00    +0.000 A 
BRANCH  13  16
ATOM     16  O   UNL     1       7.419   5.672  15.740  0.00  0.00    +0.000 OA
ATOM     17  C   UNL     1       7.253   4.967  14.515  0.00  0.00    +0.000 C 
ENDBRANCH  13  16
ENDBRANCH   9  10
ENDBRANCH   2   5
BRANCH   1  18
ATOM     18  C   UNL     1       1.332   9.111  21.273  0.00  0.00    +0.000 C 
BRANCH  18  22
ATOM     19  C   UNL     1      -0.793  12.214  21.004  0.00  0.00    +0.000 C 
ATOM     20  C   UNL     1      -0.411  11.530  22.325  0.00  0.00    +0.000 C 
ATOM     21  C   UNL     1      -0.786  10.048  22.337  0.00  0.00    +0.000 C 
ATOM     22  C   UNL     1      -0.184   9.269  21.155  0.00  0.00    +0.000 C 
ATOM     23  C   UNL     1      -0.543   9.949  19.826  0.00  0.00    +0.000 C 
ATOM     24  C   UNL     1      -0.211  11.448  19.805  0.00  0.00    +0.000 C 
BRANCH  19  27
ATOM     25  C   UNL     1      -4.376  12.777  22.140  0.00  0.00    +0.000 C 
ATOM     26  N   UNL     1      -2.942  12.684  22.070  0.00  0.00    +0.000 N 
ATOM     27  C   UNL     1      -2.311  12.393  20.880  0.00  0.00    +0.000 C 
ATOM     28  O   UNL     1      -2.922  12.292  19.823  0.00  0.00    +0.000 OA
ATOM     29  H   UNL     1      -2.399  12.811  22.915  0.00  0.00    +0.000 HD
ENDBRANCH  19  27
ENDBRANCH  18  22
ENDBRANCH   1  18
TORSDOF 6
ENDMDL
