MODEL 1
REMARK VINA RESULT:      -8.4      0.000      0.000
REMARK  Name = 
REMARK  7 active torsions:
REMARK  status: ('A' for Active; 'I' for Inactive)
REMARK    1  A    between atoms: C_1  and  C_2
REMARK    2  A    between atoms: C_2  and  C_3
REMARK    3  A    between atoms: C_2  and  C_4
REMARK    4  A    between atoms: C_4  and  C_5
REMARK    5  A    between atoms: C_7  and  C_8
REMARK    6  A    between atoms: C_8  and  N_9
REMARK    7  A    between atoms: N_16  and  C_17
REMARK                            x       y       z     vdW  Elec       q    Type
REMARK                         _______ _______ _______ _____ _____    ______ ____
ROOT
ATOM      1  N   UNL     1       4.884   5.223  17.137  0.00  0.00    +0.000 NA
ATOM      2  C   UNL     1       5.256   6.570  17.667  0.00  0.00    +0.000 C 
ATOM      3  C   UNL     1       4.434   6.685  18.971  0.00  0.00    +0.000 C 
ATOM      4  C   UNL     1       4.544   5.260  19.489  0.00  0.00    +0.000 C 
ATOM      5  C   UNL     1       3.982   4.680  18.195  0.00  0.00    +0.000 C 
ATOM      6  C   UNL     1       2.658   5.485  18.130  0.00  0.00    +0.000 C 
ATOM      7  O   UNL     1       1.589   5.070  17.721  0.00  0.00    +0.000 OA
ATOM      8  N   UNL     1       3.012   6.755  18.665  0.00  0.00    +0.000 N 
ENDROOT
BRANCH   8   9
ATOM      9  C   UNL     1       2.153   7.823  19.010  0.00  0.00    +0.000 A 
ATOM     10  C   UNL     1       1.713   8.738  18.045  0.00  0.00    +0.000 A 
ATOM     11  C   UNL     1       0.786   9.738  18.360  0.00  0.00    +0.000 A 
ATOM     12  C   UNL     1       0.294   9.851  19.660  0.00  0.00    +0.000 A 
ATOM     13  C   UNL     1       0.756   8.976  20.634  0.00  0.00    +0.000 A 
ATOM     14 CL   UNL     1       0.171   9.117  22.249  0.00  0.00    +0.000 Cl
ATOM     15  C   UNL     1       1.678   7.971  20.321  0.00  0.00    +0.000 A 
ENDBRANCH   8   9
BRANCH   1  16
ATOM     16  C   UNL     1       6.047   4.342  16.901  0.00  0.00    +0.000 C 
BRANCH  16  19
ATOM     17  C   UNL     1       6.710   4.100  13.432  0.00  0.00    +0.000 A 
ATOM     18  N   UNL     1       6.139   3.582  14.495  0.00  0.00    +0.000 NA
ATOM     19  C   UNL     1       6.542   4.440  15.489  0.00  0.00    +0.000 A 
ATOM     20  N   UNL     1       7.403   5.391  15.090  0.00  0.00    +0.000 NA
ATOM     21  O   UNL     1       7.506   5.172  13.714  0.00  0.00    +0.000 OA
BRANCH  17  22
ATOM     22  C   UNL     1       6.595   3.702  12.006  0.00  0.00    +0.000 C 
BRANCH  22  24
ATOM     23  C   UNL     1       4.342   3.024  11.103  0.00  0.00    +0.000 C 
ATOM     24  C   UNL     1       5.615   2.529  11.792  0.00  0.00    +0.000 C 
ATOM     25  C   UNL     1       6.234   1.389  10.973  0.00  0.00    +0.000 C 
ENDBRANCH  22  24
ENDBRANCH  17  22
ENDBRANCH  16  19
ENDBRANCH   1  16
TORSDOF 5
ENDMDL
MODEL 2
REMARK VINA RESULT:      -8.3      0.990      1.384
REMARK  Name = 
REMARK  7 active torsions:
REMARK  status: ('A' for Active; 'I' for Inactive)
REMARK    1  A    between atoms: C_1  and  C_2
REMARK    2  A    between atoms: C_2  and  C_3
REMARK    3  A    between atoms: C_2  and  C_4
REMARK    4  A    between atoms: C_4  and  C_5
REMARK    5  A    between atoms: C_7  and  C_8
REMARK    6  A    between atoms: C_8  and  N_9
REMARK    7  A    between atoms: N_16  and  C_17
REMARK                            x       y       z     vdW  Elec       q    Type
REMARK                         _______ _______ _______ _____ _____    ______ ____
ROOT
ATOM      1  N   UNL     1       5.059   5.093  17.276  0.00  0.00    +0.000 NA
ATOM      2  C   UNL     1       5.385   6.287  18.113  0.00  0.00    +0.000 C 
ATOM      3  C   UNL     1       4.476   6.119  19.353  0.00  0.00    +0.000 C 
ATOM      4  C   UNL     1       4.558   4.613  19.549  0.00  0.00    +0.000 C 
ATOM      5  C   UNL     1       4.090   4.339  18.123  0.00  0.00    +0.000 C 
ATOM      6  C   UNL     1       2.768   5.151  18.148  0.00  0.00    +0.000 C 
ATOM      7  O   UNL     1       1.732   4.846  17.586  0.00  0.00    +0.000 OA
ATOM      8  N   UNL     1       3.078   6.267  18.973  0.00  0.00    +0.000 N 
ENDROOT
BRANCH   8   9
ATOM      9  C   UNL     1       2.191   7.241  19.486  0.00  0.00    +0.000 A 
ATOM     10  C   UNL     1       1.565   7.067  20.728  0.00  0.00    +0.000 A 
ATOM     11  C   UNL     1       0.765   8.071  21.286  0.00  0.00    +0.000 A 
ATOM     12  C   UNL     1       0.561   9.267  20.597  0.00  0.00    +0.000 A 
ATOM     13  C   UNL     1       1.142   9.432  19.346  0.00  0.00    +0.000 A 
ATOM     14 CL   UNL     1       0.882  10.897  18.477  0.00  0.00    +0.000 Cl
ATOM     15  C   UNL     1       1.948   8.433  18.789  0.00  0.00    +0.000 A 
ENDBRANCH   8   9
BRANCH   1  16
ATOM     16  C   UNL     1       6.239   4.275  16.929  0.00  0.00    +0.000 C 
BRANCH  16  19
ATOM     17  C   UNL     1       6.655   4.161  13.416  0.00  0.00    +0.000 A 
ATOM     18  N   UNL     1       6.185   3.589  14.501  0.00  0.00    +0.000 NA
ATOM     19  C   UNL     1       6.625   4.434  15.489  0.00  0.00    +0.000 A 
ATOM     20  N   UNL     1       7.415   5.432  15.059  0.00  0.00    +0.000 NA
ATOM     21  O   UNL     1       7.426   5.257  13.674  0.00  0.00    +0.000 OA
BRANCH  17  22
ATOM     22  C   UNL     1       6.451   3.799  11.990  0.00  0.00    +0.000 C 
BRANCH  22  24
ATOM     23  C   UNL     1       4.218   3.101  11.054  0.00  0.00    +0.000 C 
ATOM     24  C   UNL     1       5.463   2.628  11.808  0.00  0.00    +0.000 C 
ATOM     25  C   UNL     1       6.091   1.440  11.069  0.00  0.00    +0.000 C 
ENDBRANCH  22  24
ENDBRANCH  17  22
ENDBRANCH  16  19
ENDBRANCH   1  16
TORSDOF 5
ENDMDL
MODEL 3
REMARK VINA RESULT:      -8.1      1.472      1.960
REMARK  Name = 
REMARK  7 active torsions:
REMARK  status: ('A' for Active; 'I' for Inactive)
REMARK    1  A    between atoms: C_1  and  C_2
REMARK    2  A    between atoms: C_2  and  C_3
REMARK    3  A    between atoms: C_2  and  C_4
REMARK    4  A    between atoms: C_4  and  C_5
REMARK    5  A    between atoms: C_7  and  C_8
REMARK    6  A    between atoms: C_8  and  N_9
REMARK    7  A    between atoms: N_16  and  C_17
REMARK                            x       y       z     vdW  Elec       q    Type
REMARK                         _______ _______ _______ _____ _____    ______ ____
ROOT
ATOM      1  N   UNL     1       4.839   5.501  18.210  0.00  0.00    +0.000 NA
ATOM      2  C   UNL     1       4.199   5.333  19.550  0.00  0.00    +0.000 C 
ATOM      3  C   UNL     1       2.715   5.678  19.288  0.00  0.00    +0.000 C 
ATOM      4  C   UNL     1       2.525   5.043  17.920  0.00  0.00    +0.000 C 
ATOM      5  C   UNL     1       3.686   5.833  17.323  0.00  0.00    +0.000 C 
ATOM      6  C   UNL     1       3.214   7.264  17.694  0.00  0.00    +0.000 C 
ATOM      7  O   UNL     1       3.366   8.264  17.017  0.00  0.00    +0.000 OA
ATOM      8  N   UNL     1       2.579   7.089  18.954  0.00  0.00    +0.000 N 
ENDROOT
BRANCH   8   9
ATOM      9  C   UNL     1       1.808   8.028  19.677  0.00  0.00    +0.000 A 
ATOM     10  C   UNL     1       1.546   7.853  21.042  0.00  0.00    +0.000 A 
ATOM     11  C   UNL     1       0.868   8.827  21.784  0.00  0.00    +0.000 A 
ATOM     12  C   UNL     1       0.421   9.993  21.163  0.00  0.00    +0.000 A 
ATOM     13  C   UNL     1       0.637  10.157  19.801  0.00  0.00    +0.000 A 
ATOM     14 CL   UNL     1       0.073  11.585  19.018  0.00  0.00    +0.000 Cl
ATOM     15  C   UNL     1       1.320   9.189  19.058  0.00  0.00    +0.000 A 
ENDBRANCH   8   9
BRANCH   1  16
ATOM     16  C   UNL     1       5.561   4.298  17.747  0.00  0.00    +0.000 C 
BRANCH  16  19
ATOM     17  C   UNL     1       6.629   4.500  14.378  0.00  0.00    +0.000 A 
ATOM     18  N   UNL     1       5.848   3.930  15.266  0.00  0.00    +0.000 NA
ATOM     19  C   UNL     1       6.248   4.531  16.434  0.00  0.00    +0.000 A 
ATOM     20  N   UNL     1       7.294   5.363  16.304  0.00  0.00    +0.000 NA
ATOM     21  O   UNL     1       7.541   5.353  14.929  0.00  0.00    +0.000 OA
BRANCH  17  22
ATOM     22  C   UNL     1       6.641   4.362  12.899  0.00  0.00    +0.000 C 
BRANCH  22  24
ATOM     23  C   UNL     1       4.625   3.405  11.729  0.00  0.00    +0.000 C 
ATOM     24  C   UNL     1       5.951   3.070  12.416  0.00  0.00    +0.000 C 
ATOM     25  C   UNL     1       6.833   2.256  11.461  0.00  0.00    +0.000 C 
ENDBRANCH  22  24
ENDBRANCH  17  22
ENDBRANCH  16  19
ENDBRANCH   1  16
TORSDOF 5
ENDMDL
MODEL 4
REMARK VINA RESULT:      -7.9      1.354      1.697
REMARK  Name = 
REMARK  7 active torsions:
REMARK  status: ('A' for Active; 'I' for Inactive)
REMARK    1  A    between atoms: C_1  and  C_2
REMARK    2  A    between atoms: C_2  and  C_3
REMARK    3  A    between atoms: C_2  and  C_4
REMARK    4  A    between atoms: C_4  and  C_5
REMARK    5  A    between atoms: C_7  and  C_8
REMARK    6  A    between atoms: C_8  and  N_9
REMARK    7  A    between atoms: N_16  and  C_17
REMARK                            x       y       z     vdW  Elec       q    Type
REMARK                         _______ _______ _______ _____ _____    ______ ____
ROOT
ATOM      1  N   UNL     1       4.610   5.526  18.422  0.00  0.00    +0.000 NA
ATOM      2  C   UNL     1       3.881   5.483  19.727  0.00  0.00    +0.000 C 
ATOM      3  C   UNL     1       2.444   5.913  19.352  0.00  0.00    +0.000 C 
ATOM      4  C   UNL     1       2.289   5.211  18.013  0.00  0.00    +0.000 C 
ATOM      5  C   UNL     1       3.538   5.882  17.447  0.00  0.00    +0.000 C 
ATOM      6  C   UNL     1       3.150   7.362  17.707  0.00  0.00    +0.000 C 
ATOM      7  O   UNL     1       3.414   8.306  16.986  0.00  0.00    +0.000 OA
ATOM      8  N   UNL     1       2.430   7.308  18.932  0.00  0.00    +0.000 N 
ENDROOT
BRANCH   8   9
ATOM      9  C   UNL     1       1.688   8.339  19.551  0.00  0.00    +0.000 A 
ATOM     10  C   UNL     1       1.137   9.385  18.799  0.00  0.00    +0.000 A 
ATOM     11  C   UNL     1       0.320  10.355  19.391  0.00  0.00    +0.000 A 
ATOM     12  C   UNL     1       0.054  10.304  20.760  0.00  0.00    +0.000 A 
ATOM     13  C   UNL     1       0.630   9.296  21.522  0.00  0.00    +0.000 A 
ATOM     14 CL   UNL     1       0.325   9.233  23.217  0.00  0.00    +0.000 Cl
ATOM     15  C   UNL     1       1.442   8.322  20.931  0.00  0.00    +0.000 A 
ENDBRANCH   8   9
BRANCH   1  16
ATOM     16  C   UNL     1       5.269   4.250  18.073  0.00  0.00    +0.000 C 
BRANCH  16  19
ATOM     17  C   UNL     1       6.603   4.440  14.800  0.00  0.00    +0.000 A 
ATOM     18  N   UNL     1       5.606   4.086  15.577  0.00  0.00    +0.000 NA
ATOM     19  C   UNL     1       6.095   4.371  16.828  0.00  0.00    +0.000 A 
ATOM     20  N   UNL     1       7.371   4.789  16.846  0.00  0.00    +0.000 NA
ATOM     21  O   UNL     1       7.708   4.847  15.491  0.00  0.00    +0.000 OA
BRANCH  17  22
ATOM     22  C   UNL     1       6.684   4.475  13.318  0.00  0.00    +0.000 C 
BRANCH  22  24
ATOM     23  C   UNL     1       4.726   3.527  12.046  0.00  0.00    +0.000 C 
ATOM     24  C   UNL     1       6.093   3.212  12.659  0.00  0.00    +0.000 C 
ATOM     25  C   UNL     1       7.015   2.624  11.584  0.00  0.00    +0.000 C 
ENDBRANCH  22  24
ENDBRANCH  17  22
ENDBRANCH  16  19
ENDBRANCH   1  16
TORSDOF 5
ENDMDL
MODEL 5
REMARK VINA RESULT:      -7.5      4.512      6.987
REMARK  Name = 
REMARK  7 active torsions:
REMARK  status: ('A' for Active; 'I' for Inactive)
REMARK    1  A    between atoms: C_1  and  C_2
REMARK    2  A    between atoms: C_2  and  C_3
REMARK    3  A    between atoms: C_2  and  C_4
REMARK    4  A    between atoms: C_4  and  C_5
REMARK    5  A    between atoms: C_7  and  C_8
REMARK    6  A    between atoms: C_8  and  N_9
REMARK    7  A    between atoms: N_16  and  C_17
REMARK                            x       y       z     vdW  Elec       q    Type
REMARK                         _______ _______ _______ _____ _____    ______ ____
ROOT
ATOM      1  N   UNL     1       6.402   6.662  17.925  0.00  0.00    +0.000 NA
ATOM      2  C   UNL     1       6.403   5.223  18.331  0.00  0.00    +0.000 C 
ATOM      3  C   UNL     1       5.223   4.621  17.534  0.00  0.00    +0.000 C 
ATOM      4  C   UNL     1       5.376   5.365  16.217  0.00  0.00    +0.000 C 
ATOM      5  C   UNL     1       5.314   6.725  16.907  0.00  0.00    +0.000 C 
ATOM      6  C   UNL     1       3.968   6.548  17.657  0.00  0.00    +0.000 C 
ATOM      7  O   UNL     1       3.139   7.418  17.853  0.00  0.00    +0.000 OA
ATOM      8  N   UNL     1       3.962   5.171  18.012  0.00  0.00    +0.000 N 
ENDROOT
BRANCH   8   9
ATOM      9  C   UNL     1       2.896   4.417  18.554  0.00  0.00    +0.000 A 
ATOM     10  C   UNL     1       1.808   4.029  17.762  0.00  0.00    +0.000 A 
ATOM     11  C   UNL     1       0.799   3.201  18.267  0.00  0.00    +0.000 A 
ATOM     12  C   UNL     1       0.854   2.758  19.589  0.00  0.00    +0.000 A 
ATOM     13  C   UNL     1       1.906   3.172  20.395  0.00  0.00    +0.000 A 
ATOM     14 CL   UNL     1       1.975   2.649  22.035  0.00  0.00    +0.000 Cl
ATOM     15  C   UNL     1       2.919   3.995  19.891  0.00  0.00    +0.000 A 
ENDBRANCH   8   9
BRANCH   1  16
ATOM     16  C   UNL     1       7.696   7.120  17.377  0.00  0.00    +0.000 C 
BRANCH  16  19
ATOM     17  C   UNL     1       9.024   9.955  19.030  0.00  0.00    +0.000 A 
ATOM     18  N   UNL     1       8.849   8.653  19.018  0.00  0.00    +0.000 NA
ATOM     19  C   UNL     1       8.074   8.474  17.899  0.00  0.00    +0.000 A 
ATOM     20  N   UNL     1       7.696   9.612  17.294  0.00  0.00    +0.000 NA
ATOM     21  O   UNL     1       8.340  10.601  18.041  0.00  0.00    +0.000 OA
BRANCH  17  22
ATOM     22  C   UNL     1       9.854  10.790  19.934  0.00  0.00    +0.000 C 
BRANCH  22  24
ATOM     23  C   UNL     1      10.357  13.248  19.690  0.00  0.00    +0.000 C 
ATOM     24  C   UNL     1      10.685  11.845  19.174  0.00  0.00    +0.000 C 
ATOM     25  C   UNL     1      12.194  11.596  19.286  0.00  0.00    +0.000 C 
ENDBRANCH  22  24
ENDBRANCH  17  22
ENDBRANCH  16  19
ENDBRANCH   1  16
TORSDOF 5
ENDMDL
MODEL 6
REMARK VINA RESULT:      -7.5      3.246      8.474
REMARK  Name = 
REMARK  7 active torsions:
REMARK  status: ('A' for Active; 'I' for Inactive)
REMARK    1  A    between atoms: C_1  and  C_2
REMARK    2  A    between atoms: C_2  and  C_3
REMARK    3  A    between atoms: C_2  and  C_4
REMARK    4  A    between atoms: C_4  and  C_5
REMARK    5  A    between atoms: C_7  and  C_8
REMARK    6  A    between atoms: C_8  and  N_9
REMARK    7  A    between atoms: N_16  and  C_17
REMARK                            x       y       z     vdW  Elec       q    Type
REMARK                         _______ _______ _______ _____ _____    ______ ____
ROOT
ATOM      1  N   UNL     1       3.855   5.886  17.996  0.00  0.00    +0.000 NA
ATOM      2  C   UNL     1       3.551   4.692  17.151  0.00  0.00    +0.000 C 
ATOM      3  C   UNL     1       4.949   4.129  16.804  0.00  0.00    +0.000 C 
ATOM      4  C   UNL     1       5.669   4.355  18.124  0.00  0.00    +0.000 C 
ATOM      5  C   UNL     1       5.342   5.846  18.118  0.00  0.00    +0.000 C 
ATOM      6  C   UNL     1       5.929   6.212  16.729  0.00  0.00    +0.000 C 
ATOM      7  O   UNL     1       6.490   7.254  16.443  0.00  0.00    +0.000 OA
ATOM      8  N   UNL     1       5.665   5.058  15.940  0.00  0.00    +0.000 N 
ENDROOT
BRANCH   8   9
ATOM      9  C   UNL     1       6.139   4.766  14.642  0.00  0.00    +0.000 A 
ATOM     10  C   UNL     1       7.338   5.316  14.168  0.00  0.00    +0.000 A 
ATOM     11  C   UNL     1       7.863   4.953  12.923  0.00  0.00    +0.000 A 
ATOM     12  C   UNL     1       7.183   4.041  12.116  0.00  0.00    +0.000 A 
ATOM     13  C   UNL     1       5.972   3.523  12.557  0.00  0.00    +0.000 A 
ATOM     14 CL   UNL     1       5.112   2.409  11.562  0.00  0.00    +0.000 Cl
ATOM     15  C   UNL     1       5.448   3.878  13.804  0.00  0.00    +0.000 A 
ENDBRANCH   8   9
BRANCH   1  16
ATOM     16  C   UNL     1       3.194   5.857  19.317  0.00  0.00    +0.000 C 
BRANCH  16  19
ATOM     17  C   UNL     1       1.419   8.918  19.230  0.00  0.00    +0.000 A 
ATOM     18  N   UNL     1       2.272   8.109  18.646  0.00  0.00    +0.000 NA
ATOM     19  C   UNL     1       2.402   7.104  19.572  0.00  0.00    +0.000 A 
ATOM     20  N   UNL     1       1.743   7.318  20.723  0.00  0.00    +0.000 NA
ATOM     21  O   UNL     1       1.076   8.523  20.491  0.00  0.00    +0.000 OA
BRANCH  17  22
ATOM     22  C   UNL     1       0.782  10.156  18.714  0.00  0.00    +0.000 C 
BRANCH  22  24
ATOM     23  C   UNL     1      -1.181  11.403  19.686  0.00  0.00    +0.000 C 
ATOM     24  C   UNL     1      -0.749  10.161  18.902  0.00  0.00    +0.000 C 
ATOM     25  C   UNL     1      -1.505  10.106  17.568  0.00  0.00    +0.000 C 
ENDBRANCH  22  24
ENDBRANCH  17  22
ENDBRANCH  16  19
ENDBRANCH   1  16
TORSDOF 5
ENDMDL
MODEL 7
REMARK VINA RESULT:      -7.3      4.429      7.061
REMARK  Name = 
REMARK  7 active torsions:
REMARK  status: ('A' for Active; 'I' for Inactive)
REMARK    1  A    between atoms: C_1  and  C_2
REMARK    2  A    between atoms: C_2  and  C_3
REMARK    3  A    between atoms: C_2  and  C_4
REMARK    4  A    between atoms: C_4  and  C_5
REMARK    5  A    between atoms: C_7  and  C_8
REMARK    6  A    between atoms: C_8  and  N_9
REMARK    7  A    between atoms: N_16  and  C_17
REMARK                            x       y       z     vdW  Elec       q    Type
REMARK                         _______ _______ _______ _____ _____    ______ ____
ROOT
ATOM      1  N   UNL     1       6.151   6.894  17.592  0.00  0.00    +0.000 NA
ATOM      2  C   UNL     1       6.268   5.450  17.960  0.00  0.00    +0.000 C 
ATOM      3  C   UNL     1       5.042   4.802  17.275  0.00  0.00    +0.000 C 
ATOM      4  C   UNL     1       5.018   5.579  15.969  0.00  0.00    +0.000 C 
ATOM      5  C   UNL     1       4.960   6.920  16.695  0.00  0.00    +0.000 C 
ATOM      6  C   UNL     1       3.711   6.657  17.578  0.00  0.00    +0.000 C 
ATOM      7  O   UNL     1       2.865   7.478  17.881  0.00  0.00    +0.000 OA
ATOM      8  N   UNL     1       3.813   5.274  17.896  0.00  0.00    +0.000 N 
ENDROOT
BRANCH   8   9
ATOM      9  C   UNL     1       2.850   4.455  18.528  0.00  0.00    +0.000 A 
ATOM     10  C   UNL     1       1.844   3.818  17.788  0.00  0.00    +0.000 A 
ATOM     11  C   UNL     1       0.949   2.929  18.393  0.00  0.00    +0.000 A 
ATOM     12  C   UNL     1       1.035   2.672  19.762  0.00  0.00    +0.000 A 
ATOM     13  C   UNL     1       2.001   3.331  20.512  0.00  0.00    +0.000 A 
ATOM     14 CL   UNL     1       2.105   3.038  22.207  0.00  0.00    +0.000 Cl
ATOM     15  C   UNL     1       2.901   4.216  19.909  0.00  0.00    +0.000 A 
ENDBRANCH   8   9
BRANCH   1  16
ATOM     16  C   UNL     1       7.355   7.431  16.924  0.00  0.00    +0.000 C 
BRANCH  16  19
ATOM     17  C   UNL     1       8.900  10.133  18.610  0.00  0.00    +0.000 A 
ATOM     18  N   UNL     1       8.299   9.692  17.529  0.00  0.00    +0.000 NA
ATOM     19  C   UNL     1       8.119   8.362  17.816  0.00  0.00    +0.000 A 
ATOM     20  N   UNL     1       8.668   7.963  18.976  0.00  0.00    +0.000 NA
ATOM     21  O   UNL     1       9.178   9.147  19.513  0.00  0.00    +0.000 OA
BRANCH  17  22
ATOM     22  C   UNL     1       9.287  11.517  18.982  0.00  0.00    +0.000 C 
BRANCH  22  24
ATOM     23  C   UNL     1      11.564  12.004  19.947  0.00  0.00    +0.000 C 
ATOM     24  C   UNL     1      10.131  11.574  20.272  0.00  0.00    +0.000 C 
ATOM     25  C   UNL     1       9.536  12.521  21.322  0.00  0.00    +0.000 C 
ENDBRANCH  22  24
ENDBRANCH  17  22
ENDBRANCH  16  19
ENDBRANCH   1  16
TORSDOF 5
ENDMDL
MODEL 8
REMARK VINA RESULT:      -7.2      4.376      6.757
REMARK  Name = 
REMARK  7 active torsions:
REMARK  status: ('A' for Active; 'I' for Inactive)
REMARK    1  A    between atoms: C_1  and  C_2
REMARK    2  A    between atoms: C_2  and  C_3
REMARK    3  A    between atoms: C_2  and  C_4
REMARK    4  A    between atoms: C_4  and  C_5
REMARK    5  A    between atoms: C_7  and  C_8
REMARK    6  A    between atoms: C_8  and  N_9
REMARK    7  A    between atoms: N_16  and  C_17
REMARK                            x       y       z     vdW  Elec       q    Type
REMARK                         _______ _______ _______ _____ _____    ______ ____
ROOT
ATOM      1  N   UNL     1       6.248   6.888  17.606  0.00  0.00    +0.000 NA
ATOM      2  C   UNL     1       6.339   5.426  17.902  0.00  0.00    +0.000 C 
ATOM      3  C   UNL     1       5.088   4.838  17.209  0.00  0.00    +0.000 C 
ATOM      4  C   UNL     1       5.059   5.678  15.942  0.00  0.00    +0.000 C 
ATOM      5  C   UNL     1       5.043   6.983  16.732  0.00  0.00    +0.000 C 
ATOM      6  C   UNL     1       3.803   6.704  17.623  0.00  0.00    +0.000 C 
ATOM      7  O   UNL     1       2.981   7.528  17.980  0.00  0.00    +0.000 OA
ATOM      8  N   UNL     1       3.880   5.306  17.873  0.00  0.00    +0.000 N 
ENDROOT
BRANCH   8   9
ATOM      9  C   UNL     1       2.910   4.478  18.481  0.00  0.00    +0.000 A 
ATOM     10  C   UNL     1       1.925   3.836  17.719  0.00  0.00    +0.000 A 
ATOM     11  C   UNL     1       1.024   2.938  18.302  0.00  0.00    +0.000 A 
ATOM     12  C   UNL     1       1.081   2.679  19.671  0.00  0.00    +0.000 A 
ATOM     13  C   UNL     1       2.025   3.343  20.444  0.00  0.00    +0.000 A 
ATOM     14 CL   UNL     1       2.094   3.047  22.140  0.00  0.00    +0.000 Cl
ATOM     15  C   UNL     1       2.931   4.236  19.863  0.00  0.00    +0.000 A 
ENDBRANCH   8   9
BRANCH   1  16
ATOM     16  C   UNL     1       7.452   7.431  16.944  0.00  0.00    +0.000 C 
BRANCH  16  19
ATOM     17  C   UNL     1       8.890  10.255  18.522  0.00  0.00    +0.000 A 
ATOM     18  N   UNL     1       8.349   9.737  17.443  0.00  0.00    +0.000 NA
ATOM     19  C   UNL     1       8.164   8.428  17.809  0.00  0.00    +0.000 A 
ATOM     20  N   UNL     1       8.655   8.112  19.019  0.00  0.00    +0.000 NA
ATOM     21  O   UNL     1       9.129   9.334  19.501  0.00  0.00    +0.000 OA
BRANCH  17  22
ATOM     22  C   UNL     1       9.249  11.665  18.819  0.00  0.00    +0.000 C 
BRANCH  22  24
ATOM     23  C   UNL     1       7.989  13.565  17.746  0.00  0.00    +0.000 C 
ATOM     24  C   UNL     1       9.148  12.579  17.581  0.00  0.00    +0.000 C 
ATOM     25  C   UNL     1      10.446  13.352  17.313  0.00  0.00    +0.000 C 
ENDBRANCH  22  24
ENDBRANCH  17  22
ENDBRANCH  16  19
ENDBRANCH   1  16
TORSDOF 5
ENDMDL
MODEL 9
REMARK VINA RESULT:      -7.1      4.665      7.141
REMARK  Name = 
REMARK  7 active torsions:
REMARK  status: ('A' for Active; 'I' for Inactive)
REMARK    1  A    between atoms: C_1  and  C_2
REMARK    2  A    between atoms: C_2  and  C_3
REMARK    3  A    between atoms: C_2  and  C_4
REMARK    4  A    between atoms: C_4  and  C_5
REMARK    5  A    between atoms: C_7  and  C_8
REMARK    6  A    between atoms: C_8  and  N_9
REMARK    7  A    between atoms: N_16  and  C_17
REMARK                            x       y       z     vdW  Elec       q    Type
REMARK                         _______ _______ _______ _____ _____    ______ ____
ROOT
ATOM      1  N   UNL     1       6.994   6.649  18.549  0.00  0.00    +0.000 NA
ATOM      2  C   UNL     1       6.857   5.460  19.445  0.00  0.00    +0.000 C 
ATOM      3  C   UNL     1       6.238   4.383  18.524  0.00  0.00    +0.000 C 
ATOM      4  C   UNL     1       6.980   4.672  17.229  0.00  0.00    +0.000 C 
ATOM      5  C   UNL     1       6.535   6.132  17.227  0.00  0.00    +0.000 C 
ATOM      6  C   UNL     1       5.002   5.911  17.324  0.00  0.00    +0.000 C 
ATOM      7  O   UNL     1       4.147   6.589  16.783  0.00  0.00    +0.000 OA
ATOM      8  N   UNL     1       4.882   4.760  18.151  0.00  0.00    +0.000 N 
ENDROOT
BRANCH   8   9
ATOM      9  C   UNL     1       3.719   4.006  18.427  0.00  0.00    +0.000 A 
ATOM     10  C   UNL     1       3.077   3.272  17.420  0.00  0.00    +0.000 A 
ATOM     11  C   UNL     1       1.984   2.445  17.707  0.00  0.00    +0.000 A 
ATOM     12  C   UNL     1       1.501   2.353  19.013  0.00  0.00    +0.000 A 
ATOM     13  C   UNL     1       2.103   3.110  20.010  0.00  0.00    +0.000 A 
ATOM     14 CL   UNL     1       1.503   3.020  21.623  0.00  0.00    +0.000 Cl
ATOM     15  C   UNL     1       3.199   3.931  19.727  0.00  0.00    +0.000 A 
ENDBRANCH   8   9
BRANCH   1  16
ATOM     16  C   UNL     1       8.370   7.181  18.484  0.00  0.00    +0.000 C 
BRANCH  16  19
ATOM     17  C   UNL     1       9.022  10.661  18.479  0.00  0.00    +0.000 A 
ATOM     18  N   UNL     1       9.298   9.477  18.976  0.00  0.00    +0.000 NA
ATOM     19  C   UNL     1       8.384   8.674  18.340  0.00  0.00    +0.000 A 
ATOM     20  N   UNL     1       7.513   9.332  17.558  0.00  0.00    +0.000 NA
ATOM     21  O   UNL     1       7.946  10.657  17.640  0.00  0.00    +0.000 OA
BRANCH  17  22
ATOM     22  C   UNL     1       9.714  11.958  18.684  0.00  0.00    +0.000 C 
BRANCH  22  24
ATOM     23  C   UNL     1      11.587  13.046  17.395  0.00  0.00    +0.000 C 
ATOM     24  C   UNL     1      11.215  11.896  18.334  0.00  0.00    +0.000 C 
ATOM     25  C   UNL     1      12.111  11.938  19.578  0.00  0.00    +0.000 C 
ENDBRANCH  22  24
ENDBRANCH  17  22
ENDBRANCH  16  19
ENDBRANCH   1  16
TORSDOF 5
ENDMDL
