MODEL 1
REMARK VINA RESULT:      -7.8      0.000      0.000
REMARK  Name = 
REMARK  4 active torsions:
REMARK  status: ('A' for Active; 'I' for Inactive)
REMARK    1  A    between atoms: C_2  and  C_3
REMARK    2  A    between atoms: C_5  and  C_6
REMARK    3  A    between atoms: N_21  and  S_22
REMARK    4  A    between atoms: S_22  and  C_25
REMARK                            x       y       z     vdW  Elec       q    Type
REMARK                         _______ _______ _______ _____ _____    ______ ____
ROOT
ATOM      1  O   UNL     1       0.652   9.321  21.516  0.00  0.00    +0.000 OA
ATOM      2  C   UNL     1       0.865   9.415  20.307  0.00  0.00    +0.000 C 
ATOM      3  N   UNL     1       1.654   8.467  19.627  0.00  0.00    +0.000 N 
ATOM      4  C   UNL     1       1.892   8.413  18.170  0.00  0.00    +0.000 C 
ATOM      5  C   UNL     1       3.202   7.733  17.754  0.00  0.00    +0.000 C 
ATOM      6  N   UNL     1       3.420   6.436  18.453  0.00  0.00    +0.000 NA
ATOM      7  C   UNL     1       3.344   6.652  19.935  0.00  0.00    +0.000 C 
ATOM      8  C   UNL     1       1.987   7.231  20.356  0.00  0.00    +0.000 C 
ENDROOT
BRANCH   2   9
ATOM      9  C   UNL     1       0.262  10.577  19.579  0.00  0.00    +0.000 A 
ATOM     10  C   UNL     1      -0.943  10.374  18.915  0.00  0.00    +0.000 A 
ATOM     11  C   UNL     1      -1.424  11.357  18.079  0.00  0.00    +0.000 A 
ATOM     12  N   UNL     1      -0.884  12.591  18.034  0.00  0.00    +0.000 NA
ATOM     13  C   UNL     1       0.180  12.857  18.809  0.00  0.00    +0.000 A 
ATOM     14  C   UNL     1       0.642  14.166  18.830  0.00  0.00    +0.000 A 
ATOM     15  C   UNL     1       1.728  14.558  19.612  0.00  0.00    +0.000 A 
ATOM     16  C   UNL     1       2.401  13.611  20.366  0.00  0.00    +0.000 A 
ATOM     17  C   UNL     1       1.971  12.282  20.345  0.00  0.00    +0.000 A 
ATOM     18  C   UNL     1       0.833  11.879  19.595  0.00  0.00    +0.000 A 
BRANCH  11  19
ATOM     19  C   UNL     1      -2.535  11.113  17.148  0.00  0.00    +0.000 A 
ATOM     20  C   UNL     1      -2.509  10.524  15.901  0.00  0.00    +0.000 A 
ATOM     21  C   UNL     1      -3.797  10.469  15.291  0.00  0.00    +0.000 A 
ATOM     22  C   UNL     1      -4.779  10.982  16.108  0.00  0.00    +0.000 A 
ATOM     23  S   UNL     1      -4.148  11.526  17.598  0.00  0.00    +0.000 S 
ENDBRANCH  11  19
ENDBRANCH   2   9
BRANCH   6  24
ATOM     24  S   UNL     1       2.548   5.082  17.883  0.00  0.00    +0.000 S 
ATOM     25  O   UNL     1       1.199   5.514  17.590  0.00  0.00    +0.000 OA
ATOM     26  O   UNL     1       3.354   4.423  16.878  0.00  0.00    +0.000 OA
BRANCH  24  27
ATOM     27  C   UNL     1       2.457   4.019  19.298  0.00  0.00    +0.000 A 
ATOM     28  C   UNL     1       1.224   3.838  19.934  0.00  0.00    +0.000 A 
ATOM     29  C   UNL     1       1.127   2.961  21.015  0.00  0.00    +0.000 A 
ATOM     30  C   UNL     1       2.258   2.267  21.450  0.00  0.00    +0.000 A 
ATOM     31  C   UNL     1       3.476   2.460  20.805  0.00  0.00    +0.000 A 
ATOM     32  F   UNL     1       4.554   1.782  21.223  0.00  0.00    +0.000 F 
ATOM     33  C   UNL     1       3.594   3.333  19.731  0.00  0.00    +0.000 A 
ENDBRANCH  24  27
ENDBRANCH   6  24
TORSDOF 4
ENDMDL
MODEL 2
REMARK VINA RESULT:      -7.7      1.355      3.688
REMARK  Name = 
REMARK  4 active torsions:
REMARK  status: ('A' for Active; 'I' for Inactive)
REMARK    1  A    between atoms: C_2  and  C_3
REMARK    2  A    between atoms: C_5  and  C_6
REMARK    3  A    between atoms: N_21  and  S_22
REMARK    4  A    between atoms: S_22  and  C_25
REMARK                            x       y       z     vdW  Elec       q    Type
REMARK                         _______ _______ _______ _____ _____    ______ ____
ROOT
ATOM      1  O   UNL     1       0.698   9.458  21.269  0.00  0.00    +0.000 OA
ATOM      2  C   UNL     1       0.941   9.491  20.063  0.00  0.00    +0.000 C 
ATOM      3  N   UNL     1       1.716   8.490  19.445  0.00  0.00    +0.000 N 
ATOM      4  C   UNL     1       1.986   8.365  17.999  0.00  0.00    +0.000 C 
ATOM      5  C   UNL     1       3.283   7.627  17.645  0.00  0.00    +0.000 C 
ATOM      6  N   UNL     1       3.443   6.357  18.405  0.00  0.00    +0.000 NA
ATOM      7  C   UNL     1       3.340   6.641  19.874  0.00  0.00    +0.000 C 
ATOM      8  C   UNL     1       1.992   7.279  20.236  0.00  0.00    +0.000 C 
ENDROOT
BRANCH   2   9
ATOM      9  C   UNL     1       0.393  10.638  19.270  0.00  0.00    +0.000 A 
ATOM     10  C   UNL     1       1.193  11.766  19.119  0.00  0.00    +0.000 A 
ATOM     11  C   UNL     1       0.651  12.906  18.568  0.00  0.00    +0.000 A 
ATOM     12  N   UNL     1      -0.561  12.914  17.979  0.00  0.00    +0.000 NA
ATOM     13  C   UNL     1      -1.275  11.777  17.959  0.00  0.00    +0.000 A 
ATOM     14  C   UNL     1      -2.465  11.784  17.245  0.00  0.00    +0.000 A 
ATOM     15  C   UNL     1      -3.277  10.655  17.143  0.00  0.00    +0.000 A 
ATOM     16  C   UNL     1      -2.915   9.494  17.805  0.00  0.00    +0.000 A 
ATOM     17  C   UNL     1      -1.734   9.466  18.550  0.00  0.00    +0.000 A 
ATOM     18  C   UNL     1      -0.870  10.593  18.618  0.00  0.00    +0.000 A 
BRANCH  11  19
ATOM     19  C   UNL     1       1.342  14.202  18.622  0.00  0.00    +0.000 A 
ATOM     20  C   UNL     1       2.649  14.502  18.297  0.00  0.00    +0.000 A 
ATOM     21  C   UNL     1       2.961  15.881  18.486  0.00  0.00    +0.000 A 
ATOM     22  C   UNL     1       1.869  16.604  18.912  0.00  0.00    +0.000 A 
ATOM     23  S   UNL     1       0.482  15.624  19.083  0.00  0.00    +0.000 S 
ENDBRANCH  11  19
ENDBRANCH   2   9
BRANCH   6  24
ATOM     24  S   UNL     1       2.543   5.005  17.874  0.00  0.00    +0.000 S 
ATOM     25  O   UNL     1       1.195   5.451  17.600  0.00  0.00    +0.000 OA
ATOM     26  O   UNL     1       3.321   4.320  16.865  0.00  0.00    +0.000 OA
BRANCH  24  27
ATOM     27  C   UNL     1       2.465   3.966  19.308  0.00  0.00    +0.000 A 
ATOM     28  C   UNL     1       1.241   3.810  19.968  0.00  0.00    +0.000 A 
ATOM     29  C   UNL     1       1.153   2.952  21.065  0.00  0.00    +0.000 A 
ATOM     30  C   UNL     1       2.284   2.251  21.491  0.00  0.00    +0.000 A 
ATOM     31  C   UNL     1       3.493   2.419  20.821  0.00  0.00    +0.000 A 
ATOM     32  F   UNL     1       4.570   1.735  21.231  0.00  0.00    +0.000 F 
ATOM     33  C   UNL     1       3.601   3.274  19.731  0.00  0.00    +0.000 A 
ENDBRANCH  24  27
ENDBRANCH   6  24
TORSDOF 4
ENDMDL
MODEL 3
REMARK VINA RESULT:      -7.5      0.759      1.131
REMARK  Name = 
REMARK  4 active torsions:
REMARK  status: ('A' for Active; 'I' for Inactive)
REMARK    1  A    between atoms: C_2  and  C_3
REMARK    2  A    between atoms: C_5  and  C_6
REMARK    3  A    between atoms: N_21  and  S_22
REMARK    4  A    between atoms: S_22  and  C_25
REMARK                            x       y       z     vdW  Elec       q    Type
REMARK                         _______ _______ _______ _____ _____    ______ ____
ROOT
ATOM      1  O   UNL     1       0.787   9.150  21.506  0.00  0.00    +0.000 OA
ATOM      2  C   UNL     1       0.978   9.258  20.295  0.00  0.00    +0.000 C 
ATOM      3  N   UNL     1       1.775   8.332  19.594  0.00  0.00    +0.000 N 
ATOM      4  C   UNL     1       1.990   8.295  18.134  0.00  0.00    +0.000 C 
ATOM      5  C   UNL     1       3.306   7.646  17.690  0.00  0.00    +0.000 C 
ATOM      6  N   UNL     1       3.563   6.348  18.375  0.00  0.00    +0.000 NA
ATOM      7  C   UNL     1       3.507   6.551  19.859  0.00  0.00    +0.000 C 
ATOM      8  C   UNL     1       2.146   7.098  20.308  0.00  0.00    +0.000 C 
ENDROOT
BRANCH   2   9
ATOM      9  C   UNL     1       0.340  10.414  19.587  0.00  0.00    +0.000 A 
ATOM     10  C   UNL     1      -0.836  10.175  18.882  0.00  0.00    +0.000 A 
ATOM     11  C   UNL     1      -1.341  11.161  18.063  0.00  0.00    +0.000 A 
ATOM     12  N   UNL     1      -0.861  12.419  18.073  0.00  0.00    +0.000 NA
ATOM     13  C   UNL     1       0.167  12.711  18.887  0.00  0.00    +0.000 A 
ATOM     14  C   UNL     1       0.563  14.039  18.963  0.00  0.00    +0.000 A 
ATOM     15  C   UNL     1       1.607  14.457  19.787  0.00  0.00    +0.000 A 
ATOM     16  C   UNL     1       2.305  13.518  20.531  0.00  0.00    +0.000 A 
ATOM     17  C   UNL     1       1.941  12.172  20.456  0.00  0.00    +0.000 A 
ATOM     18  C   UNL     1       0.845  11.740  19.661  0.00  0.00    +0.000 A 
BRANCH  11  19
ATOM     19  C   UNL     1      -2.413  10.894  17.094  0.00  0.00    +0.000 A 
ATOM     20  C   UNL     1      -2.368  10.149  15.933  0.00  0.00    +0.000 A 
ATOM     21  C   UNL     1      -3.617  10.126  15.245  0.00  0.00    +0.000 A 
ATOM     22  C   UNL     1      -4.594  10.821  15.922  0.00  0.00    +0.000 A 
ATOM     23  S   UNL     1      -4.005  11.497  17.375  0.00  0.00    +0.000 S 
ENDBRANCH  11  19
ENDBRANCH   2   9
BRANCH   6  24
ATOM     24  S   UNL     1       2.710   4.980  17.808  0.00  0.00    +0.000 S 
ATOM     25  O   UNL     1       1.318   5.351  17.671  0.00  0.00    +0.000 OA
ATOM     26  O   UNL     1       3.447   4.426  16.693  0.00  0.00    +0.000 OA
BRANCH  24  27
ATOM     27  C   UNL     1       2.812   3.837  19.157  0.00  0.00    +0.000 A 
ATOM     28  C   UNL     1       4.019   3.171  19.394  0.00  0.00    +0.000 A 
ATOM     29  C   UNL     1       4.130   2.309  20.487  0.00  0.00    +0.000 A 
ATOM     30  C   UNL     1       3.038   2.124  21.338  0.00  0.00    +0.000 A 
ATOM     31  C   UNL     1       1.845   2.795  21.086  0.00  0.00    +0.000 A 
ATOM     32  F   UNL     1       0.806   2.618  21.914  0.00  0.00    +0.000 F 
ATOM     33  C   UNL     1       1.714   3.652  20.000  0.00  0.00    +0.000 A 
ENDBRANCH  24  27
ENDBRANCH   6  24
TORSDOF 4
ENDMDL
MODEL 4
REMARK VINA RESULT:      -7.5      1.517      3.845
REMARK  Name = 
REMARK  4 active torsions:
REMARK  status: ('A' for Active; 'I' for Inactive)
REMARK    1  A    between atoms: C_2  and  C_3
REMARK    2  A    between atoms: C_5  and  C_6
REMARK    3  A    between atoms: N_21  and  S_22
REMARK    4  A    between atoms: S_22  and  C_25
REMARK                            x       y       z     vdW  Elec       q    Type
REMARK                         _______ _______ _______ _____ _____    ______ ____
ROOT
ATOM      1  O   UNL     1       0.489   9.374  21.225  0.00  0.00    +0.000 OA
ATOM      2  C   UNL     1       0.806   9.442  20.038  0.00  0.00    +0.000 C 
ATOM      3  N   UNL     1       1.649   8.479  19.449  0.00  0.00    +0.000 N 
ATOM      4  C   UNL     1       2.012   8.395  18.020  0.00  0.00    +0.000 C 
ATOM      5  C   UNL     1       3.351   7.704  17.734  0.00  0.00    +0.000 C 
ATOM      6  N   UNL     1       3.504   6.422  18.476  0.00  0.00    +0.000 NA
ATOM      7  C   UNL     1       3.300   6.669  19.941  0.00  0.00    +0.000 C 
ATOM      8  C   UNL     1       1.913   7.258  20.230  0.00  0.00    +0.000 C 
ENDROOT
BRANCH   2   9
ATOM      9  C   UNL     1       0.273  10.590  19.236  0.00  0.00    +0.000 A 
ATOM     10  C   UNL     1       1.076  11.717  19.100  0.00  0.00    +0.000 A 
ATOM     11  C   UNL     1       0.545  12.858  18.541  0.00  0.00    +0.000 A 
ATOM     12  N   UNL     1      -0.655  12.868  17.930  0.00  0.00    +0.000 NA
ATOM     13  C   UNL     1      -1.370  11.731  17.897  0.00  0.00    +0.000 A 
ATOM     14  C   UNL     1      -2.548  11.740  17.162  0.00  0.00    +0.000 A 
ATOM     15  C   UNL     1      -3.359  10.612  17.045  0.00  0.00    +0.000 A 
ATOM     16  C   UNL     1      -3.009   9.449  17.713  0.00  0.00    +0.000 A 
ATOM     17  C   UNL     1      -1.842   9.420  18.478  0.00  0.00    +0.000 A 
ATOM     18  C   UNL     1      -0.978  10.546  18.562  0.00  0.00    +0.000 A 
BRANCH  11  19
ATOM     19  C   UNL     1       1.237  14.153  18.607  0.00  0.00    +0.000 A 
ATOM     20  C   UNL     1       2.565  14.442  18.366  0.00  0.00    +0.000 A 
ATOM     21  C   UNL     1       2.868  15.824  18.539  0.00  0.00    +0.000 A 
ATOM     22  C   UNL     1       1.753  16.561  18.870  0.00  0.00    +0.000 A 
ATOM     23  S   UNL     1       0.353  15.589  18.970  0.00  0.00    +0.000 S 
ENDBRANCH  11  19
ENDBRANCH   2   9
BRANCH   6  24
ATOM     24  S   UNL     1       2.681   5.057  17.860  0.00  0.00    +0.000 S 
ATOM     25  O   UNL     1       1.289   5.414  17.698  0.00  0.00    +0.000 OA
ATOM     26  O   UNL     1       3.450   4.535  16.752  0.00  0.00    +0.000 OA
BRANCH  24  27
ATOM     27  C   UNL     1       2.764   3.886  19.188  0.00  0.00    +0.000 A 
ATOM     28  C   UNL     1       3.966   3.208  19.422  0.00  0.00    +0.000 A 
ATOM     29  C   UNL     1       4.062   2.325  20.499  0.00  0.00    +0.000 A 
ATOM     30  C   UNL     1       2.962   2.129  21.336  0.00  0.00    +0.000 A 
ATOM     31  C   UNL     1       1.774   2.813  21.088  0.00  0.00    +0.000 A 
ATOM     32  F   UNL     1       0.728   2.626  21.903  0.00  0.00    +0.000 F 
ATOM     33  C   UNL     1       1.658   3.692  20.018  0.00  0.00    +0.000 A 
ENDBRANCH  24  27
ENDBRANCH   6  24
TORSDOF 4
ENDMDL
MODEL 5
REMARK VINA RESULT:      -7.4      6.239      8.549
REMARK  Name = 
REMARK  4 active torsions:
REMARK  status: ('A' for Active; 'I' for Inactive)
REMARK    1  A    between atoms: C_2  and  C_3
REMARK    2  A    between atoms: C_5  and  C_6
REMARK    3  A    between atoms: N_21  and  S_22
REMARK    4  A    between atoms: S_22  and  C_25
REMARK                            x       y       z     vdW  Elec       q    Type
REMARK                         _______ _______ _______ _____ _____    ______ ____
ROOT
ATOM      1  O   UNL     1       1.138  11.740  21.356  0.00  0.00    +0.000 OA
ATOM      2  C   UNL     1       0.553  12.621  20.727  0.00  0.00    +0.000 C 
ATOM      3  N   UNL     1       1.213  13.803  20.336  0.00  0.00    +0.000 N 
ATOM      4  C   UNL     1       0.652  14.877  19.494  0.00  0.00    +0.000 C 
ATOM      5  C   UNL     1       1.276  16.261  19.712  0.00  0.00    +0.000 C 
ATOM      6  N   UNL     1       2.765  16.221  19.733  0.00  0.00    +0.000 NA
ATOM      7  C   UNL     1       3.219  15.230  20.762  0.00  0.00    +0.000 C 
ATOM      8  C   UNL     1       2.680  13.823  20.475  0.00  0.00    +0.000 C 
ENDROOT
BRANCH   2   9
ATOM      9  C   UNL     1      -0.891  12.402  20.394  0.00  0.00    +0.000 A 
ATOM     10  C   UNL     1      -1.191  11.650  19.264  0.00  0.00    +0.000 A 
ATOM     11  C   UNL     1      -2.493  11.592  18.819  0.00  0.00    +0.000 A 
ATOM     12  N   UNL     1      -3.523  12.064  19.548  0.00  0.00    +0.000 NA
ATOM     13  C   UNL     1      -3.263  12.638  20.734  0.00  0.00    +0.000 A 
ATOM     14  C   UNL     1      -4.349  13.008  21.516  0.00  0.00    +0.000 A 
ATOM     15  C   UNL     1      -4.196  13.596  22.771  0.00  0.00    +0.000 A 
ATOM     16  C   UNL     1      -2.922  13.860  23.248  0.00  0.00    +0.000 A 
ATOM     17  C   UNL     1      -1.812  13.519  22.472  0.00  0.00    +0.000 A 
ATOM     18  C   UNL     1      -1.953  12.871  21.215  0.00  0.00    +0.000 A 
BRANCH  11  19
ATOM     19  C   UNL     1      -2.843  11.049  17.499  0.00  0.00    +0.000 A 
ATOM     20  C   UNL     1      -2.153  10.139  16.725  0.00  0.00    +0.000 A 
ATOM     21  C   UNL     1      -2.809   9.857  15.491  0.00  0.00    +0.000 A 
ATOM     22  C   UNL     1      -4.004  10.530  15.375  0.00  0.00    +0.000 A 
ATOM     23  S   UNL     1      -4.329  11.494  16.745  0.00  0.00    +0.000 S 
ENDBRANCH  11  19
ENDBRANCH   2   9
BRANCH   6  24
ATOM     24  S   UNL     1       3.568  16.107  18.229  0.00  0.00    +0.000 S 
ATOM     25  O   UNL     1       3.306  14.793  17.684  0.00  0.00    +0.000 OA
ATOM     26  O   UNL     1       3.266  17.302  17.471  0.00  0.00    +0.000 OA
BRANCH  24  27
ATOM     27  C   UNL     1       5.284  16.154  18.668  0.00  0.00    +0.000 A 
ATOM     28  C   UNL     1       6.101  15.068  18.335  0.00  0.00    +0.000 A 
ATOM     29  C   UNL     1       7.465  15.115  18.625  0.00  0.00    +0.000 A 
ATOM     30  C   UNL     1       8.005  16.246  19.240  0.00  0.00    +0.000 A 
ATOM     31  C   UNL     1       7.177  17.318  19.564  0.00  0.00    +0.000 A 
ATOM     32  F   UNL     1       7.707  18.403  20.144  0.00  0.00    +0.000 F 
ATOM     33  C   UNL     1       5.816  17.287  19.288  0.00  0.00    +0.000 A 
ENDBRANCH  24  27
ENDBRANCH   6  24
TORSDOF 4
ENDMDL
MODEL 6
REMARK VINA RESULT:      -7.4      6.007      8.326
REMARK  Name = 
REMARK  4 active torsions:
REMARK  status: ('A' for Active; 'I' for Inactive)
REMARK    1  A    between atoms: C_2  and  C_3
REMARK    2  A    between atoms: C_5  and  C_6
REMARK    3  A    between atoms: N_21  and  S_22
REMARK    4  A    between atoms: S_22  and  C_25
REMARK                            x       y       z     vdW  Elec       q    Type
REMARK                         _______ _______ _______ _____ _____    ______ ____
ROOT
ATOM      1  O   UNL     1       0.862  11.602  21.583  0.00  0.00    +0.000 OA
ATOM      2  C   UNL     1       0.403  12.455  20.823  0.00  0.00    +0.000 C 
ATOM      3  N   UNL     1       1.192  13.529  20.366  0.00  0.00    +0.000 N 
ATOM      4  C   UNL     1       0.789  14.548  19.376  0.00  0.00    +0.000 C 
ATOM      5  C   UNL     1       1.517  15.892  19.500  0.00  0.00    +0.000 C 
ATOM      6  N   UNL     1       2.991  15.733  19.642  0.00  0.00    +0.000 NA
ATOM      7  C   UNL     1       3.283  14.826  20.800  0.00  0.00    +0.000 C 
ATOM      8  C   UNL     1       2.641  13.445  20.617  0.00  0.00    +0.000 C 
ENDROOT
BRANCH   2   9
ATOM      9  C   UNL     1      -1.028  12.319  20.401  0.00  0.00    +0.000 A 
ATOM     10  C   UNL     1      -1.305  11.544  19.280  0.00  0.00    +0.000 A 
ATOM     11  C   UNL     1      -2.577  11.556  18.751  0.00  0.00    +0.000 A 
ATOM     12  N   UNL     1      -3.617  12.123  19.393  0.00  0.00    +0.000 NA
ATOM     13  C   UNL     1      -3.395  12.725  20.573  0.00  0.00    +0.000 A 
ATOM     14  C   UNL     1      -4.502  13.197  21.266  0.00  0.00    +0.000 A 
ATOM     15  C   UNL     1      -4.390  13.822  22.507  0.00  0.00    +0.000 A 
ATOM     16  C   UNL     1      -3.135  14.021  23.059  0.00  0.00    +0.000 A 
ATOM     17  C   UNL     1      -2.003  13.576  22.372  0.00  0.00    +0.000 A 
ATOM     18  C   UNL     1      -2.106  12.889  21.132  0.00  0.00    +0.000 A 
BRANCH  11  19
ATOM     19  C   UNL     1      -2.877  10.985  17.431  0.00  0.00    +0.000 A 
ATOM     20  C   UNL     1      -2.154  10.067  16.697  0.00  0.00    +0.000 A 
ATOM     21  C   UNL     1      -2.765   9.756  15.447  0.00  0.00    +0.000 A 
ATOM     22  C   UNL     1      -3.961  10.417  15.278  0.00  0.00    +0.000 A 
ATOM     23  S   UNL     1      -4.340  11.403  16.618  0.00  0.00    +0.000 S 
ENDBRANCH  11  19
ENDBRANCH   2   9
BRANCH   6  24
ATOM     24  S   UNL     1       3.884  15.392  18.226  0.00  0.00    +0.000 S 
ATOM     25  O   UNL     1       4.001  13.955  18.111  0.00  0.00    +0.000 OA
ATOM     26  O   UNL     1       3.330  16.183  17.149  0.00  0.00    +0.000 OA
BRANCH  24  27
ATOM     27  C   UNL     1       5.501  16.016  18.592  0.00  0.00    +0.000 A 
ATOM     28  C   UNL     1       5.624  17.171  19.372  0.00  0.00    +0.000 A 
ATOM     29  C   UNL     1       6.892  17.642  19.714  0.00  0.00    +0.000 A 
ATOM     30  C   UNL     1       8.028  16.955  19.281  0.00  0.00    +0.000 A 
ATOM     31  C   UNL     1       7.887  15.807  18.506  0.00  0.00    +0.000 A 
ATOM     32  F   UNL     1       8.982  15.149  18.104  0.00  0.00    +0.000 F 
ATOM     33  C   UNL     1       6.633  15.326  18.151  0.00  0.00    +0.000 A 
ENDBRANCH  24  27
ENDBRANCH   6  24
TORSDOF 4
ENDMDL
MODEL 7
REMARK VINA RESULT:      -7.4      2.436      2.855
REMARK  Name = 
REMARK  4 active torsions:
REMARK  status: ('A' for Active; 'I' for Inactive)
REMARK    1  A    between atoms: C_2  and  C_3
REMARK    2  A    between atoms: C_5  and  C_6
REMARK    3  A    between atoms: N_21  and  S_22
REMARK    4  A    between atoms: S_22  and  C_25
REMARK                            x       y       z     vdW  Elec       q    Type
REMARK                         _______ _______ _______ _____ _____    ______ ____
ROOT
ATOM      1  O   UNL     1       2.975  10.168  17.721  0.00  0.00    +0.000 OA
ATOM      2  C   UNL     1       2.265   9.225  18.070  0.00  0.00    +0.000 C 
ATOM      3  N   UNL     1       2.687   7.891  17.907  0.00  0.00    +0.000 N 
ATOM      4  C   UNL     1       1.975   6.687  18.381  0.00  0.00    +0.000 C 
ATOM      5  C   UNL     1       2.274   5.407  17.589  0.00  0.00    +0.000 C 
ATOM      6  N   UNL     1       3.731   5.202  17.363  0.00  0.00    +0.000 NA
ATOM      7  C   UNL     1       4.307   6.419  16.704  0.00  0.00    +0.000 C 
ATOM      8  C   UNL     1       4.101   7.678  17.555  0.00  0.00    +0.000 C 
ENDROOT
BRANCH   2   9
ATOM      9  C   UNL     1       0.929   9.540  18.671  0.00  0.00    +0.000 A 
ATOM     10  C   UNL     1      -0.150   9.699  17.808  0.00  0.00    +0.000 A 
ATOM     11  C   UNL     1      -1.343  10.179  18.304  0.00  0.00    +0.000 A 
ATOM     12  N   UNL     1      -1.573  10.306  19.625  0.00  0.00    +0.000 NA
ATOM     13  C   UNL     1      -0.592   9.984  20.484  0.00  0.00    +0.000 A 
ATOM     14  C   UNL     1      -0.895  10.012  21.838  0.00  0.00    +0.000 A 
ATOM     15  C   UNL     1       0.041   9.680  22.816  0.00  0.00    +0.000 A 
ATOM     16  C   UNL     1       1.332   9.347  22.438  0.00  0.00    +0.000 A 
ATOM     17  C   UNL     1       1.670   9.332  21.084  0.00  0.00    +0.000 A 
ATOM     18  C   UNL     1       0.711   9.617  20.073  0.00  0.00    +0.000 A 
BRANCH  11  19
ATOM     19  C   UNL     1      -2.431  10.623  17.421  0.00  0.00    +0.000 A 
ATOM     20  C   UNL     1      -2.569  10.451  16.059  0.00  0.00    +0.000 A 
ATOM     21  C   UNL     1      -3.767  11.032  15.549  0.00  0.00    +0.000 A 
ATOM     22  C   UNL     1      -4.532  11.597  16.545  0.00  0.00    +0.000 A 
ATOM     23  S   UNL     1      -3.807  11.427  18.080  0.00  0.00    +0.000 S 
ENDBRANCH  11  19
ENDBRANCH   2   9
BRANCH   6  24
ATOM     24  S   UNL     1       4.650   4.595  18.670  0.00  0.00    +0.000 S 
ATOM     25  O   UNL     1       5.553   3.592  18.149  0.00  0.00    +0.000 OA
ATOM     26  O   UNL     1       5.148   5.723  19.427  0.00  0.00    +0.000 OA
BRANCH  24  27
ATOM     27  C   UNL     1       3.453   3.749  19.665  0.00  0.00    +0.000 A 
ATOM     28  C   UNL     1       3.167   4.236  20.945  0.00  0.00    +0.000 A 
ATOM     29  C   UNL     1       2.186   3.612  21.718  0.00  0.00    +0.000 A 
ATOM     30  C   UNL     1       1.494   2.513  21.206  0.00  0.00    +0.000 A 
ATOM     31  C   UNL     1       1.791   2.043  19.930  0.00  0.00    +0.000 A 
ATOM     32  F   UNL     1       1.115   0.994  19.444  0.00  0.00    +0.000 F 
ATOM     33  C   UNL     1       2.768   2.647  19.148  0.00  0.00    +0.000 A 
ENDBRANCH  24  27
ENDBRANCH   6  24
TORSDOF 4
ENDMDL
MODEL 8
REMARK VINA RESULT:      -7.3      5.954      8.590
REMARK  Name = 
REMARK  4 active torsions:
REMARK  status: ('A' for Active; 'I' for Inactive)
REMARK    1  A    between atoms: C_2  and  C_3
REMARK    2  A    between atoms: C_5  and  C_6
REMARK    3  A    between atoms: N_21  and  S_22
REMARK    4  A    between atoms: S_22  and  C_25
REMARK                            x       y       z     vdW  Elec       q    Type
REMARK                         _______ _______ _______ _____ _____    ______ ____
ROOT
ATOM      1  O   UNL     1      -0.050  10.833  20.204  0.00  0.00    +0.000 OA
ATOM      2  C   UNL     1      -0.505  11.938  19.908  0.00  0.00    +0.000 C 
ATOM      3  N   UNL     1       0.328  13.068  19.800  0.00  0.00    +0.000 N 
ATOM      4  C   UNL     1      -0.082  14.414  19.352  0.00  0.00    +0.000 C 
ATOM      5  C   UNL     1       0.783  15.563  19.886  0.00  0.00    +0.000 C 
ATOM      6  N   UNL     1       2.241  15.294  19.747  0.00  0.00    +0.000 NA
ATOM      7  C   UNL     1       2.570  13.989  20.407  0.00  0.00    +0.000 C 
ATOM      8  C   UNL     1       1.781  12.826  19.792  0.00  0.00    +0.000 C 
ENDROOT
BRANCH   2   9
ATOM      9  C   UNL     1      -1.981  12.045  19.672  0.00  0.00    +0.000 A 
ATOM     10  C   UNL     1      -2.758  12.626  20.669  0.00  0.00    +0.000 A 
ATOM     11  C   UNL     1      -4.131  12.565  20.573  0.00  0.00    +0.000 A 
ATOM     12  N   UNL     1      -4.756  12.149  19.454  0.00  0.00    +0.000 NA
ATOM     13  C   UNL     1      -4.010  11.752  18.410  0.00  0.00    +0.000 A 
ATOM     14  C   UNL     1      -4.676  11.442  17.232  0.00  0.00    +0.000 A 
ATOM     15  C   UNL     1      -4.002  11.034  16.082  0.00  0.00    +0.000 A 
ATOM     16  C   UNL     1      -2.624  10.893  16.115  0.00  0.00    +0.000 A 
ATOM     17  C   UNL     1      -1.931  11.177  17.294  0.00  0.00    +0.000 A 
ATOM     18  C   UNL     1      -2.600  11.644  18.457  0.00  0.00    +0.000 A 
BRANCH  11  19
ATOM     19  C   UNL     1      -5.007  12.911  21.701  0.00  0.00    +0.000 A 
ATOM     20  C   UNL     1      -4.690  13.550  22.882  0.00  0.00    +0.000 A 
ATOM     21  C   UNL     1      -5.815  13.704  23.744  0.00  0.00    +0.000 A 
ATOM     22  C   UNL     1      -6.971  13.214  23.179  0.00  0.00    +0.000 A 
ATOM     23  S   UNL     1      -6.696  12.572  21.621  0.00  0.00    +0.000 S 
ENDBRANCH  11  19
ENDBRANCH   2   9
BRANCH   6  24
ATOM     24  S   UNL     1       2.934  15.507  18.200  0.00  0.00    +0.000 S 
ATOM     25  O   UNL     1       2.801  14.259  17.480  0.00  0.00    +0.000 OA
ATOM     26  O   UNL     1       2.423  16.743  17.648  0.00  0.00    +0.000 OA
BRANCH  24  27
ATOM     27  C   UNL     1       4.658  15.728  18.542  0.00  0.00    +0.000 A 
ATOM     28  C   UNL     1       5.054  16.757  19.403  0.00  0.00    +0.000 A 
ATOM     29  C   UNL     1       6.404  16.907  19.725  0.00  0.00    +0.000 A 
ATOM     30  C   UNL     1       7.347  16.027  19.190  0.00  0.00    +0.000 A 
ATOM     31  C   UNL     1       6.935  15.009  18.335  0.00  0.00    +0.000 A 
ATOM     32  F   UNL     1       7.846  14.164  17.835  0.00  0.00    +0.000 F 
ATOM     33  C   UNL     1       5.596  14.847  17.999  0.00  0.00    +0.000 A 
ENDBRANCH  24  27
ENDBRANCH   6  24
TORSDOF 4
ENDMDL
MODEL 9
REMARK VINA RESULT:      -7.2      6.211      8.852
REMARK  Name = 
REMARK  4 active torsions:
REMARK  status: ('A' for Active; 'I' for Inactive)
REMARK    1  A    between atoms: C_2  and  C_3
REMARK    2  A    between atoms: C_5  and  C_6
REMARK    3  A    between atoms: N_21  and  S_22
REMARK    4  A    between atoms: S_22  and  C_25
REMARK                            x       y       z     vdW  Elec       q    Type
REMARK                         _______ _______ _______ _____ _____    ______ ____
ROOT
ATOM      1  O   UNL     1      -0.181  10.792  20.343  0.00  0.00    +0.000 OA
ATOM      2  C   UNL     1      -0.619  11.895  20.017  0.00  0.00    +0.000 C 
ATOM      3  N   UNL     1       0.228  13.014  19.900  0.00  0.00    +0.000 N 
ATOM      4  C   UNL     1      -0.159  14.355  19.417  0.00  0.00    +0.000 C 
ATOM      5  C   UNL     1       0.708  15.506  19.942  0.00  0.00    +0.000 C 
ATOM      6  N   UNL     1       2.165  15.219  19.834  0.00  0.00    +0.000 NA
ATOM      7  C   UNL     1       2.469  13.925  20.527  0.00  0.00    +0.000 C 
ATOM      8  C   UNL     1       1.679  12.757  19.922  0.00  0.00    +0.000 C 
ENDROOT
BRANCH   2   9
ATOM      9  C   UNL     1      -2.089  12.013  19.752  0.00  0.00    +0.000 A 
ATOM     10  C   UNL     1      -2.884  12.580  20.743  0.00  0.00    +0.000 A 
ATOM     11  C   UNL     1      -4.255  12.526  20.618  0.00  0.00    +0.000 A 
ATOM     12  N   UNL     1      -4.858  12.133  19.480  0.00  0.00    +0.000 NA
ATOM     13  C   UNL     1      -4.093  11.749  18.445  0.00  0.00    +0.000 A 
ATOM     14  C   UNL     1      -4.736  11.462  17.248  0.00  0.00    +0.000 A 
ATOM     15  C   UNL     1      -4.040  11.071  16.105  0.00  0.00    +0.000 A 
ATOM     16  C   UNL     1      -2.663  10.924  16.164  0.00  0.00    +0.000 A 
ATOM     17  C   UNL     1      -1.993  11.184  17.361  0.00  0.00    +0.000 A 
ATOM     18  C   UNL     1      -2.685  11.635  18.519  0.00  0.00    +0.000 A 
BRANCH  11  19
ATOM     19  C   UNL     1      -5.152  12.857  21.734  0.00  0.00    +0.000 A 
ATOM     20  C   UNL     1      -4.847  13.052  23.065  0.00  0.00    +0.000 A 
ATOM     21  C   UNL     1      -5.995  13.354  23.855  0.00  0.00    +0.000 A 
ATOM     22  C   UNL     1      -7.142  13.421  23.097  0.00  0.00    +0.000 A 
ATOM     23  S   UNL     1      -6.832  13.120  21.445  0.00  0.00    +0.000 S 
ENDBRANCH  11  19
ENDBRANCH   2   9
BRANCH   6  24
ATOM     24  S   UNL     1       2.887  15.391  18.295  0.00  0.00    +0.000 S 
ATOM     25  O   UNL     1       2.913  14.088  17.669  0.00  0.00    +0.000 OA
ATOM     26  O   UNL     1       2.270  16.522  17.636  0.00  0.00    +0.000 OA
BRANCH  24  27
ATOM     27  C   UNL     1       4.566  15.821  18.667  0.00  0.00    +0.000 A 
ATOM     28  C   UNL     1       5.601  15.063  18.110  0.00  0.00    +0.000 A 
ATOM     29  C   UNL     1       6.928  15.424  18.350  0.00  0.00    +0.000 A 
ATOM     30  C   UNL     1       7.211  16.541  19.139  0.00  0.00    +0.000 A 
ATOM     31  C   UNL     1       6.168  17.283  19.685  0.00  0.00    +0.000 A 
ATOM     32  F   UNL     1       6.450  18.359  20.432  0.00  0.00    +0.000 F 
ATOM     33  C   UNL     1       4.841  16.936  19.462  0.00  0.00    +0.000 A 
ENDBRANCH  24  27
ENDBRANCH   6  24
TORSDOF 4
ENDMDL
