MODEL 1
REMARK VINA RESULT:      -6.5      0.000      0.000
REMARK  Name = 
REMARK  10 active torsions:
REMARK  status: ('A' for Active; 'I' for Inactive)
REMARK    1  A    between atoms: C_1  and  C_2
REMARK    2  A    between atoms: C_2  and  C_3
REMARK    3  A    between atoms: N_5  and  C_6
REMARK    4  A    between atoms: C_6  and  C_7
REMARK    5  A    between atoms: C_7  and  O_8
REMARK    6  A    between atoms: C_9  and  C_10
REMARK    7  A    between atoms: C_10  and  C_11
REMARK    8  A    between atoms: C_12  and  O_13
REMARK    9  A    between atoms: O_13  and  C_14
REMARK   10  A    between atoms: C_17  and  C_18
REMARK                            x       y       z     vdW  Elec       q    Type
REMARK                         _______ _______ _______ _____ _____    ______ ____
ROOT
ATOM      1  C   UNL     1       3.884   5.741  17.848  0.00  0.00    +0.000 A 
ATOM      2  N   UNL     1       3.796   4.490  17.372  0.00  0.00    +0.000 NA
ATOM      3  N   UNL     1       2.895   3.874  18.173  0.00  0.00    +0.000 N 
ATOM      4  C   UNL     1       2.368   4.705  19.136  0.00  0.00    +0.000 A 
ATOM      5  C   UNL     1       3.005   5.914  18.955  0.00  0.00    +0.000 A 
ENDROOT
BRANCH   1   7
ATOM      6  C   UNL     1       5.216   6.297  15.770  0.00  0.00    +0.000 C 
ATOM      7  C   UNL     1       4.835   6.703  17.194  0.00  0.00    +0.000 C 
ENDBRANCH   1   7
BRANCH   4   8
ATOM      8  C   UNL     1       1.365   4.318  20.176  0.00  0.00    +0.000 C 
ATOM      9  C   UNL     1       1.962   3.615  21.386  0.00  0.00    +0.000 C 
ENDBRANCH   4   8
BRANCH   3  10
ATOM     10  C   UNL     1       2.538   2.498  17.864  0.00  0.00    +0.000 C 
BRANCH  10  11
ATOM     11  C   UNL     1       3.433   1.441  18.508  0.00  0.00    +0.000 C 
BRANCH  11  12
ATOM     12  O   UNL     1       4.606   2.002  19.090  0.00  0.00    +0.000 OA
ATOM     13  H   UNL     1       4.994   1.315  19.664  0.00  0.00    +0.000 HD
ENDBRANCH  11  12
ENDBRANCH  10  11
ENDBRANCH   3  10
BRANCH   5  14
ATOM     14  O   UNL     1       2.763   6.947  19.796  0.00  0.00    +0.000 OA
BRANCH  14  15
ATOM     15  C   UNL     1       1.927   7.985  19.485  0.00  0.00    +0.000 A 
ATOM     16  C   UNL     1       1.780   8.473  18.188  0.00  0.00    +0.000 A 
ATOM     17  C   UNL     1       1.040   9.628  17.958  0.00  0.00    +0.000 A 
ATOM     18  C   UNL     1       0.355  10.229  19.015  0.00  0.00    +0.000 A 
ATOM     19  C   UNL     1       0.392   9.661  20.292  0.00  0.00    +0.000 A 
ATOM     20  C   UNL     1       1.188   8.542  20.528  0.00  0.00    +0.000 A 
BRANCH  18  21
ATOM     21  C   UNL     1      -0.368  11.435  18.788  0.00  0.00    +0.000 C 
ATOM     22  N   UNL     1      -0.947  12.431  18.613  0.00  0.00    +0.000 NA
ENDBRANCH  18  21
ENDBRANCH  14  15
ENDBRANCH   5  14
TORSDOF 8
ENDMDL
MODEL 2
REMARK VINA RESULT:      -6.4      2.103      3.919
REMARK  Name = 
REMARK  10 active torsions:
REMARK  status: ('A' for Active; 'I' for Inactive)
REMARK    1  A    between atoms: C_1  and  C_2
REMARK    2  A    between atoms: C_2  and  C_3
REMARK    3  A    between atoms: N_5  and  C_6
REMARK    4  A    between atoms: C_6  and  C_7
REMARK    5  A    between atoms: C_7  and  O_8
REMARK    6  A    between atoms: C_9  and  C_10
REMARK    7  A    between atoms: C_10  and  C_11
REMARK    8  A    between atoms: C_12  and  O_13
REMARK    9  A    between atoms: O_13  and  C_14
REMARK   10  A    between atoms: C_17  and  C_18
REMARK                            x       y       z     vdW  Elec       q    Type
REMARK                         _______ _______ _______ _____ _____    ______ ____
ROOT
ATOM      1  C   UNL     1       4.158   4.159  19.351  0.00  0.00    +0.000 A 
ATOM      2  N   UNL     1       5.479   3.929  19.378  0.00  0.00    +0.000 NA
ATOM      3  N   UNL     1       6.015   4.873  18.570  0.00  0.00    +0.000 N 
ATOM      4  C   UNL     1       5.077   5.734  18.045  0.00  0.00    +0.000 A 
ATOM      5  C   UNL     1       3.866   5.280  18.525  0.00  0.00    +0.000 A 
ENDROOT
BRANCH   1   7
ATOM      6  C   UNL     1       2.166   4.018  20.905  0.00  0.00    +0.000 C 
ATOM      7  C   UNL     1       3.246   3.257  20.136  0.00  0.00    +0.000 C 
ENDBRANCH   1   7
BRANCH   4   8
ATOM      8  C   UNL     1       5.352   6.866  17.108  0.00  0.00    +0.000 C 
ATOM      9  C   UNL     1       5.075   6.547  15.646  0.00  0.00    +0.000 C 
ENDBRANCH   4   8
BRANCH   3  10
ATOM     10  C   UNL     1       7.463   4.918  18.442  0.00  0.00    +0.000 C 
BRANCH  10  11
ATOM     11  C   UNL     1       8.167   5.861  19.416  0.00  0.00    +0.000 C 
BRANCH  11  12
ATOM     12  O   UNL     1       8.148   5.374  20.755  0.00  0.00    +0.000 OA
ATOM     13  H   UNL     1       8.921   5.760  21.208  0.00  0.00    +0.000 HD
ENDBRANCH  11  12
ENDBRANCH  10  11
ENDBRANCH   3  10
BRANCH   5  14
ATOM     14  O   UNL     1       2.712   5.874  18.137  0.00  0.00    +0.000 OA
BRANCH  14  15
ATOM     15  C   UNL     1       2.274   7.063  18.652  0.00  0.00    +0.000 A 
ATOM     16  C   UNL     1       2.059   7.264  20.014  0.00  0.00    +0.000 A 
ATOM     17  C   UNL     1       1.464   8.439  20.460  0.00  0.00    +0.000 A 
ATOM     18  C   UNL     1       1.187   9.460  19.549  0.00  0.00    +0.000 A 
ATOM     19  C   UNL     1       1.527   9.313  18.202  0.00  0.00    +0.000 A 
ATOM     20  C   UNL     1       2.063   8.107  17.751  0.00  0.00    +0.000 A 
BRANCH  18  21
ATOM     21  C   UNL     1       0.538  10.645  19.999  0.00  0.00    +0.000 C 
ATOM     22  N   UNL     1      -0.008  11.606  20.368  0.00  0.00    +0.000 NA
ENDBRANCH  18  21
ENDBRANCH  14  15
ENDBRANCH   5  14
TORSDOF 8
ENDMDL
MODEL 3
REMARK VINA RESULT:      -6.4      0.347      1.109
REMARK  Name = 
REMARK  10 active torsions:
REMARK  status: ('A' for Active; 'I' for Inactive)
REMARK    1  A    between atoms: C_1  and  C_2
REMARK    2  A    between atoms: C_2  and  C_3
REMARK    3  A    between atoms: N_5  and  C_6
REMARK    4  A    between atoms: C_6  and  C_7
REMARK    5  A    between atoms: C_7  and  O_8
REMARK    6  A    between atoms: C_9  and  C_10
REMARK    7  A    between atoms: C_10  and  C_11
REMARK    8  A    between atoms: C_12  and  O_13
REMARK    9  A    between atoms: O_13  and  C_14
REMARK   10  A    between atoms: C_17  and  C_18
REMARK                            x       y       z     vdW  Elec       q    Type
REMARK                         _______ _______ _______ _____ _____    ______ ____
ROOT
ATOM      1  C   UNL     1       3.740   5.802  17.922  0.00  0.00    +0.000 A 
ATOM      2  N   UNL     1       3.613   4.554  17.448  0.00  0.00    +0.000 NA
ATOM      3  N   UNL     1       2.732   3.952  18.281  0.00  0.00    +0.000 N 
ATOM      4  C   UNL     1       2.255   4.790  19.264  0.00  0.00    +0.000 A 
ATOM      5  C   UNL     1       2.906   5.988  19.060  0.00  0.00    +0.000 A 
ENDROOT
BRANCH   1   7
ATOM      6  C   UNL     1       5.160   6.239  15.874  0.00  0.00    +0.000 C 
ATOM      7  C   UNL     1       4.683   6.749  17.234  0.00  0.00    +0.000 C 
ENDBRANCH   1   7
BRANCH   4   8
ATOM      8  C   UNL     1       1.286   4.418  20.340  0.00  0.00    +0.000 C 
ATOM      9  C   UNL     1       1.881   3.561  21.447  0.00  0.00    +0.000 C 
ENDBRANCH   4   8
BRANCH   3  10
ATOM     10  C   UNL     1       2.340   2.583  17.984  0.00  0.00    +0.000 C 
BRANCH  10  11
ATOM     11  C   UNL     1       3.445   1.543  18.165  0.00  0.00    +0.000 C 
BRANCH  11  12
ATOM     12  O   UNL     1       4.433   1.956  19.105  0.00  0.00    +0.000 OA
ATOM     13  H   UNL     1       5.192   1.353  19.003  0.00  0.00    +0.000 HD
ENDBRANCH  11  12
ENDBRANCH  10  11
ENDBRANCH   3  10
BRANCH   5  14
ATOM     14  O   UNL     1       2.713   7.024  19.912  0.00  0.00    +0.000 OA
BRANCH  14  15
ATOM     15  C   UNL     1       1.881   8.075  19.634  0.00  0.00    +0.000 A 
ATOM     16  C   UNL     1       1.089   8.687  20.602  0.00  0.00    +0.000 A 
ATOM     17  C   UNL     1       0.149   9.643  20.231  0.00  0.00    +0.000 A 
ATOM     18  C   UNL     1       0.083  10.064  18.901  0.00  0.00    +0.000 A 
ATOM     19  C   UNL     1       0.971   9.547  17.954  0.00  0.00    +0.000 A 
ATOM     20  C   UNL     1       1.866   8.543  18.320  0.00  0.00    +0.000 A 
BRANCH  18  21
ATOM     21  C   UNL     1      -0.908  11.010  18.513  0.00  0.00    +0.000 C 
ATOM     22  N   UNL     1      -1.720  11.790  18.213  0.00  0.00    +0.000 NA
ENDBRANCH  18  21
ENDBRANCH  14  15
ENDBRANCH   5  14
TORSDOF 8
ENDMDL
MODEL 4
REMARK VINA RESULT:      -6.4      3.623      5.956
REMARK  Name = 
REMARK  10 active torsions:
REMARK  status: ('A' for Active; 'I' for Inactive)
REMARK    1  A    between atoms: C_1  and  C_2
REMARK    2  A    between atoms: C_2  and  C_3
REMARK    3  A    between atoms: N_5  and  C_6
REMARK    4  A    between atoms: C_6  and  C_7
REMARK    5  A    between atoms: C_7  and  O_8
REMARK    6  A    between atoms: C_9  and  C_10
REMARK    7  A    between atoms: C_10  and  C_11
REMARK    8  A    between atoms: C_12  and  O_13
REMARK    9  A    between atoms: O_13  and  C_14
REMARK   10  A    between atoms: C_17  and  C_18
REMARK                            x       y       z     vdW  Elec       q    Type
REMARK                         _______ _______ _______ _____ _____    ______ ____
ROOT
ATOM      1  C   UNL     1       6.131   4.805  15.464  0.00  0.00    +0.000 A 
ATOM      2  N   UNL     1       7.044   5.729  15.797  0.00  0.00    +0.000 NA
ATOM      3  N   UNL     1       6.465   6.454  16.783  0.00  0.00    +0.000 N 
ATOM      4  C   UNL     1       5.211   6.001  17.124  0.00  0.00    +0.000 A 
ATOM      5  C   UNL     1       4.968   4.943  16.272  0.00  0.00    +0.000 A 
ENDROOT
BRANCH   1   7
ATOM      6  C   UNL     1       5.445   3.887  13.208  0.00  0.00    +0.000 C 
ATOM      7  C   UNL     1       6.448   3.834  14.361  0.00  0.00    +0.000 C 
ENDBRANCH   1   7
BRANCH   4   8
ATOM      8  C   UNL     1       4.313   6.598  18.160  0.00  0.00    +0.000 C 
ATOM      9  C   UNL     1       3.304   7.595  17.611  0.00  0.00    +0.000 C 
ENDBRANCH   4   8
BRANCH   3  10
ATOM     10  C   UNL     1       7.248   7.514  17.400  0.00  0.00    +0.000 C 
BRANCH  10  11
ATOM     11  C   UNL     1       8.085   7.080  18.602  0.00  0.00    +0.000 C 
BRANCH  11  12
ATOM     12  O   UNL     1       8.015   5.676  18.836  0.00  0.00    +0.000 OA
ATOM     13  H   UNL     1       7.070   5.436  18.847  0.00  0.00    +0.000 HD
ENDBRANCH  11  12
ENDBRANCH  10  11
ENDBRANCH   3  10
BRANCH   5  14
ATOM     14  O   UNL     1       3.773   4.306  16.298  0.00  0.00    +0.000 OA
BRANCH  14  15
ATOM     15  C   UNL     1       3.198   3.842  17.449  0.00  0.00    +0.000 A 
ATOM     16  C   UNL     1       1.883   4.131  17.807  0.00  0.00    +0.000 A 
ATOM     17  C   UNL     1       1.405   3.765  19.061  0.00  0.00    +0.000 A 
ATOM     18  C   UNL     1       2.213   3.011  19.913  0.00  0.00    +0.000 A 
ATOM     19  C   UNL     1       3.485   2.604  19.499  0.00  0.00    +0.000 A 
ATOM     20  C   UNL     1       3.982   3.030  18.268  0.00  0.00    +0.000 A 
BRANCH  18  21
ATOM     21  C   UNL     1       1.740   2.673  21.213  0.00  0.00    +0.000 C 
ATOM     22  N   UNL     1       1.353   2.379  22.272  0.00  0.00    +0.000 NA
ENDBRANCH  18  21
ENDBRANCH  14  15
ENDBRANCH   5  14
TORSDOF 8
ENDMDL
MODEL 5
REMARK VINA RESULT:      -6.3      2.676      5.885
REMARK  Name = 
REMARK  10 active torsions:
REMARK  status: ('A' for Active; 'I' for Inactive)
REMARK    1  A    between atoms: C_1  and  C_2
REMARK    2  A    between atoms: C_2  and  C_3
REMARK    3  A    between atoms: N_5  and  C_6
REMARK    4  A    between atoms: C_6  and  C_7
REMARK    5  A    between atoms: C_7  and  O_8
REMARK    6  A    between atoms: C_9  and  C_10
REMARK    7  A    between atoms: C_10  and  C_11
REMARK    8  A    between atoms: C_12  and  O_13
REMARK    9  A    between atoms: O_13  and  C_14
REMARK   10  A    between atoms: C_17  and  C_18
REMARK                            x       y       z     vdW  Elec       q    Type
REMARK                         _______ _______ _______ _____ _____    ______ ____
ROOT
ATOM      1  C   UNL     1       2.603   6.081  19.548  0.00  0.00    +0.000 A 
ATOM      2  N   UNL     1       1.565   5.295  19.868  0.00  0.00    +0.000 NA
ATOM      3  N   UNL     1       2.059   4.035  19.838  0.00  0.00    +0.000 N 
ATOM      4  C   UNL     1       3.403   3.985  19.542  0.00  0.00    +0.000 A 
ATOM      5  C   UNL     1       3.773   5.298  19.335  0.00  0.00    +0.000 A 
ENDROOT
BRANCH   1   7
ATOM      6  C   UNL     1       2.216   8.067  18.028  0.00  0.00    +0.000 C 
ATOM      7  C   UNL     1       2.391   7.567  19.463  0.00  0.00    +0.000 C 
ENDBRANCH   1   7
BRANCH   4   8
ATOM      8  C   UNL     1       4.230   2.746  19.419  0.00  0.00    +0.000 C 
ATOM      9  C   UNL     1       3.886   1.883  18.214  0.00  0.00    +0.000 C 
ENDBRANCH   4   8
BRANCH   3  10
ATOM     10  C   UNL     1       1.168   2.945  20.205  0.00  0.00    +0.000 C 
BRANCH  10  11
ATOM     11  C   UNL     1       1.323   2.441  21.639  0.00  0.00    +0.000 C 
BRANCH  11  12
ATOM     12  O   UNL     1       2.195   3.261  22.413  0.00  0.00    +0.000 OA
ATOM     13  H   UNL     1       1.645   3.955  22.820  0.00  0.00    +0.000 HD
ENDBRANCH  11  12
ENDBRANCH  10  11
ENDBRANCH   3  10
BRANCH   5  14
ATOM     14  O   UNL     1       5.036   5.600  18.952  0.00  0.00    +0.000 OA
BRANCH  14  15
ATOM     15  C   UNL     1       5.525   5.324  17.704  0.00  0.00    +0.000 A 
ATOM     16  C   UNL     1       6.682   4.578  17.494  0.00  0.00    +0.000 A 
ATOM     17  C   UNL     1       7.215   4.464  16.214  0.00  0.00    +0.000 A 
ATOM     18  C   UNL     1       6.524   5.007  15.129  0.00  0.00    +0.000 A 
ATOM     19  C   UNL     1       5.292   5.638  15.324  0.00  0.00    +0.000 A 
ATOM     20  C   UNL     1       4.797   5.805  16.616  0.00  0.00    +0.000 A 
BRANCH  18  21
ATOM     21  C   UNL     1       7.091   4.928  13.826  0.00  0.00    +0.000 C 
ATOM     22  N   UNL     1       7.572   4.869  12.765  0.00  0.00    +0.000 NA
ENDBRANCH  18  21
ENDBRANCH  14  15
ENDBRANCH   5  14
TORSDOF 8
ENDMDL
MODEL 6
REMARK VINA RESULT:      -6.3      2.108      3.695
REMARK  Name = 
REMARK  10 active torsions:
REMARK  status: ('A' for Active; 'I' for Inactive)
REMARK    1  A    between atoms: C_1  and  C_2
REMARK    2  A    between atoms: C_2  and  C_3
REMARK    3  A    between atoms: N_5  and  C_6
REMARK    4  A    between atoms: C_6  and  C_7
REMARK    5  A    between atoms: C_7  and  O_8
REMARK    6  A    between atoms: C_9  and  C_10
REMARK    7  A    between atoms: C_10  and  C_11
REMARK    8  A    between atoms: C_12  and  O_13
REMARK    9  A    between atoms: O_13  and  C_14
REMARK   10  A    between atoms: C_17  and  C_18
REMARK                            x       y       z     vdW  Elec       q    Type
REMARK                         _______ _______ _______ _____ _____    ______ ____
ROOT
ATOM      1  C   UNL     1       3.880   4.107  17.195  0.00  0.00    +0.000 A 
ATOM      2  N   UNL     1       4.769   3.798  16.239  0.00  0.00    +0.000 NA
ATOM      3  N   UNL     1       5.834   4.597  16.480  0.00  0.00    +0.000 N 
ATOM      4  C   UNL     1       5.674   5.393  17.592  0.00  0.00    +0.000 A 
ATOM      5  C   UNL     1       4.410   5.103  18.061  0.00  0.00    +0.000 A 
ENDROOT
BRANCH   1   7
ATOM      6  C   UNL     1       2.525   2.173  18.105  0.00  0.00    +0.000 C 
ATOM      7  C   UNL     1       2.550   3.408  17.204  0.00  0.00    +0.000 C 
ENDBRANCH   1   7
BRANCH   4   8
ATOM      8  C   UNL     1       6.662   6.391  18.107  0.00  0.00    +0.000 C 
ATOM      9  C   UNL     1       7.655   5.823  19.110  0.00  0.00    +0.000 C 
ENDBRANCH   4   8
BRANCH   3  10
ATOM     10  C   UNL     1       7.004   4.448  15.628  0.00  0.00    +0.000 C 
BRANCH  10  11
ATOM     11  C   UNL     1       6.724   4.526  14.129  0.00  0.00    +0.000 C 
BRANCH  11  12
ATOM     12  O   UNL     1       6.260   3.289  13.596  0.00  0.00    +0.000 OA
ATOM     13  H   UNL     1       6.576   2.586  14.193  0.00  0.00    +0.000 HD
ENDBRANCH  11  12
ENDBRANCH  10  11
ENDBRANCH   3  10
BRANCH   5  14
ATOM     14  O   UNL     1       3.905   5.776  19.123  0.00  0.00    +0.000 OA
BRANCH  14  15
ATOM     15  C   UNL     1       3.053   6.839  18.998  0.00  0.00    +0.000 A 
ATOM     16  C   UNL     1       2.957   7.596  17.832  0.00  0.00    +0.000 A 
ATOM     17  C   UNL     1       2.192   8.758  17.817  0.00  0.00    +0.000 A 
ATOM     18  C   UNL     1       1.435   9.099  18.939  0.00  0.00    +0.000 A 
ATOM     19  C   UNL     1       1.425   8.266  20.062  0.00  0.00    +0.000 A 
ATOM     20  C   UNL     1       2.244   7.139  20.094  0.00  0.00    +0.000 A 
BRANCH  18  21
ATOM     21  C   UNL     1       0.686  10.310  18.939  0.00  0.00    +0.000 C 
ATOM     22  N   UNL     1       0.068  11.298  18.922  0.00  0.00    +0.000 NA
ENDBRANCH  18  21
ENDBRANCH  14  15
ENDBRANCH   5  14
TORSDOF 8
ENDMDL
MODEL 7
REMARK VINA RESULT:      -6.3      1.861      3.286
REMARK  Name = 
REMARK  10 active torsions:
REMARK  status: ('A' for Active; 'I' for Inactive)
REMARK    1  A    between atoms: C_1  and  C_2
REMARK    2  A    between atoms: C_2  and  C_3
REMARK    3  A    between atoms: N_5  and  C_6
REMARK    4  A    between atoms: C_6  and  C_7
REMARK    5  A    between atoms: C_7  and  O_8
REMARK    6  A    between atoms: C_9  and  C_10
REMARK    7  A    between atoms: C_10  and  C_11
REMARK    8  A    between atoms: C_12  and  O_13
REMARK    9  A    between atoms: O_13  and  C_14
REMARK   10  A    between atoms: C_17  and  C_18
REMARK                            x       y       z     vdW  Elec       q    Type
REMARK                         _______ _______ _______ _____ _____    ______ ____
ROOT
ATOM      1  C   UNL     1       2.739   4.273  17.961  0.00  0.00    +0.000 A 
ATOM      2  N   UNL     1       3.422   3.619  17.010  0.00  0.00    +0.000 NA
ATOM      3  N   UNL     1       4.624   4.238  16.954  0.00  0.00    +0.000 N 
ATOM      4  C   UNL     1       4.754   5.256  17.872  0.00  0.00    +0.000 A 
ATOM      5  C   UNL     1       3.539   5.307  18.524  0.00  0.00    +0.000 A 
ENDROOT
BRANCH   1   7
ATOM      6  C   UNL     1       1.071   3.648  19.758  0.00  0.00    +0.000 C 
ATOM      7  C   UNL     1       1.329   3.852  18.265  0.00  0.00    +0.000 C 
ENDBRANCH   1   7
BRANCH   4   8
ATOM      8  C   UNL     1       5.951   6.134  18.046  0.00  0.00    +0.000 C 
ATOM      9  C   UNL     1       7.002   5.575  18.993  0.00  0.00    +0.000 C 
ENDBRANCH   4   8
BRANCH   3  10
ATOM     10  C   UNL     1       5.623   3.706  16.039  0.00  0.00    +0.000 C 
BRANCH  10  11
ATOM     11  C   UNL     1       5.631   4.346  14.653  0.00  0.00    +0.000 C 
BRANCH  11  12
ATOM     12  O   UNL     1       6.237   3.510  13.670  0.00  0.00    +0.000 OA
ATOM     13  H   UNL     1       6.153   3.971  12.815  0.00  0.00    +0.000 HD
ENDBRANCH  11  12
ENDBRANCH  10  11
ENDBRANCH   3  10
BRANCH   5  14
ATOM     14  O   UNL     1       3.305   6.261  19.457  0.00  0.00    +0.000 OA
BRANCH  14  15
ATOM     15  C   UNL     1       2.501   7.345  19.231  0.00  0.00    +0.000 A 
ATOM     16  C   UNL     1       2.392   7.958  17.985  0.00  0.00    +0.000 A 
ATOM     17  C   UNL     1       1.685   9.149  17.853  0.00  0.00    +0.000 A 
ATOM     18  C   UNL     1       0.993   9.664  18.951  0.00  0.00    +0.000 A 
ATOM     19  C   UNL     1       0.990   8.976  20.168  0.00  0.00    +0.000 A 
ATOM     20  C   UNL     1       1.754   7.819  20.310  0.00  0.00    +0.000 A 
BRANCH  18  21
ATOM     21  C   UNL     1       0.305  10.904  18.827  0.00  0.00    +0.000 C 
ATOM     22  N   UNL     1      -0.263  11.919  18.744  0.00  0.00    +0.000 NA
ENDBRANCH  18  21
ENDBRANCH  14  15
ENDBRANCH   5  14
TORSDOF 8
ENDMDL
MODEL 8
REMARK VINA RESULT:      -6.3      2.668      5.998
REMARK  Name = 
REMARK  10 active torsions:
REMARK  status: ('A' for Active; 'I' for Inactive)
REMARK    1  A    between atoms: C_1  and  C_2
REMARK    2  A    between atoms: C_2  and  C_3
REMARK    3  A    between atoms: N_5  and  C_6
REMARK    4  A    between atoms: C_6  and  C_7
REMARK    5  A    between atoms: C_7  and  O_8
REMARK    6  A    between atoms: C_9  and  C_10
REMARK    7  A    between atoms: C_10  and  C_11
REMARK    8  A    between atoms: C_12  and  O_13
REMARK    9  A    between atoms: O_13  and  C_14
REMARK   10  A    between atoms: C_17  and  C_18
REMARK                            x       y       z     vdW  Elec       q    Type
REMARK                         _______ _______ _______ _____ _____    ______ ____
ROOT
ATOM      1  C   UNL     1       2.652   6.065  19.581  0.00  0.00    +0.000 A 
ATOM      2  N   UNL     1       1.622   5.284  19.938  0.00  0.00    +0.000 NA
ATOM      3  N   UNL     1       2.103   4.021  19.874  0.00  0.00    +0.000 N 
ATOM      4  C   UNL     1       3.432   3.963  19.519  0.00  0.00    +0.000 A 
ATOM      5  C   UNL     1       3.804   5.274  19.309  0.00  0.00    +0.000 A 
ENDROOT
BRANCH   1   7
ATOM      6  C   UNL     1       1.535   8.082  20.624  0.00  0.00    +0.000 C 
ATOM      7  C   UNL     1       2.450   7.553  19.519  0.00  0.00    +0.000 C 
ENDBRANCH   1   7
BRANCH   4   8
ATOM      8  C   UNL     1       4.242   2.718  19.348  0.00  0.00    +0.000 C 
ATOM      9  C   UNL     1       3.857   1.885  18.135  0.00  0.00    +0.000 C 
ENDBRANCH   4   8
BRANCH   3  10
ATOM     10  C   UNL     1       1.219   2.935  20.269  0.00  0.00    +0.000 C 
BRANCH  10  11
ATOM     11  C   UNL     1       1.422   2.425  21.694  0.00  0.00    +0.000 C 
BRANCH  11  12
ATOM     12  O   UNL     1       2.296   3.258  22.452  0.00  0.00    +0.000 OA
ATOM     13  H   UNL     1       2.568   2.745  23.236  0.00  0.00    +0.000 HD
ENDBRANCH  11  12
ENDBRANCH  10  11
ENDBRANCH   3  10
BRANCH   5  14
ATOM     14  O   UNL     1       5.053   5.569  18.874  0.00  0.00    +0.000 OA
BRANCH  14  15
ATOM     15  C   UNL     1       5.461   5.368  17.584  0.00  0.00    +0.000 A 
ATOM     16  C   UNL     1       4.868   6.006  16.496  0.00  0.00    +0.000 A 
ATOM     17  C   UNL     1       5.219   5.644  15.200  0.00  0.00    +0.000 A 
ATOM     18  C   UNL     1       6.246   4.720  14.997  0.00  0.00    +0.000 A 
ATOM     19  C   UNL     1       6.934   4.181  16.088  0.00  0.00    +0.000 A 
ATOM     20  C   UNL     1       6.534   4.499  17.384  0.00  0.00    +0.000 A 
BRANCH  18  21
ATOM     21  C   UNL     1       6.576   4.317  13.672  0.00  0.00    +0.000 C 
ATOM     22  N   UNL     1       6.845   3.969  12.592  0.00  0.00    +0.000 NA
ENDBRANCH  18  21
ENDBRANCH  14  15
ENDBRANCH   5  14
TORSDOF 8
ENDMDL
MODEL 9
REMARK VINA RESULT:      -6.3      2.212      3.909
REMARK  Name = 
REMARK  10 active torsions:
REMARK  status: ('A' for Active; 'I' for Inactive)
REMARK    1  A    between atoms: C_1  and  C_2
REMARK    2  A    between atoms: C_2  and  C_3
REMARK    3  A    between atoms: N_5  and  C_6
REMARK    4  A    between atoms: C_6  and  C_7
REMARK    5  A    between atoms: C_7  and  O_8
REMARK    6  A    between atoms: C_9  and  C_10
REMARK    7  A    between atoms: C_10  and  C_11
REMARK    8  A    between atoms: C_12  and  O_13
REMARK    9  A    between atoms: O_13  and  C_14
REMARK   10  A    between atoms: C_17  and  C_18
REMARK                            x       y       z     vdW  Elec       q    Type
REMARK                         _______ _______ _______ _____ _____    ______ ____
ROOT
ATOM      1  C   UNL     1       4.203   4.252  19.227  0.00  0.00    +0.000 A 
ATOM      2  N   UNL     1       5.525   4.028  19.226  0.00  0.00    +0.000 NA
ATOM      3  N   UNL     1       6.036   4.953  18.380  0.00  0.00    +0.000 N 
ATOM      4  C   UNL     1       5.082   5.797  17.859  0.00  0.00    +0.000 A 
ATOM      5  C   UNL     1       3.885   5.352  18.381  0.00  0.00    +0.000 A 
ENDROOT
BRANCH   1   7
ATOM      6  C   UNL     1       4.033   2.129  20.593  0.00  0.00    +0.000 C 
ATOM      7  C   UNL     1       3.315   3.368  20.056  0.00  0.00    +0.000 C 
ENDBRANCH   1   7
BRANCH   4   8
ATOM      8  C   UNL     1       5.328   6.907  16.888  0.00  0.00    +0.000 C 
ATOM      9  C   UNL     1       5.253   6.487  15.428  0.00  0.00    +0.000 C 
ENDBRANCH   4   8
BRANCH   3  10
ATOM     10  C   UNL     1       7.481   5.000  18.214  0.00  0.00    +0.000 C 
BRANCH  10  11
ATOM     11  C   UNL     1       8.222   5.840  19.252  0.00  0.00    +0.000 C 
BRANCH  11  12
ATOM     12  O   UNL     1       7.968   5.406  20.586  0.00  0.00    +0.000 OA
ATOM     13  H   UNL     1       8.538   5.939  21.171  0.00  0.00    +0.000 HD
ENDBRANCH  11  12
ENDBRANCH  10  11
ENDBRANCH   3  10
BRANCH   5  14
ATOM     14  O   UNL     1       2.719   5.932  18.008  0.00  0.00    +0.000 OA
BRANCH  14  15
ATOM     15  C   UNL     1       2.183   7.014  18.653  0.00  0.00    +0.000 A 
ATOM     16  C   UNL     1       1.852   8.197  17.997  0.00  0.00    +0.000 A 
ATOM     17  C   UNL     1       1.460   9.314  18.728  0.00  0.00    +0.000 A 
ATOM     18  C   UNL     1       1.292   9.208  20.110  0.00  0.00    +0.000 A 
ATOM     19  C   UNL     1       1.493   7.983  20.752  0.00  0.00    +0.000 A 
ATOM     20  C   UNL     1       1.949   6.885  20.022  0.00  0.00    +0.000 A 
BRANCH  18  21
ATOM     21  C   UNL     1       0.933  10.361  20.863  0.00  0.00    +0.000 C 
ATOM     22  N   UNL     1       0.637  11.295  21.495  0.00  0.00    +0.000 NA
ENDBRANCH  18  21
ENDBRANCH  14  15
ENDBRANCH   5  14
TORSDOF 8
ENDMDL
