MODEL 1
REMARK VINA RESULT:      -7.7      0.000      0.000
REMARK  Name = 
REMARK  5 active torsions:
REMARK  status: ('A' for Active; 'I' for Inactive)
REMARK    1  A    between atoms: C_2  and  C_3
REMARK    2  A    between atoms: C_3  and  S_4
REMARK    3  A    between atoms: S_4  and  C_5
REMARK    4  A    between atoms: C_18  and  O_19
REMARK    5  A    between atoms: O_19  and  C_20
REMARK                            x       y       z     vdW  Elec       q    Type
REMARK                         _______ _______ _______ _____ _____    ______ ____
ROOT
ATOM      1  C   UNL     1       2.846   5.132  19.656  0.00  0.00    +0.000 A 
ATOM      2  N   UNL     1       3.459   4.340  18.760  0.00  0.00    +0.000 NA
ATOM      3  C   UNL     1       3.951   4.881  17.630  0.00  0.00    +0.000 A 
ATOM      4  C   UNL     1       4.648   4.024  16.811  0.00  0.00    +0.000 A 
ATOM      5  C   UNL     1       5.623   4.518  15.959  0.00  0.00    +0.000 A 
ATOM      6  C   UNL     1       5.663   5.881  15.691  0.00  0.00    +0.000 A 
ATOM      7  C   UNL     1       4.706   6.727  16.261  0.00  0.00    +0.000 A 
ATOM      8  C   UNL     1       3.900   6.249  17.321  0.00  0.00    +0.000 A 
ATOM      9  C   UNL     1       3.035   6.976  18.152  0.00  0.00    +0.000 A 
ATOM     10  C   UNL     1       2.507   6.437  19.335  0.00  0.00    +0.000 A 
ATOM     11  C   UNL     1       1.688   7.420  20.011  0.00  0.00    +0.000 A 
ATOM     12  C   UNL     1       0.910   7.312  21.148  0.00  0.00    +0.000 A 
ATOM     13  C   UNL     1       0.194   8.424  21.577  0.00  0.00    +0.000 A 
ATOM     14  C   UNL     1       0.230   9.638  20.871  0.00  0.00    +0.000 A 
ATOM     15  C   UNL     1       0.981   9.746  19.694  0.00  0.00    +0.000 A 
ATOM     16  C   UNL     1       1.698   8.622  19.288  0.00  0.00    +0.000 A 
ATOM     17  C   UNL     1       2.553   8.391  18.085  0.00  0.00    +0.000 C 
ATOM     18  O   UNL     1       2.769   9.194  17.201  0.00  0.00    +0.000 OA
ENDROOT
BRANCH  14  19
ATOM     19  O   UNL     1      -0.536  10.596  21.470  0.00  0.00    +0.000 OA
ATOM     20  C   UNL     1      -0.761  10.502  22.864  0.00  0.00    +0.000 C 
ENDBRANCH  14  19
BRANCH   1  21
ATOM     21  S   UNL     1       2.656   4.441  21.298  0.00  0.00    +0.000 S 
BRANCH  21  22
ATOM     22  C   UNL     1       1.981   2.789  20.912  0.00  0.00    +0.000 C 
BRANCH  22  24
ATOM     23  C   UNL     1       0.633   2.373  18.826  0.00  0.00    +0.000 C 
ATOM     24  C   UNL     1       0.784   2.967  20.018  0.00  0.00    +0.000 C 
ENDBRANCH  22  24
ENDBRANCH  21  22
ENDBRANCH   1  21
TORSDOF 4
ENDMDL
MODEL 2
REMARK VINA RESULT:      -7.5      1.734      5.863
REMARK  Name = 
REMARK  5 active torsions:
REMARK  status: ('A' for Active; 'I' for Inactive)
REMARK    1  A    between atoms: C_2  and  C_3
REMARK    2  A    between atoms: C_3  and  S_4
REMARK    3  A    between atoms: S_4  and  C_5
REMARK    4  A    between atoms: C_18  and  O_19
REMARK    5  A    between atoms: O_19  and  C_20
REMARK                            x       y       z     vdW  Elec       q    Type
REMARK                         _______ _______ _______ _____ _____    ______ ____
ROOT
ATOM      1  C   UNL     1       2.246   5.825  20.478  0.00  0.00    +0.000 A 
ATOM      2  N   UNL     1       1.543   6.645  21.276  0.00  0.00    +0.000 NA
ATOM      3  C   UNL     1       1.218   7.875  20.836  0.00  0.00    +0.000 A 
ATOM      4  C   UNL     1       0.415   8.616  21.672  0.00  0.00    +0.000 A 
ATOM      5  C   UNL     1      -0.405   9.602  21.149  0.00  0.00    +0.000 A 
ATOM      6  C   UNL     1      -0.176  10.063  19.858  0.00  0.00    +0.000 A 
ATOM      7  C   UNL     1       0.892   9.546  19.118  0.00  0.00    +0.000 A 
ATOM      8  C   UNL     1       1.540   8.369  19.563  0.00  0.00    +0.000 A 
ATOM      9  C   UNL     1       2.483   7.585  18.882  0.00  0.00    +0.000 A 
ATOM     10  C   UNL     1       2.840   6.300  19.318  0.00  0.00    +0.000 A 
ATOM     11  C   UNL     1       3.793   5.708  18.405  0.00  0.00    +0.000 A 
ATOM     12  C   UNL     1       4.479   4.510  18.474  0.00  0.00    +0.000 A 
ATOM     13  C   UNL     1       5.368   4.188  17.454  0.00  0.00    +0.000 A 
ATOM     14  C   UNL     1       5.595   5.060  16.376  0.00  0.00    +0.000 A 
ATOM     15  C   UNL     1       4.938   6.295  16.318  0.00  0.00    +0.000 A 
ATOM     16  C   UNL     1       4.044   6.592  17.345  0.00  0.00    +0.000 A 
ATOM     17  C   UNL     1       3.223   7.814  17.603  0.00  0.00    +0.000 C 
ATOM     18  O   UNL     1       3.207   8.816  16.920  0.00  0.00    +0.000 OA
ENDROOT
BRANCH  14  19
ATOM     19  O   UNL     1       6.495   4.545  15.489  0.00  0.00    +0.000 OA
ATOM     20  C   UNL     1       6.014   4.055  14.252  0.00  0.00    +0.000 C 
ENDBRANCH  14  19
BRANCH   1  21
ATOM     21  S   UNL     1       2.220   4.092  20.931  0.00  0.00    +0.000 S 
BRANCH  21  22
ATOM     22  C   UNL     1       0.693   3.530  20.102  0.00  0.00    +0.000 C 
BRANCH  22  24
ATOM     23  C   UNL     1       2.132   1.910  18.818  0.00  0.00    +0.000 C 
ATOM     24  C   UNL     1       1.085   2.744  18.879  0.00  0.00    +0.000 C 
ENDBRANCH  22  24
ENDBRANCH  21  22
ENDBRANCH   1  21
TORSDOF 4
ENDMDL
MODEL 3
REMARK VINA RESULT:      -7.3      3.905      6.510
REMARK  Name = 
REMARK  5 active torsions:
REMARK  status: ('A' for Active; 'I' for Inactive)
REMARK    1  A    between atoms: C_2  and  C_3
REMARK    2  A    between atoms: C_3  and  S_4
REMARK    3  A    between atoms: S_4  and  C_5
REMARK    4  A    between atoms: C_18  and  O_19
REMARK    5  A    between atoms: O_19  and  C_20
REMARK                            x       y       z     vdW  Elec       q    Type
REMARK                         _______ _______ _______ _____ _____    ______ ____
ROOT
ATOM      1  C   UNL     1      -0.755  11.005  18.831  0.00  0.00    +0.000 A 
ATOM      2  N   UNL     1       0.220  10.309  18.223  0.00  0.00    +0.000 NA
ATOM      3  C   UNL     1       0.994   9.484  18.953  0.00  0.00    +0.000 A 
ATOM      4  C   UNL     1       1.903   8.735  18.243  0.00  0.00    +0.000 A 
ATOM      5  C   UNL     1       2.344   7.521  18.748  0.00  0.00    +0.000 A 
ATOM      6  C   UNL     1       2.135   7.227  20.089  0.00  0.00    +0.000 A 
ATOM      7  C   UNL     1       1.508   8.165  20.915  0.00  0.00    +0.000 A 
ATOM      8  C   UNL     1       0.837   9.266  20.330  0.00  0.00    +0.000 A 
ATOM      9  C   UNL     1      -0.009  10.197  20.950  0.00  0.00    +0.000 A 
ATOM     10  C   UNL     1      -0.826  11.070  20.214  0.00  0.00    +0.000 A 
ATOM     11  C   UNL     1      -1.621  11.883  21.107  0.00  0.00    +0.000 A 
ATOM     12  C   UNL     1      -2.491  12.924  20.840  0.00  0.00    +0.000 A 
ATOM     13  C   UNL     1      -3.120  13.560  21.904  0.00  0.00    +0.000 A 
ATOM     14  C   UNL     1      -2.875  13.182  23.234  0.00  0.00    +0.000 A 
ATOM     15  C   UNL     1      -1.963  12.158  23.520  0.00  0.00    +0.000 A 
ATOM     16  C   UNL     1      -1.352  11.528  22.437  0.00  0.00    +0.000 A 
ATOM     17  C   UNL     1      -0.323  10.445  22.391  0.00  0.00    +0.000 C 
ATOM     18  O   UNL     1       0.188   9.909  23.352  0.00  0.00    +0.000 OA
ENDROOT
BRANCH  14  19
ATOM     19  O   UNL     1      -3.601  13.930  24.116  0.00  0.00    +0.000 OA
ATOM     20  C   UNL     1      -2.918  14.878  24.914  0.00  0.00    +0.000 C 
ENDBRANCH  14  19
BRANCH   1  21
ATOM     21  S   UNL     1      -2.009  11.687  17.749  0.00  0.00    +0.000 S 
BRANCH  21  22
ATOM     22  C   UNL     1      -2.961  10.188  17.319  0.00  0.00    +0.000 C 
BRANCH  22  24
ATOM     23  C   UNL     1      -3.223  10.255  14.815  0.00  0.00    +0.000 C 
ATOM     24  C   UNL     1      -2.605   9.793  15.911  0.00  0.00    +0.000 C 
ENDBRANCH  22  24
ENDBRANCH  21  22
ENDBRANCH   1  21
TORSDOF 4
ENDMDL
MODEL 4
REMARK VINA RESULT:      -7.1      1.194      1.626
REMARK  Name = 
REMARK  5 active torsions:
REMARK  status: ('A' for Active; 'I' for Inactive)
REMARK    1  A    between atoms: C_2  and  C_3
REMARK    2  A    between atoms: C_3  and  S_4
REMARK    3  A    between atoms: S_4  and  C_5
REMARK    4  A    between atoms: C_18  and  O_19
REMARK    5  A    between atoms: O_19  and  C_20
REMARK                            x       y       z     vdW  Elec       q    Type
REMARK                         _______ _______ _______ _____ _____    ______ ____
ROOT
ATOM      1  C   UNL     1       3.887   3.939  18.661  0.00  0.00    +0.000 A 
ATOM      2  N   UNL     1       4.484   3.339  17.618  0.00  0.00    +0.000 NA
ATOM      3  C   UNL     1       4.879   4.081  16.567  0.00  0.00    +0.000 A 
ATOM      4  C   UNL     1       5.568   3.408  15.586  0.00  0.00    +0.000 A 
ATOM      5  C   UNL     1       6.463   4.090  14.776  0.00  0.00    +0.000 A 
ATOM      6  C   UNL     1       6.416   5.478  14.731  0.00  0.00    +0.000 A 
ATOM      7  C   UNL     1       5.454   6.163  15.478  0.00  0.00    +0.000 A 
ATOM      8  C   UNL     1       4.738   5.475  16.487  0.00  0.00    +0.000 A 
ATOM      9  C   UNL     1       3.889   6.007  17.468  0.00  0.00    +0.000 A 
ATOM     10  C   UNL     1       3.462   5.256  18.574  0.00  0.00    +0.000 A 
ATOM     11  C   UNL     1       2.636   6.067  19.441  0.00  0.00    +0.000 A 
ATOM     12  C   UNL     1       1.934   5.733  20.584  0.00  0.00    +0.000 A 
ATOM     13  C   UNL     1       1.189   6.718  21.224  0.00  0.00    +0.000 A 
ATOM     14  C   UNL     1       1.120   8.028  20.723  0.00  0.00    +0.000 A 
ATOM     15  C   UNL     1       1.792   8.367  19.541  0.00  0.00    +0.000 A 
ATOM     16  C   UNL     1       2.540   7.367  18.923  0.00  0.00    +0.000 A 
ATOM     17  C   UNL     1       3.332   7.382  17.655  0.00  0.00    +0.000 C 
ATOM     18  O   UNL     1       3.452   8.327  16.904  0.00  0.00    +0.000 OA
ENDROOT
BRANCH  14  19
ATOM     19  O   UNL     1       0.343   8.830  21.507  0.00  0.00    +0.000 OA
ATOM     20  C   UNL     1      -0.214   9.996  20.931  0.00  0.00    +0.000 C 
ENDBRANCH  14  19
BRANCH   1  21
ATOM     21  S   UNL     1       3.833   2.987  20.177  0.00  0.00    +0.000 S 
BRANCH  21  22
ATOM     22  C   UNL     1       2.552   1.748  19.773  0.00  0.00    +0.000 C 
BRANCH  22  24
ATOM     23  C   UNL     1       0.483   2.731  18.725  0.00  0.00    +0.000 C 
ATOM     24  C   UNL     1       1.210   2.430  19.810  0.00  0.00    +0.000 C 
ENDBRANCH  22  24
ENDBRANCH  21  22
ENDBRANCH   1  21
TORSDOF 4
ENDMDL
MODEL 5
REMARK VINA RESULT:      -7.0      3.846      6.553
REMARK  Name = 
REMARK  5 active torsions:
REMARK  status: ('A' for Active; 'I' for Inactive)
REMARK    1  A    between atoms: C_2  and  C_3
REMARK    2  A    between atoms: C_3  and  S_4
REMARK    3  A    between atoms: S_4  and  C_5
REMARK    4  A    between atoms: C_18  and  O_19
REMARK    5  A    between atoms: O_19  and  C_20
REMARK                            x       y       z     vdW  Elec       q    Type
REMARK                         _______ _______ _______ _____ _____    ______ ____
ROOT
ATOM      1  C   UNL     1      -0.698  10.841  18.632  0.00  0.00    +0.000 A 
ATOM      2  N   UNL     1       0.274  10.120  18.048  0.00  0.00    +0.000 NA
ATOM      3  C   UNL     1       1.058   9.332  18.807  0.00  0.00    +0.000 A 
ATOM      4  C   UNL     1       1.962   8.553  18.124  0.00  0.00    +0.000 A 
ATOM      5  C   UNL     1       2.412   7.366  18.680  0.00  0.00    +0.000 A 
ATOM      6  C   UNL     1       2.217   7.134  20.036  0.00  0.00    +0.000 A 
ATOM      7  C   UNL     1       1.596   8.108  20.823  0.00  0.00    +0.000 A 
ATOM      8  C   UNL     1       0.915   9.179  20.194  0.00  0.00    +0.000 A 
ATOM      9  C   UNL     1       0.073  10.136  20.778  0.00  0.00    +0.000 A 
ATOM     10  C   UNL     1      -0.754  10.970  20.011  0.00  0.00    +0.000 A 
ATOM     11  C   UNL     1      -1.543  11.823  20.873  0.00  0.00    +0.000 A 
ATOM     12  C   UNL     1      -2.419  12.847  20.566  0.00  0.00    +0.000 A 
ATOM     13  C   UNL     1      -3.040  13.531  21.606  0.00  0.00    +0.000 A 
ATOM     14  C   UNL     1      -2.780  13.217  22.950  0.00  0.00    +0.000 A 
ATOM     15  C   UNL     1      -1.862  12.209  23.274  0.00  0.00    +0.000 A 
ATOM     16  C   UNL     1      -1.259  11.531  22.215  0.00  0.00    +0.000 A 
ATOM     17  C   UNL     1      -0.228  10.450  22.210  0.00  0.00    +0.000 C 
ATOM     18  O   UNL     1       0.295   9.961  23.189  0.00  0.00    +0.000 OA
ENDROOT
BRANCH  14  19
ATOM     19  O   UNL     1      -3.499  14.003  23.803  0.00  0.00    +0.000 OA
ATOM     20  C   UNL     1      -4.778  14.447  23.390  0.00  0.00    +0.000 C 
ENDBRANCH  14  19
BRANCH   1  21
ATOM     21  S   UNL     1      -1.965  11.468  17.532  0.00  0.00    +0.000 S 
BRANCH  21  22
ATOM     22  C   UNL     1      -3.171  10.097  17.561  0.00  0.00    +0.000 C 
BRANCH  22  24
ATOM     23  C   UNL     1      -4.989  11.840  17.548  0.00  0.00    +0.000 C 
ATOM     24  C   UNL     1      -4.510  10.657  17.959  0.00  0.00    +0.000 C 
ENDBRANCH  22  24
ENDBRANCH  21  22
ENDBRANCH   1  21
TORSDOF 4
ENDMDL
MODEL 6
REMARK VINA RESULT:      -6.8      0.772      1.113
REMARK  Name = 
REMARK  5 active torsions:
REMARK  status: ('A' for Active; 'I' for Inactive)
REMARK    1  A    between atoms: C_2  and  C_3
REMARK    2  A    between atoms: C_3  and  S_4
REMARK    3  A    between atoms: S_4  and  C_5
REMARK    4  A    between atoms: C_18  and  O_19
REMARK    5  A    between atoms: O_19  and  C_20
REMARK                            x       y       z     vdW  Elec       q    Type
REMARK                         _______ _______ _______ _____ _____    ______ ____
ROOT
ATOM      1  C   UNL     1       2.544   5.261  19.648  0.00  0.00    +0.000 A 
ATOM      2  N   UNL     1       3.136   4.484  18.725  0.00  0.00    +0.000 NA
ATOM      3  C   UNL     1       3.676   5.053  17.631  0.00  0.00    +0.000 A 
ATOM      4  C   UNL     1       4.348   4.203  16.785  0.00  0.00    +0.000 A 
ATOM      5  C   UNL     1       5.362   4.690  15.975  0.00  0.00    +0.000 A 
ATOM      6  C   UNL     1       5.471   6.060  15.774  0.00  0.00    +0.000 A 
ATOM      7  C   UNL     1       4.544   6.924  16.366  0.00  0.00    +0.000 A 
ATOM      8  C   UNL     1       3.695   6.435  17.388  0.00  0.00    +0.000 A 
ATOM      9  C   UNL     1       2.849   7.163  18.237  0.00  0.00    +0.000 A 
ATOM     10  C   UNL     1       2.273   6.595  19.384  0.00  0.00    +0.000 A 
ATOM     11  C   UNL     1       1.487   7.582  20.091  0.00  0.00    +0.000 A 
ATOM     12  C   UNL     1       0.683   7.459  21.208  0.00  0.00    +0.000 A 
ATOM     13  C   UNL     1       0.011   8.582  21.677  0.00  0.00    +0.000 A 
ATOM     14  C   UNL     1       0.119   9.825  21.031  0.00  0.00    +0.000 A 
ATOM     15  C   UNL     1       0.897   9.953  19.873  0.00  0.00    +0.000 A 
ATOM     16  C   UNL     1       1.569   8.816  19.427  0.00  0.00    +0.000 A 
ATOM     17  C   UNL     1       2.436   8.601  18.229  0.00  0.00    +0.000 C 
ATOM     18  O   UNL     1       2.706   9.433  17.389  0.00  0.00    +0.000 OA
ENDROOT
BRANCH  14  19
ATOM     19  O   UNL     1      -0.613  10.789  21.661  0.00  0.00    +0.000 OA
ATOM     20  C   UNL     1      -0.938  10.602  23.026  0.00  0.00    +0.000 C 
ENDBRANCH  14  19
BRANCH   1  21
ATOM     21  S   UNL     1       2.289   4.504  21.250  0.00  0.00    +0.000 S 
BRANCH  21  22
ATOM     22  C   UNL     1       2.400   2.730  20.828  0.00  0.00    +0.000 C 
BRANCH  22  24
ATOM     23  C   UNL     1       4.542   1.713  19.980  0.00  0.00    +0.000 C 
ATOM     24  C   UNL     1       3.839   2.306  20.954  0.00  0.00    +0.000 C 
ENDBRANCH  22  24
ENDBRANCH  21  22
ENDBRANCH   1  21
TORSDOF 4
ENDMDL
MODEL 7
REMARK VINA RESULT:      -6.7      1.845      6.030
REMARK  Name = 
REMARK  5 active torsions:
REMARK  status: ('A' for Active; 'I' for Inactive)
REMARK    1  A    between atoms: C_2  and  C_3
REMARK    2  A    between atoms: C_3  and  S_4
REMARK    3  A    between atoms: S_4  and  C_5
REMARK    4  A    between atoms: C_18  and  O_19
REMARK    5  A    between atoms: O_19  and  C_20
REMARK                            x       y       z     vdW  Elec       q    Type
REMARK                         _______ _______ _______ _____ _____    ______ ____
ROOT
ATOM      1  C   UNL     1       2.000   4.953  19.487  0.00  0.00    +0.000 A 
ATOM      2  N   UNL     1       1.378   5.588  20.495  0.00  0.00    +0.000 NA
ATOM      3  C   UNL     1       1.349   6.933  20.510  0.00  0.00    +0.000 A 
ATOM      4  C   UNL     1       0.612   7.504  21.520  0.00  0.00    +0.000 A 
ATOM      5  C   UNL     1       0.063   8.765  21.350  0.00  0.00    +0.000 A 
ATOM      6  C   UNL     1       0.526   9.574  20.319  0.00  0.00    +0.000 A 
ATOM      7  C   UNL     1       1.554   9.117  19.489  0.00  0.00    +0.000 A 
ATOM      8  C   UNL     1       1.908   7.746  19.512  0.00  0.00    +0.000 A 
ATOM      9  C   UNL     1       2.755   7.052  18.636  0.00  0.00    +0.000 A 
ATOM     10  C   UNL     1       2.805   5.650  18.600  0.00  0.00    +0.000 A 
ATOM     11  C   UNL     1       3.727   5.208  17.576  0.00  0.00    +0.000 A 
ATOM     12  C   UNL     1       4.157   3.938  17.241  0.00  0.00    +0.000 A 
ATOM     13  C   UNL     1       5.081   3.794  16.212  0.00  0.00    +0.000 A 
ATOM     14  C   UNL     1       5.597   4.906  15.527  0.00  0.00    +0.000 A 
ATOM     15  C   UNL     1       5.201   6.201  15.886  0.00  0.00    +0.000 A 
ATOM     16  C   UNL     1       4.266   6.321  16.913  0.00  0.00    +0.000 A 
ATOM     17  C   UNL     1       3.671   7.532  17.555  0.00  0.00    +0.000 C 
ATOM     18  O   UNL     1       3.928   8.684  17.275  0.00  0.00    +0.000 OA
ENDROOT
BRANCH  14  19
ATOM     19  O   UNL     1       6.479   4.538  14.553  0.00  0.00    +0.000 OA
ATOM     20  C   UNL     1       5.989   3.813  13.441  0.00  0.00    +0.000 C 
ENDBRANCH  14  19
BRANCH   1  21
ATOM     21  S   UNL     1       1.588   3.221  19.291  0.00  0.00    +0.000 S 
BRANCH  21  22
ATOM     22  C   UNL     1       1.768   2.616  21.005  0.00  0.00    +0.000 C 
BRANCH  22  24
ATOM     23  C   UNL     1       4.188   2.182  20.455  0.00  0.00    +0.000 C 
ATOM     24  C   UNL     1       3.237   2.547  21.327  0.00  0.00    +0.000 C 
ENDBRANCH  22  24
ENDBRANCH  21  22
ENDBRANCH   1  21
TORSDOF 4
ENDMDL
MODEL 8
REMARK VINA RESULT:      -6.6      5.273      9.092
REMARK  Name = 
REMARK  5 active torsions:
REMARK  status: ('A' for Active; 'I' for Inactive)
REMARK    1  A    between atoms: C_2  and  C_3
REMARK    2  A    between atoms: C_3  and  S_4
REMARK    3  A    between atoms: S_4  and  C_5
REMARK    4  A    between atoms: C_18  and  O_19
REMARK    5  A    between atoms: O_19  and  C_20
REMARK                            x       y       z     vdW  Elec       q    Type
REMARK                         _______ _______ _______ _____ _____    ______ ____
ROOT
ATOM      1  C   UNL     1      -2.929  12.900  20.430  0.00  0.00    +0.000 A 
ATOM      2  N   UNL     1      -4.172  13.402  20.344  0.00  0.00    +0.000 NA
ATOM      3  C   UNL     1      -5.058  12.831  19.507  0.00  0.00    +0.000 A 
ATOM      4  C   UNL     1      -6.335  13.340  19.549  0.00  0.00    +0.000 A 
ATOM      5  C   UNL     1      -7.410  12.545  19.187  0.00  0.00    +0.000 A 
ATOM      6  C   UNL     1      -7.179  11.373  18.477  0.00  0.00    +0.000 A 
ATOM      7  C   UNL     1      -5.873  11.028  18.115  0.00  0.00    +0.000 A 
ATOM      8  C   UNL     1      -4.785  11.704  18.717  0.00  0.00    +0.000 A 
ATOM      9  C   UNL     1      -3.420  11.387  18.650  0.00  0.00    +0.000 A 
ATOM     10  C   UNL     1      -2.475  11.967  19.510  0.00  0.00    +0.000 A 
ATOM     11  C   UNL     1      -1.160  11.425  19.248  0.00  0.00    +0.000 A 
ATOM     12  C   UNL     1       0.071  11.756  19.782  0.00  0.00    +0.000 A 
ATOM     13  C   UNL     1       1.200  11.081  19.330  0.00  0.00    +0.000 A 
ATOM     14  C   UNL     1       1.116  10.094  18.335  0.00  0.00    +0.000 A 
ATOM     15  C   UNL     1      -0.120   9.780  17.756  0.00  0.00    +0.000 A 
ATOM     16  C   UNL     1      -1.240  10.462  18.231  0.00  0.00    +0.000 A 
ATOM     17  C   UNL     1      -2.673  10.397  17.814  0.00  0.00    +0.000 C 
ATOM     18  O   UNL     1      -3.124   9.701  16.929  0.00  0.00    +0.000 OA
ENDROOT
BRANCH  14  19
ATOM     19  O   UNL     1       2.337   9.557  18.048  0.00  0.00    +0.000 OA
ATOM     20  C   UNL     1       2.425   8.160  17.841  0.00  0.00    +0.000 C 
ENDBRANCH  14  19
BRANCH   1  21
ATOM     21  S   UNL     1      -1.991  13.395  21.873  0.00  0.00    +0.000 S 
BRANCH  21  22
ATOM     22  C   UNL     1      -2.245  11.959  22.973  0.00  0.00    +0.000 C 
BRANCH  22  24
ATOM     23  C   UNL     1      -0.770   9.919  22.891  0.00  0.00    +0.000 C 
ATOM     24  C   UNL     1      -0.933  11.232  23.106  0.00  0.00    +0.000 C 
ENDBRANCH  22  24
ENDBRANCH  21  22
ENDBRANCH   1  21
TORSDOF 4
ENDMDL
MODEL 9
REMARK VINA RESULT:      -6.6      5.711      7.844
REMARK  Name = 
REMARK  5 active torsions:
REMARK  status: ('A' for Active; 'I' for Inactive)
REMARK    1  A    between atoms: C_2  and  C_3
REMARK    2  A    between atoms: C_3  and  S_4
REMARK    3  A    between atoms: S_4  and  C_5
REMARK    4  A    between atoms: C_18  and  O_19
REMARK    5  A    between atoms: O_19  and  C_20
REMARK                            x       y       z     vdW  Elec       q    Type
REMARK                         _______ _______ _______ _____ _____    ______ ____
ROOT
ATOM      1  C   UNL     1      -1.010  11.172  19.635  0.00  0.00    +0.000 A 
ATOM      2  N   UNL     1      -1.087  10.400  18.538  0.00  0.00    +0.000 NA
ATOM      3  C   UNL     1      -2.176  10.479  17.751  0.00  0.00    +0.000 A 
ATOM      4  C   UNL     1      -2.136   9.731  16.598  0.00  0.00    +0.000 A 
ATOM      5  C   UNL     1      -2.881  10.118  15.496  0.00  0.00    +0.000 A 
ATOM      6  C   UNL     1      -3.904  11.044  15.658  0.00  0.00    +0.000 A 
ATOM      7  C   UNL     1      -4.183  11.552  16.931  0.00  0.00    +0.000 A 
ATOM      8  C   UNL     1      -3.252  11.351  17.978  0.00  0.00    +0.000 A 
ATOM      9  C   UNL     1      -3.240  11.933  19.254  0.00  0.00    +0.000 A 
ATOM     10  C   UNL     1      -2.119  11.866  20.095  0.00  0.00    +0.000 A 
ATOM     11  C   UNL     1      -2.370  12.588  21.323  0.00  0.00    +0.000 A 
ATOM     12  C   UNL     1      -1.598  12.719  22.462  0.00  0.00    +0.000 A 
ATOM     13  C   UNL     1      -2.095  13.465  23.525  0.00  0.00    +0.000 A 
ATOM     14  C   UNL     1      -3.364  14.065  23.471  0.00  0.00    +0.000 A 
ATOM     15  C   UNL     1      -4.173  13.903  22.339  0.00  0.00    +0.000 A 
ATOM     16  C   UNL     1      -3.650  13.160  21.282  0.00  0.00    +0.000 A 
ATOM     17  C   UNL     1      -4.251  12.771  19.970  0.00  0.00    +0.000 C 
ATOM     18  O   UNL     1      -5.369  13.050  19.590  0.00  0.00    +0.000 OA
ENDROOT
BRANCH  14  19
ATOM     19  O   UNL     1      -3.649  14.754  24.614  0.00  0.00    +0.000 OA
ATOM     20  C   UNL     1      -2.573  15.157  25.440  0.00  0.00    +0.000 C 
ENDBRANCH  14  19
BRANCH   1  21
ATOM     21  S   UNL     1       0.627  11.356  20.339  0.00  0.00    +0.000 S 
BRANCH  21  22
ATOM     22  C   UNL     1       0.996   9.637  20.836  0.00  0.00    +0.000 C 
BRANCH  22  24
ATOM     23  C   UNL     1      -0.340   9.428  22.961  0.00  0.00    +0.000 C 
ATOM     24  C   UNL     1       0.837   9.536  22.330  0.00  0.00    +0.000 C 
ENDBRANCH  22  24
ENDBRANCH  21  22
ENDBRANCH   1  21
TORSDOF 4
ENDMDL
