MODEL 1
REMARK VINA RESULT:      -8.6      0.000      0.000
REMARK  Name = 
REMARK  11 active torsions:
REMARK  status: ('A' for Active; 'I' for Inactive)
REMARK    1  A    between atoms: C_1  and  C_2
REMARK    2  A    between atoms: C_4  and  N_5
REMARK    3  A    between atoms: C_6  and  C_8
REMARK    4  A    between atoms: C_8  and  C_9
REMARK    5  A    between atoms: C_9  and  O_11
REMARK    6  A    between atoms: C_14  and  O_15
REMARK    7  A    between atoms: O_15  and  C_16
REMARK    8  A    between atoms: C_19  and  O_20
REMARK    9  A    between atoms: C_21  and  C_22
REMARK   10  A    between atoms: C_22  and  C_23
REMARK   11  A    between atoms: C_23  and  C_24
REMARK                            x       y       z     vdW  Elec       q    Type
REMARK                         _______ _______ _______ _____ _____    ______ ____
ROOT
ATOM      1  C   UNL     1       2.570   8.218  17.407  0.00  0.00    +0.000 C 
ATOM      2  C   UNL     1       1.868   8.800  18.605  0.00  0.00    +0.000 A 
ATOM      3  C   UNL     1       1.257  10.051  18.382  0.00  0.00    +0.000 A 
ATOM      4  C   UNL     1       0.518  10.732  19.348  0.00  0.00    +0.000 A 
ATOM      5  C   UNL     1       0.319  10.080  20.561  0.00  0.00    +0.000 A 
ATOM      6  C   UNL     1       0.958   8.854  20.824  0.00  0.00    +0.000 A 
ATOM      7  C   UNL     1       1.797   8.234  19.886  0.00  0.00    +0.000 A 
ATOM      8  C   UNL     1       0.608   8.328  22.184  0.00  0.00    +0.000 C 
ATOM      9  C   UNL     1      -0.320   9.401  22.767  0.00  0.00    +0.000 C 
ATOM     10  C   UNL     1      -0.503  10.521  21.733  0.00  0.00    +0.000 C 
ENDROOT
BRANCH   4  11
ATOM     11  N   UNL     1      -0.035  12.007  19.088  0.00  0.00    +0.000 N 
ATOM     12  C   UNL     1       0.651  13.203  19.193  0.00  0.00    +0.000 C 
ATOM     13  O   UNL     1       1.804  13.332  19.616  0.00  0.00    +0.000 OA
ATOM     14  H   UNL     1      -1.040  12.047  18.913  0.00  0.00    +0.000 HD
BRANCH  12  15
ATOM     15  C   UNL     1      -0.045  14.472  18.773  0.00  0.00    +0.000 C 
BRANCH  15  16
ATOM     16  C   UNL     1      -0.936  15.167  19.738  0.00  0.00    +0.000 C 
ATOM     17  O   UNL     1      -0.727  16.271  20.227  0.00  0.00    +0.000 OA
BRANCH  16  18
ATOM     18  O   UNL     1      -2.050  14.452  20.029  0.00  0.00    +0.000 OA
ATOM     19  H   UNL     1      -1.903  13.488  20.115  0.00  0.00    +0.000 HD
ENDBRANCH  16  18
ENDBRANCH  15  16
ENDBRANCH  12  15
ENDBRANCH   4  11
BRANCH   7  20
ATOM     20  O   UNL     1       2.414   7.075  20.321  0.00  0.00    +0.000 OA
BRANCH  20  21
ATOM     21  C   UNL     1       1.985   5.850  19.860  0.00  0.00    +0.000 A 
ATOM     22  C   UNL     1       1.059   5.048  20.527  0.00  0.00    +0.000 A 
ATOM     23  C   UNL     1       0.892   3.717  20.141  0.00  0.00    +0.000 A 
ATOM     24  C   UNL     1       1.568   3.235  19.023  0.00  0.00    +0.000 A 
ATOM     25  C   UNL     1       2.358   4.080  18.235  0.00  0.00    +0.000 A 
ATOM     26  C   UNL     1       2.559   5.400  18.666  0.00  0.00    +0.000 A 
BRANCH  24  27
ATOM     27  O   UNL     1       1.484   1.910  18.697  0.00  0.00    +0.000 OA
ATOM     28  H   UNL     1       0.570   1.618  18.839  0.00  0.00    +0.000 HD
ENDBRANCH  24  27
BRANCH  25  29
ATOM     29  C   UNL     1       3.003   3.581  16.961  0.00  0.00    +0.000 C 
BRANCH  29  30
ATOM     30  C   UNL     1       4.535   3.611  17.057  0.00  0.00    +0.000 C 
BRANCH  30  31
ATOM     31  C   UNL     1       5.216   4.446  15.949  0.00  0.00    +0.000 C 
ATOM     32  C   UNL     1       5.040   5.965  16.117  0.00  0.00    +0.000 C 
ATOM     33  C   UNL     1       5.788   6.513  17.332  0.00  0.00    +0.000 C 
ATOM     34  C   UNL     1       7.270   6.147  17.292  0.00  0.00    +0.000 C 
ATOM     35  C   UNL     1       7.499   4.653  17.081  0.00  0.00    +0.000 C 
ATOM     36  C   UNL     1       6.722   4.125  15.873  0.00  0.00    +0.000 C 
ENDBRANCH  30  31
ENDBRANCH  29  30
ENDBRANCH  25  29
ENDBRANCH  20  21
ENDBRANCH   7  20
TORSDOF 10
ENDMDL
MODEL 2
REMARK VINA RESULT:      -8.2      2.923      4.364
REMARK  Name = 
REMARK  11 active torsions:
REMARK  status: ('A' for Active; 'I' for Inactive)
REMARK    1  A    between atoms: C_1  and  C_2
REMARK    2  A    between atoms: C_4  and  N_5
REMARK    3  A    between atoms: C_6  and  C_8
REMARK    4  A    between atoms: C_8  and  C_9
REMARK    5  A    between atoms: C_9  and  O_11
REMARK    6  A    between atoms: C_14  and  O_15
REMARK    7  A    between atoms: O_15  and  C_16
REMARK    8  A    between atoms: C_19  and  O_20
REMARK    9  A    between atoms: C_21  and  C_22
REMARK   10  A    between atoms: C_22  and  C_23
REMARK   11  A    between atoms: C_23  and  C_24
REMARK                            x       y       z     vdW  Elec       q    Type
REMARK                         _______ _______ _______ _____ _____    ______ ____
ROOT
ATOM      1  C   UNL     1       1.305  12.827  20.615  0.00  0.00    +0.000 C 
ATOM      2  C   UNL     1       0.088  12.242  19.950  0.00  0.00    +0.000 A 
ATOM      3  C   UNL     1      -1.136  12.822  20.341  0.00  0.00    +0.000 A 
ATOM      4  C   UNL     1      -2.369  12.455  19.806  0.00  0.00    +0.000 A 
ATOM      5  C   UNL     1      -2.354  11.522  18.773  0.00  0.00    +0.000 A 
ATOM      6  C   UNL     1      -1.151  10.894  18.399  0.00  0.00    +0.000 A 
ATOM      7  C   UNL     1       0.070  11.186  19.027  0.00  0.00    +0.000 A 
ATOM      8  C   UNL     1      -1.358   9.928  17.272  0.00  0.00    +0.000 C 
ATOM      9  C   UNL     1      -2.865  10.002  16.995  0.00  0.00    +0.000 C 
ATOM     10  C   UNL     1      -3.501  11.017  17.954  0.00  0.00    +0.000 C 
ENDROOT
BRANCH   4  11
ATOM     11  N   UNL     1      -3.573  13.035  20.267  0.00  0.00    +0.000 N 
ATOM     12  C   UNL     1      -4.084  12.889  21.544  0.00  0.00    +0.000 C 
ATOM     13  O   UNL     1      -3.615  12.161  22.424  0.00  0.00    +0.000 OA
ATOM     14  H   UNL     1      -4.154  13.506  19.572  0.00  0.00    +0.000 HD
BRANCH  12  15
ATOM     15  C   UNL     1      -5.322  13.663  21.918  0.00  0.00    +0.000 C 
BRANCH  15  16
ATOM     16  C   UNL     1      -6.652  13.009  21.802  0.00  0.00    +0.000 C 
ATOM     17  O   UNL     1      -6.849  11.800  21.803  0.00  0.00    +0.000 OA
BRANCH  16  18
ATOM     18  O   UNL     1      -7.667  13.902  21.705  0.00  0.00    +0.000 OA
ATOM     19  H   UNL     1      -8.509  13.605  22.105  0.00  0.00    +0.000 HD
ENDBRANCH  16  18
ENDBRANCH  15  16
ENDBRANCH  12  15
ENDBRANCH   4  11
BRANCH   7  20
ATOM     20  O   UNL     1       1.148  10.430  18.604  0.00  0.00    +0.000 OA
BRANCH  20  21
ATOM     21  C   UNL     1       1.352   9.171  19.122  0.00  0.00    +0.000 A 
ATOM     22  C   UNL     1       0.998   8.795  20.418  0.00  0.00    +0.000 A 
ATOM     23  C   UNL     1       1.487   7.601  20.950  0.00  0.00    +0.000 A 
ATOM     24  C   UNL     1       2.232   6.743  20.144  0.00  0.00    +0.000 A 
ATOM     25  C   UNL     1       2.440   7.021  18.789  0.00  0.00    +0.000 A 
ATOM     26  C   UNL     1       1.988   8.250  18.282  0.00  0.00    +0.000 A 
BRANCH  24  27
ATOM     27  O   UNL     1       2.795   5.621  20.685  0.00  0.00    +0.000 OA
ATOM     28  H   UNL     1       3.493   5.310  20.086  0.00  0.00    +0.000 HD
ENDBRANCH  24  27
BRANCH  25  29
ATOM     29  C   UNL     1       3.155   6.037  17.891  0.00  0.00    +0.000 C 
BRANCH  29  30
ATOM     30  C   UNL     1       4.643   5.924  18.252  0.00  0.00    +0.000 C 
BRANCH  30  31
ATOM     31  C   UNL     1       5.586   6.637  17.257  0.00  0.00    +0.000 C 
ATOM     32  C   UNL     1       7.074   6.304  17.463  0.00  0.00    +0.000 C 
ATOM     33  C   UNL     1       7.406   4.853  17.119  0.00  0.00    +0.000 C 
ATOM     34  C   UNL     1       6.969   4.497  15.700  0.00  0.00    +0.000 C 
ATOM     35  C   UNL     1       5.509   4.851  15.430  0.00  0.00    +0.000 C 
ATOM     36  C   UNL     1       5.198   6.302  15.804  0.00  0.00    +0.000 C 
ENDBRANCH  30  31
ENDBRANCH  29  30
ENDBRANCH  25  29
ENDBRANCH  20  21
ENDBRANCH   7  20
TORSDOF 10
ENDMDL
MODEL 3
REMARK VINA RESULT:      -8.2      0.753      1.019
REMARK  Name = 
REMARK  11 active torsions:
REMARK  status: ('A' for Active; 'I' for Inactive)
REMARK    1  A    between atoms: C_1  and  C_2
REMARK    2  A    between atoms: C_4  and  N_5
REMARK    3  A    between atoms: C_6  and  C_8
REMARK    4  A    between atoms: C_8  and  C_9
REMARK    5  A    between atoms: C_9  and  O_11
REMARK    6  A    between atoms: C_14  and  O_15
REMARK    7  A    between atoms: O_15  and  C_16
REMARK    8  A    between atoms: C_19  and  O_20
REMARK    9  A    between atoms: C_21  and  C_22
REMARK   10  A    between atoms: C_22  and  C_23
REMARK   11  A    between atoms: C_23  and  C_24
REMARK                            x       y       z     vdW  Elec       q    Type
REMARK                         _______ _______ _______ _____ _____    ______ ____
ROOT
ATOM      1  C   UNL     1       2.848   7.772  17.410  0.00  0.00    +0.000 C 
ATOM      2  C   UNL     1       2.058   8.446  18.500  0.00  0.00    +0.000 A 
ATOM      3  C   UNL     1       1.451   9.661  18.125  0.00  0.00    +0.000 A 
ATOM      4  C   UNL     1       0.639  10.412  18.973  0.00  0.00    +0.000 A 
ATOM      5  C   UNL     1       0.364   9.868  20.224  0.00  0.00    +0.000 A 
ATOM      6  C   UNL     1       0.997   8.681  20.639  0.00  0.00    +0.000 A 
ATOM      7  C   UNL     1       1.906   7.995  19.819  0.00  0.00    +0.000 A 
ATOM      8  C   UNL     1       0.561   8.273  22.014  0.00  0.00    +0.000 C 
ATOM      9  C   UNL     1      -0.417   9.377  22.434  0.00  0.00    +0.000 C 
ATOM     10  C   UNL     1      -0.541  10.397  21.293  0.00  0.00    +0.000 C 
ENDROOT
BRANCH   4  11
ATOM     11  N   UNL     1       0.091  11.649  18.563  0.00  0.00    +0.000 N 
ATOM     12  C   UNL     1       0.616  12.890  18.877  0.00  0.00    +0.000 C 
ATOM     13  O   UNL     1       1.572  13.093  19.631  0.00  0.00    +0.000 OA
ATOM     14  H   UNL     1      -0.813  11.620  18.091  0.00  0.00    +0.000 HD
BRANCH  12  15
ATOM     15  C   UNL     1      -0.019  14.115  18.270  0.00  0.00    +0.000 C 
BRANCH  15  16
ATOM     16  C   UNL     1      -0.274  15.302  19.127  0.00  0.00    +0.000 C 
ATOM     17  O   UNL     1      -0.968  15.312  20.136  0.00  0.00    +0.000 OA
BRANCH  16  18
ATOM     18  O   UNL     1       0.366  16.413  18.686  0.00  0.00    +0.000 OA
ATOM     19  H   UNL     1      -0.191  17.217  18.654  0.00  0.00    +0.000 HD
ENDBRANCH  16  18
ENDBRANCH  15  16
ENDBRANCH  12  15
ENDBRANCH   4  11
BRANCH   7  20
ATOM     20  O   UNL     1       2.505   6.890  20.397  0.00  0.00    +0.000 OA
BRANCH  20  21
ATOM     21  C   UNL     1       2.169   5.623  19.974  0.00  0.00    +0.000 A 
ATOM     22  C   UNL     1       1.055   4.919  20.431  0.00  0.00    +0.000 A 
ATOM     23  C   UNL     1       0.944   3.553  20.167  0.00  0.00    +0.000 A 
ATOM     24  C   UNL     1       1.889   2.931  19.355  0.00  0.00    +0.000 A 
ATOM     25  C   UNL     1       2.909   3.664  18.739  0.00  0.00    +0.000 A 
ATOM     26  C   UNL     1       3.039   5.024  19.057  0.00  0.00    +0.000 A 
BRANCH  24  27
ATOM     27  O   UNL     1       1.841   1.577  19.172  0.00  0.00    +0.000 OA
ATOM     28  H   UNL     1       1.203   1.205  19.803  0.00  0.00    +0.000 HD
ENDBRANCH  24  27
BRANCH  25  29
ATOM     29  C   UNL     1       3.868   3.006  17.772  0.00  0.00    +0.000 C 
BRANCH  29  30
ATOM     30  C   UNL     1       4.199   3.930  16.592  0.00  0.00    +0.000 C 
BRANCH  30  31
ATOM     31  C   UNL     1       5.713   4.064  16.307  0.00  0.00    +0.000 C 
ATOM     32  C   UNL     1       6.054   5.132  15.252  0.00  0.00    +0.000 C 
ATOM     33  C   UNL     1       5.770   6.551  15.739  0.00  0.00    +0.000 C 
ATOM     34  C   UNL     1       6.486   6.850  17.054  0.00  0.00    +0.000 C 
ATOM     35  C   UNL     1       6.215   5.792  18.121  0.00  0.00    +0.000 C 
ATOM     36  C   UNL     1       6.486   4.379  17.602  0.00  0.00    +0.000 C 
ENDBRANCH  30  31
ENDBRANCH  29  30
ENDBRANCH  25  29
ENDBRANCH  20  21
ENDBRANCH   7  20
TORSDOF 10
ENDMDL
MODEL 4
REMARK VINA RESULT:      -8.0      3.141     10.040
REMARK  Name = 
REMARK  11 active torsions:
REMARK  status: ('A' for Active; 'I' for Inactive)
REMARK    1  A    between atoms: C_1  and  C_2
REMARK    2  A    between atoms: C_4  and  N_5
REMARK    3  A    between atoms: C_6  and  C_8
REMARK    4  A    between atoms: C_8  and  C_9
REMARK    5  A    between atoms: C_9  and  O_11
REMARK    6  A    between atoms: C_14  and  O_15
REMARK    7  A    between atoms: O_15  and  C_16
REMARK    8  A    between atoms: C_19  and  O_20
REMARK    9  A    between atoms: C_21  and  C_22
REMARK   10  A    between atoms: C_22  and  C_23
REMARK   11  A    between atoms: C_23  and  C_24
REMARK                            x       y       z     vdW  Elec       q    Type
REMARK                         _______ _______ _______ _____ _____    ______ ____
ROOT
ATOM      1  C   UNL     1      -0.386   8.930  22.159  0.00  0.00    +0.000 C 
ATOM      2  C   UNL     1       0.604   8.432  21.140  0.00  0.00    +0.000 A 
ATOM      3  C   UNL     1       1.142   7.158  21.413  0.00  0.00    +0.000 A 
ATOM      4  C   UNL     1       2.035   6.501  20.569  0.00  0.00    +0.000 A 
ATOM      5  C   UNL     1       2.329   7.123  19.359  0.00  0.00    +0.000 A 
ATOM      6  C   UNL     1       1.843   8.415  19.085  0.00  0.00    +0.000 A 
ATOM      7  C   UNL     1       1.039   9.117  19.996  0.00  0.00    +0.000 A 
ATOM      8  C   UNL     1       2.277   8.895  17.734  0.00  0.00    +0.000 C 
ATOM      9  C   UNL     1       3.132   7.744  17.190  0.00  0.00    +0.000 C 
ATOM     10  C   UNL     1       3.169   6.613  18.228  0.00  0.00    +0.000 C 
ENDROOT
BRANCH   4  11
ATOM     11  N   UNL     1       2.583   5.243  20.912  0.00  0.00    +0.000 N 
ATOM     12  C   UNL     1       1.960   4.026  20.702  0.00  0.00    +0.000 C 
ATOM     13  O   UNL     1       0.811   3.873  20.278  0.00  0.00    +0.000 OA
ATOM     14  H   UNL     1       3.452   5.248  21.447  0.00  0.00    +0.000 HD
BRANCH  12  15
ATOM     15  C   UNL     1       2.721   2.764  21.018  0.00  0.00    +0.000 C 
BRANCH  15  16
ATOM     16  C   UNL     1       3.757   2.281  20.068  0.00  0.00    +0.000 C 
ATOM     17  O   UNL     1       4.966   2.328  20.255  0.00  0.00    +0.000 OA
BRANCH  16  18
ATOM     18  O   UNL     1       3.225   1.750  18.940  0.00  0.00    +0.000 OA
ATOM     19  H   UNL     1       2.351   2.114  18.693  0.00  0.00    +0.000 HD
ENDBRANCH  16  18
ENDBRANCH  15  16
ENDBRANCH  12  15
ENDBRANCH   4  11
BRANCH   7  20
ATOM     20  O   UNL     1       0.706  10.405  19.619  0.00  0.00    +0.000 OA
BRANCH  20  21
ATOM     21  C   UNL     1      -0.603  10.724  19.335  0.00  0.00    +0.000 A 
ATOM     22  C   UNL     1      -1.352  10.115  18.328  0.00  0.00    +0.000 A 
ATOM     23  C   UNL     1      -2.562  10.682  17.926  0.00  0.00    +0.000 A 
ATOM     24  C   UNL     1      -3.064  11.787  18.610  0.00  0.00    +0.000 A 
ATOM     25  C   UNL     1      -2.414  12.296  19.740  0.00  0.00    +0.000 A 
ATOM     26  C   UNL     1      -1.172  11.749  20.098  0.00  0.00    +0.000 A 
BRANCH  24  27
ATOM     27  O   UNL     1      -4.198  12.406  18.162  0.00  0.00    +0.000 OA
ATOM     28  H   UNL     1      -4.820  12.480  18.903  0.00  0.00    +0.000 HD
ENDBRANCH  24  27
BRANCH  25  29
ATOM     29  C   UNL     1      -3.017  13.425  20.545  0.00  0.00    +0.000 C 
BRANCH  29  30
ATOM     30  C   UNL     1      -3.827  12.896  21.736  0.00  0.00    +0.000 C 
BRANCH  30  31
ATOM     31  C   UNL     1      -2.960  12.447  22.934  0.00  0.00    +0.000 C 
ATOM     32  C   UNL     1      -1.780  13.388  23.235  0.00  0.00    +0.000 C 
ATOM     33  C   UNL     1      -2.233  14.750  23.757  0.00  0.00    +0.000 C 
ATOM     34  C   UNL     1      -3.134  14.613  24.982  0.00  0.00    +0.000 C 
ATOM     35  C   UNL     1      -4.297  13.652  24.749  0.00  0.00    +0.000 C 
ATOM     36  C   UNL     1      -3.819  12.304  24.206  0.00  0.00    +0.000 C 
ENDBRANCH  30  31
ENDBRANCH  29  30
ENDBRANCH  25  29
ENDBRANCH  20  21
ENDBRANCH   7  20
TORSDOF 10
ENDMDL
MODEL 5
REMARK VINA RESULT:      -8.0      3.491     10.388
REMARK  Name = 
REMARK  11 active torsions:
REMARK  status: ('A' for Active; 'I' for Inactive)
REMARK    1  A    between atoms: C_1  and  C_2
REMARK    2  A    between atoms: C_4  and  N_5
REMARK    3  A    between atoms: C_6  and  C_8
REMARK    4  A    between atoms: C_8  and  C_9
REMARK    5  A    between atoms: C_9  and  O_11
REMARK    6  A    between atoms: C_14  and  O_15
REMARK    7  A    between atoms: O_15  and  C_16
REMARK    8  A    between atoms: C_19  and  O_20
REMARK    9  A    between atoms: C_21  and  C_22
REMARK   10  A    between atoms: C_22  and  C_23
REMARK   11  A    between atoms: C_23  and  C_24
REMARK                            x       y       z     vdW  Elec       q    Type
REMARK                         _______ _______ _______ _____ _____    ______ ____
ROOT
ATOM      1  C   UNL     1      -0.423   8.820  22.193  0.00  0.00    +0.000 C 
ATOM      2  C   UNL     1       0.574   8.349  21.168  0.00  0.00    +0.000 A 
ATOM      3  C   UNL     1       1.117   7.073  21.415  0.00  0.00    +0.000 A 
ATOM      4  C   UNL     1       2.018   6.439  20.561  0.00  0.00    +0.000 A 
ATOM      5  C   UNL     1       2.314   7.089  19.367  0.00  0.00    +0.000 A 
ATOM      6  C   UNL     1       1.823   8.385  19.120  0.00  0.00    +0.000 A 
ATOM      7  C   UNL     1       1.011   9.062  20.042  0.00  0.00    +0.000 A 
ATOM      8  C   UNL     1       2.261   8.897  17.782  0.00  0.00    +0.000 C 
ATOM      9  C   UNL     1       3.125   7.763  17.217  0.00  0.00    +0.000 C 
ATOM     10  C   UNL     1       3.162   6.610  18.229  0.00  0.00    +0.000 C 
ENDROOT
BRANCH   4  11
ATOM     11  N   UNL     1       2.570   5.177  20.879  0.00  0.00    +0.000 N 
ATOM     12  C   UNL     1       1.958   3.961  20.632  0.00  0.00    +0.000 C 
ATOM     13  O   UNL     1       0.814   3.812  20.192  0.00  0.00    +0.000 OA
ATOM     14  H   UNL     1       3.434   5.174  21.422  0.00  0.00    +0.000 HD
BRANCH  12  15
ATOM     15  C   UNL     1       2.724   2.696  20.925  0.00  0.00    +0.000 C 
BRANCH  15  16
ATOM     16  C   UNL     1       4.069   2.503  20.322  0.00  0.00    +0.000 C 
ATOM     17  O   UNL     1       5.017   1.952  20.866  0.00  0.00    +0.000 OA
BRANCH  16  18
ATOM     18  O   UNL     1       4.152   2.997  19.062  0.00  0.00    +0.000 OA
ATOM     19  H   UNL     1       5.063   3.184  18.758  0.00  0.00    +0.000 HD
ENDBRANCH  16  18
ENDBRANCH  15  16
ENDBRANCH  12  15
ENDBRANCH   4  11
BRANCH   7  20
ATOM     20  O   UNL     1       0.673  10.357  19.692  0.00  0.00    +0.000 OA
BRANCH  20  21
ATOM     21  C   UNL     1      -0.616  10.655  19.311  0.00  0.00    +0.000 A 
ATOM     22  C   UNL     1      -1.254  10.082  18.210  0.00  0.00    +0.000 A 
ATOM     23  C   UNL     1      -2.443  10.637  17.734  0.00  0.00    +0.000 A 
ATOM     24  C   UNL     1      -3.039  11.686  18.430  0.00  0.00    +0.000 A 
ATOM     25  C   UNL     1      -2.506  12.149  19.638  0.00  0.00    +0.000 A 
ATOM     26  C   UNL     1      -1.283  11.618  20.075  0.00  0.00    +0.000 A 
BRANCH  24  27
ATOM     27  O   UNL     1      -4.149  12.297  17.917  0.00  0.00    +0.000 OA
ATOM     28  H   UNL     1      -4.150  13.224  18.207  0.00  0.00    +0.000 HD
ENDBRANCH  24  27
BRANCH  25  29
ATOM     29  C   UNL     1      -3.214  13.213  20.447  0.00  0.00    +0.000 C 
BRANCH  29  30
ATOM     30  C   UNL     1      -3.892  12.618  21.689  0.00  0.00    +0.000 C 
BRANCH  30  31
ATOM     31  C   UNL     1      -3.795  13.513  22.945  0.00  0.00    +0.000 C 
ATOM     32  C   UNL     1      -4.362  14.930  22.745  0.00  0.00    +0.000 C 
ATOM     33  C   UNL     1      -5.878  14.935  22.556  0.00  0.00    +0.000 C 
ATOM     34  C   UNL     1      -6.591  14.231  23.708  0.00  0.00    +0.000 C 
ATOM     35  C   UNL     1      -6.033  12.836  23.977  0.00  0.00    +0.000 C 
ATOM     36  C   UNL     1      -4.512  12.855  24.140  0.00  0.00    +0.000 C 
ENDBRANCH  30  31
ENDBRANCH  29  30
ENDBRANCH  25  29
ENDBRANCH  20  21
ENDBRANCH   7  20
TORSDOF 10
ENDMDL
MODEL 6
REMARK VINA RESULT:      -7.9      1.177      1.371
REMARK  Name = 
REMARK  11 active torsions:
REMARK  status: ('A' for Active; 'I' for Inactive)
REMARK    1  A    between atoms: C_1  and  C_2
REMARK    2  A    between atoms: C_4  and  N_5
REMARK    3  A    between atoms: C_6  and  C_8
REMARK    4  A    between atoms: C_8  and  C_9
REMARK    5  A    between atoms: C_9  and  O_11
REMARK    6  A    between atoms: C_14  and  O_15
REMARK    7  A    between atoms: O_15  and  C_16
REMARK    8  A    between atoms: C_19  and  O_20
REMARK    9  A    between atoms: C_21  and  C_22
REMARK   10  A    between atoms: C_22  and  C_23
REMARK   11  A    between atoms: C_23  and  C_24
REMARK                            x       y       z     vdW  Elec       q    Type
REMARK                         _______ _______ _______ _____ _____    ______ ____
ROOT
ATOM      1  C   UNL     1       1.482   9.076  17.523  0.00  0.00    +0.000 C 
ATOM      2  C   UNL     1       1.024   9.471  18.901  0.00  0.00    +0.000 A 
ATOM      3  C   UNL     1       0.135  10.564  18.938  0.00  0.00    +0.000 A 
ATOM      4  C   UNL     1      -0.441  11.052  20.110  0.00  0.00    +0.000 A 
ATOM      5  C   UNL     1      -0.170  10.350  21.281  0.00  0.00    +0.000 A 
ATOM      6  C   UNL     1       0.752   9.287  21.278  0.00  0.00    +0.000 A 
ATOM      7  C   UNL     1       1.416   8.880  20.111  0.00  0.00    +0.000 A 
ATOM      8  C   UNL     1       0.894   8.674  22.638  0.00  0.00    +0.000 C 
ATOM      9  C   UNL     1      -0.041   9.510  23.520  0.00  0.00    +0.000 C 
ATOM     10  C   UNL     1      -0.719  10.582  22.655  0.00  0.00    +0.000 C 
ENDROOT
BRANCH   4  11
ATOM     11  N   UNL     1      -1.291  12.181  20.098  0.00  0.00    +0.000 N 
ATOM     12  C   UNL     1      -0.909  13.462  20.455  0.00  0.00    +0.000 C 
ATOM     13  O   UNL     1       0.190  13.778  20.920  0.00  0.00    +0.000 OA
ATOM     14  H   UNL     1      -2.280  12.013  19.913  0.00  0.00    +0.000 HD
BRANCH  12  15
ATOM     15  C   UNL     1      -1.900  14.584  20.281  0.00  0.00    +0.000 C 
BRANCH  15  16
ATOM     16  C   UNL     1      -3.222  14.499  20.957  0.00  0.00    +0.000 C 
ATOM     17  O   UNL     1      -3.411  14.622  22.161  0.00  0.00    +0.000 OA
BRANCH  16  18
ATOM     18  O   UNL     1      -4.239  14.279  20.089  0.00  0.00    +0.000 OA
ATOM     19  H   UNL     1      -4.165  14.767  19.244  0.00  0.00    +0.000 HD
ENDBRANCH  16  18
ENDBRANCH  15  16
ENDBRANCH  12  15
ENDBRANCH   4  11
BRANCH   7  20
ATOM     20  O   UNL     1       2.350   7.874  20.283  0.00  0.00    +0.000 OA
BRANCH  20  21
ATOM     21  C   UNL     1       2.043   6.580  19.928  0.00  0.00    +0.000 A 
ATOM     22  C   UNL     1       1.215   5.743  20.677  0.00  0.00    +0.000 A 
ATOM     23  C   UNL     1       1.180   4.375  20.398  0.00  0.00    +0.000 A 
ATOM     24  C   UNL     1       1.886   3.878  19.306  0.00  0.00    +0.000 A 
ATOM     25  C   UNL     1       2.573   4.734  18.437  0.00  0.00    +0.000 A 
ATOM     26  C   UNL     1       2.642   6.097  18.760  0.00  0.00    +0.000 A 
BRANCH  24  27
ATOM     27  O   UNL     1       1.935   2.530  19.085  0.00  0.00    +0.000 OA
ATOM     28  H   UNL     1       1.973   2.080  19.945  0.00  0.00    +0.000 HD
ENDBRANCH  24  27
BRANCH  25  29
ATOM     29  C   UNL     1       3.247   4.204  17.191  0.00  0.00    +0.000 C 
BRANCH  29  30
ATOM     30  C   UNL     1       4.745   3.964  17.421  0.00  0.00    +0.000 C 
BRANCH  30  31
ATOM     31  C   UNL     1       5.650   4.536  16.306  0.00  0.00    +0.000 C 
ATOM     32  C   UNL     1       5.318   5.988  15.919  0.00  0.00    +0.000 C 
ATOM     33  C   UNL     1       5.642   6.982  17.033  0.00  0.00    +0.000 C 
ATOM     34  C   UNL     1       7.096   6.868  17.484  0.00  0.00    +0.000 C 
ATOM     35  C   UNL     1       7.489   5.435  17.836  0.00  0.00    +0.000 C 
ATOM     36  C   UNL     1       7.134   4.457  16.714  0.00  0.00    +0.000 C 
ENDBRANCH  30  31
ENDBRANCH  29  30
ENDBRANCH  25  29
ENDBRANCH  20  21
ENDBRANCH   7  20
TORSDOF 10
ENDMDL
MODEL 7
REMARK VINA RESULT:      -7.9      0.942      1.475
REMARK  Name = 
REMARK  11 active torsions:
REMARK  status: ('A' for Active; 'I' for Inactive)
REMARK    1  A    between atoms: C_1  and  C_2
REMARK    2  A    between atoms: C_4  and  N_5
REMARK    3  A    between atoms: C_6  and  C_8
REMARK    4  A    between atoms: C_8  and  C_9
REMARK    5  A    between atoms: C_9  and  O_11
REMARK    6  A    between atoms: C_14  and  O_15
REMARK    7  A    between atoms: O_15  and  C_16
REMARK    8  A    between atoms: C_19  and  O_20
REMARK    9  A    between atoms: C_21  and  C_22
REMARK   10  A    between atoms: C_22  and  C_23
REMARK   11  A    between atoms: C_23  and  C_24
REMARK                            x       y       z     vdW  Elec       q    Type
REMARK                         _______ _______ _______ _____ _____    ______ ____
ROOT
ATOM      1  C   UNL     1       2.374   7.835  17.882  0.00  0.00    +0.000 C 
ATOM      2  C   UNL     1       1.670   8.617  18.959  0.00  0.00    +0.000 A 
ATOM      3  C   UNL     1       1.085   9.824  18.526  0.00  0.00    +0.000 A 
ATOM      4  C   UNL     1       0.347  10.665  19.357  0.00  0.00    +0.000 A 
ATOM      5  C   UNL     1       0.123  10.224  20.658  0.00  0.00    +0.000 A 
ATOM      6  C   UNL     1       0.737   9.047  21.127  0.00  0.00    +0.000 A 
ATOM      7  C   UNL     1       1.575   8.268  20.314  0.00  0.00    +0.000 A 
ATOM      8  C   UNL     1       0.363   8.757  22.549  0.00  0.00    +0.000 C 
ATOM      9  C   UNL     1      -0.552   9.925  22.936  0.00  0.00    +0.000 C 
ATOM     10  C   UNL     1      -0.703  10.863  21.731  0.00  0.00    +0.000 C 
ENDROOT
BRANCH   4  11
ATOM     11  N   UNL     1      -0.180  11.889  18.885  0.00  0.00    +0.000 N 
ATOM     12  C   UNL     1       0.434  13.120  19.025  0.00  0.00    +0.000 C 
ATOM     13  O   UNL     1       1.471  13.336  19.659  0.00  0.00    +0.000 OA
ATOM     14  H   UNL     1      -1.128  11.869  18.509  0.00  0.00    +0.000 HD
BRANCH  12  15
ATOM     15  C   UNL     1      -0.200  14.320  18.368  0.00  0.00    +0.000 C 
BRANCH  15  16
ATOM     16  C   UNL     1      -0.182  15.629  19.071  0.00  0.00    +0.000 C 
ATOM     17  O   UNL     1      -1.149  16.164  19.599  0.00  0.00    +0.000 OA
BRANCH  16  18
ATOM     18  O   UNL     1       1.051  16.194  19.091  0.00  0.00    +0.000 OA
ATOM     19  H   UNL     1       1.070  17.137  18.828  0.00  0.00    +0.000 HD
ENDBRANCH  16  18
ENDBRANCH  15  16
ENDBRANCH  12  15
ENDBRANCH   4  11
BRANCH   7  20
ATOM     20  O   UNL     1       2.167   7.187  20.941  0.00  0.00    +0.000 OA
BRANCH  20  21
ATOM     21  C   UNL     1       2.087   5.934  20.375  0.00  0.00    +0.000 A 
ATOM     22  C   UNL     1       0.916   5.177  20.320  0.00  0.00    +0.000 A 
ATOM     23  C   UNL     1       0.983   3.823  19.986  0.00  0.00    +0.000 A 
ATOM     24  C   UNL     1       2.202   3.269  19.603  0.00  0.00    +0.000 A 
ATOM     25  C   UNL     1       3.349   4.060  19.476  0.00  0.00    +0.000 A 
ATOM     26  C   UNL     1       3.278   5.406  19.866  0.00  0.00    +0.000 A 
BRANCH  24  27
ATOM     27  O   UNL     1       2.293   1.925  19.369  0.00  0.00    +0.000 OA
ATOM     28  H   UNL     1       3.133   1.750  18.915  0.00  0.00    +0.000 HD
ENDBRANCH  24  27
BRANCH  25  29
ATOM     29  C   UNL     1       4.644   3.478  18.955  0.00  0.00    +0.000 C 
BRANCH  29  30
ATOM     30  C   UNL     1       5.787   4.501  19.020  0.00  0.00    +0.000 C 
BRANCH  30  31
ATOM     31  C   UNL     1       6.647   4.563  17.737  0.00  0.00    +0.000 C 
ATOM     32  C   UNL     1       5.901   4.118  16.466  0.00  0.00    +0.000 C 
ATOM     33  C   UNL     1       4.792   5.088  16.066  0.00  0.00    +0.000 C 
ATOM     34  C   UNL     1       5.320   6.512  15.906  0.00  0.00    +0.000 C 
ATOM     35  C   UNL     1       6.108   6.985  17.124  0.00  0.00    +0.000 C 
ATOM     36  C   UNL     1       7.197   5.986  17.518  0.00  0.00    +0.000 C 
ENDBRANCH  30  31
ENDBRANCH  29  30
ENDBRANCH  25  29
ENDBRANCH  20  21
ENDBRANCH   7  20
TORSDOF 10
ENDMDL
MODEL 8
REMARK VINA RESULT:      -7.9      1.178      1.394
REMARK  Name = 
REMARK  11 active torsions:
REMARK  status: ('A' for Active; 'I' for Inactive)
REMARK    1  A    between atoms: C_1  and  C_2
REMARK    2  A    between atoms: C_4  and  N_5
REMARK    3  A    between atoms: C_6  and  C_8
REMARK    4  A    between atoms: C_8  and  C_9
REMARK    5  A    between atoms: C_9  and  O_11
REMARK    6  A    between atoms: C_14  and  O_15
REMARK    7  A    between atoms: O_15  and  C_16
REMARK    8  A    between atoms: C_19  and  O_20
REMARK    9  A    between atoms: C_21  and  C_22
REMARK   10  A    between atoms: C_22  and  C_23
REMARK   11  A    between atoms: C_23  and  C_24
REMARK                            x       y       z     vdW  Elec       q    Type
REMARK                         _______ _______ _______ _____ _____    ______ ____
ROOT
ATOM      1  C   UNL     1       2.787   7.717  17.585  0.00  0.00    +0.000 C 
ATOM      2  C   UNL     1       2.080   8.482  18.672  0.00  0.00    +0.000 A 
ATOM      3  C   UNL     1       1.695   9.791  18.319  0.00  0.00    +0.000 A 
ATOM      4  C   UNL     1       0.987  10.642  19.166  0.00  0.00    +0.000 A 
ATOM      5  C   UNL     1       0.582  10.115  20.389  0.00  0.00    +0.000 A 
ATOM      6  C   UNL     1       0.996   8.829  20.784  0.00  0.00    +0.000 A 
ATOM      7  C   UNL     1       1.808   8.025  19.970  0.00  0.00    +0.000 A 
ATOM      8  C   UNL     1       0.449   8.461  22.130  0.00  0.00    +0.000 C 
ATOM      9  C   UNL     1      -0.349   9.699  22.556  0.00  0.00    +0.000 C 
ATOM     10  C   UNL     1      -0.263  10.757  21.447  0.00  0.00    +0.000 C 
ENDROOT
BRANCH   4  11
ATOM     11  N   UNL     1       0.665  11.963  18.781  0.00  0.00    +0.000 N 
ATOM     12  C   UNL     1       1.388  13.088  19.134  0.00  0.00    +0.000 C 
ATOM     13  O   UNL     1       2.351  13.108  19.906  0.00  0.00    +0.000 OA
ATOM     14  H   UNL     1      -0.223  12.099  18.297  0.00  0.00    +0.000 HD
BRANCH  12  15
ATOM     15  C   UNL     1       0.981  14.418  18.551  0.00  0.00    +0.000 C 
BRANCH  15  16
ATOM     16  C   UNL     1       2.024  15.440  18.274  0.00  0.00    +0.000 C 
ATOM     17  O   UNL     1       1.985  16.609  18.637  0.00  0.00    +0.000 OA
BRANCH  16  18
ATOM     18  O   UNL     1       3.070  14.942  17.569  0.00  0.00    +0.000 OA
ATOM     19  H   UNL     1       3.783  15.588  17.388  0.00  0.00    +0.000 HD
ENDBRANCH  16  18
ENDBRANCH  15  16
ENDBRANCH  12  15
ENDBRANCH   4  11
BRANCH   7  20
ATOM     20  O   UNL     1       2.197   6.821  20.529  0.00  0.00    +0.000 OA
BRANCH  20  21
ATOM     21  C   UNL     1       1.896   5.637  19.893  0.00  0.00    +0.000 A 
ATOM     22  C   UNL     1       0.864   4.783  20.285  0.00  0.00    +0.000 A 
ATOM     23  C   UNL     1       0.806   3.488  19.769  0.00  0.00    +0.000 A 
ATOM     24  C   UNL     1       1.711   3.098  18.785  0.00  0.00    +0.000 A 
ATOM     25  C   UNL     1       2.634   4.003  18.250  0.00  0.00    +0.000 A 
ATOM     26  C   UNL     1       2.716   5.285  18.816  0.00  0.00    +0.000 A 
BRANCH  24  27
ATOM     27  O   UNL     1       1.721   1.803  18.346  0.00  0.00    +0.000 OA
ATOM     28  H   UNL     1       1.860   1.807  17.385  0.00  0.00    +0.000 HD
ENDBRANCH  24  27
BRANCH  25  29
ATOM     29  C   UNL     1       3.542   3.609  17.106  0.00  0.00    +0.000 C 
BRANCH  29  30
ATOM     30  C   UNL     1       5.022   3.745  17.490  0.00  0.00    +0.000 C 
BRANCH  30  31
ATOM     31  C   UNL     1       5.913   4.310  16.361  0.00  0.00    +0.000 C 
ATOM     32  C   UNL     1       5.458   5.684  15.838  0.00  0.00    +0.000 C 
ATOM     33  C   UNL     1       5.636   6.795  16.871  0.00  0.00    +0.000 C 
ATOM     34  C   UNL     1       7.074   6.866  17.379  0.00  0.00    +0.000 C 
ATOM     35  C   UNL     1       7.589   5.515  17.868  0.00  0.00    +0.000 C 
ATOM     36  C   UNL     1       7.379   4.416  16.825  0.00  0.00    +0.000 C 
ENDBRANCH  30  31
ENDBRANCH  29  30
ENDBRANCH  25  29
ENDBRANCH  20  21
ENDBRANCH   7  20
TORSDOF 10
ENDMDL
MODEL 9
REMARK VINA RESULT:      -7.8      2.598      4.053
REMARK  Name = 
REMARK  11 active torsions:
REMARK  status: ('A' for Active; 'I' for Inactive)
REMARK    1  A    between atoms: C_1  and  C_2
REMARK    2  A    between atoms: C_4  and  N_5
REMARK    3  A    between atoms: C_6  and  C_8
REMARK    4  A    between atoms: C_8  and  C_9
REMARK    5  A    between atoms: C_9  and  O_11
REMARK    6  A    between atoms: C_14  and  O_15
REMARK    7  A    between atoms: O_15  and  C_16
REMARK    8  A    between atoms: C_19  and  O_20
REMARK    9  A    between atoms: C_21  and  C_22
REMARK   10  A    between atoms: C_22  and  C_23
REMARK   11  A    between atoms: C_23  and  C_24
REMARK                            x       y       z     vdW  Elec       q    Type
REMARK                         _______ _______ _______ _____ _____    ______ ____
ROOT
ATOM      1  C   UNL     1       1.409  12.957  20.318  0.00  0.00    +0.000 C 
ATOM      2  C   UNL     1       0.159  12.359  19.728  0.00  0.00    +0.000 A 
ATOM      3  C   UNL     1      -1.038  13.002  20.103  0.00  0.00    +0.000 A 
ATOM      4  C   UNL     1      -2.294  12.632  19.626  0.00  0.00    +0.000 A 
ATOM      5  C   UNL     1      -2.330  11.626  18.666  0.00  0.00    +0.000 A 
ATOM      6  C   UNL     1      -1.155  10.937  18.312  0.00  0.00    +0.000 A 
ATOM      7  C   UNL     1       0.089  11.239  18.887  0.00  0.00    +0.000 A 
ATOM      8  C   UNL     1      -1.417   9.896  17.266  0.00  0.00    +0.000 C 
ATOM      9  C   UNL     1      -2.928   9.993  17.019  0.00  0.00    +0.000 C 
ATOM     10  C   UNL     1      -3.512  11.095  17.914  0.00  0.00    +0.000 C 
ENDROOT
BRANCH   4  11
ATOM     11  N   UNL     1      -3.470  13.280  20.070  0.00  0.00    +0.000 N 
ATOM     12  C   UNL     1      -4.084  13.055  21.289  0.00  0.00    +0.000 C 
ATOM     13  O   UNL     1      -3.751  12.197  22.111  0.00  0.00    +0.000 OA
ATOM     14  H   UNL     1      -3.951  13.876  19.396  0.00  0.00    +0.000 HD
BRANCH  12  15
ATOM     15  C   UNL     1      -5.270  13.907  21.666  0.00  0.00    +0.000 C 
BRANCH  15  16
ATOM     16  C   UNL     1      -5.459  15.224  21.005  0.00  0.00    +0.000 C 
ATOM     17  O   UNL     1      -5.471  16.308  21.576  0.00  0.00    +0.000 OA
BRANCH  16  18
ATOM     18  O   UNL     1      -5.607  15.118  19.662  0.00  0.00    +0.000 OA
ATOM     19  H   UNL     1      -5.252  15.875  19.153  0.00  0.00    +0.000 HD
ENDBRANCH  16  18
ENDBRANCH  15  16
ENDBRANCH  12  15
ENDBRANCH   4  11
BRANCH   7  20
ATOM     20  O   UNL     1       1.135  10.423  18.496  0.00  0.00    +0.000 OA
BRANCH  20  21
ATOM     21  C   UNL     1       1.303   9.189  19.083  0.00  0.00    +0.000 A 
ATOM     22  C   UNL     1       1.051   8.926  20.430  0.00  0.00    +0.000 A 
ATOM     23  C   UNL     1       1.507   7.737  21.000  0.00  0.00    +0.000 A 
ATOM     24  C   UNL     1       2.109   6.774  20.193  0.00  0.00    +0.000 A 
ATOM     25  C   UNL     1       2.202   6.946  18.807  0.00  0.00    +0.000 A 
ATOM     26  C   UNL     1       1.788   8.169  18.258  0.00  0.00    +0.000 A 
BRANCH  24  27
ATOM     27  O   UNL     1       2.645   5.651  20.760  0.00  0.00    +0.000 OA
ATOM     28  H   UNL     1       3.561   5.845  21.015  0.00  0.00    +0.000 HD
ENDBRANCH  24  27
BRANCH  25  29
ATOM     29  C   UNL     1       2.758   5.854  17.921  0.00  0.00    +0.000 C 
BRANCH  29  30
ATOM     30  C   UNL     1       4.244   6.081  17.613  0.00  0.00    +0.000 C 
BRANCH  30  31
ATOM     31  C   UNL     1       5.110   4.805  17.727  0.00  0.00    +0.000 C 
ATOM     32  C   UNL     1       4.945   3.834  16.545  0.00  0.00    +0.000 C 
ATOM     33  C   UNL     1       5.506   4.396  15.240  0.00  0.00    +0.000 C 
ATOM     34  C   UNL     1       6.967   4.814  15.389  0.00  0.00    +0.000 C 
ATOM     35  C   UNL     1       7.191   5.744  16.579  0.00  0.00    +0.000 C 
ATOM     36  C   UNL     1       6.600   5.169  17.868  0.00  0.00    +0.000 C 
ENDBRANCH  30  31
ENDBRANCH  29  30
ENDBRANCH  25  29
ENDBRANCH  20  21
ENDBRANCH   7  20
TORSDOF 10
ENDMDL
