MODEL 1
REMARK VINA RESULT:      -6.5      0.000      0.000
REMARK  Name = 
REMARK  5 active torsions:
REMARK  status: ('A' for Active; 'I' for Inactive)
REMARK    1  A    between atoms: C_1  and  N_2
REMARK    2  A    between atoms: C_6  and  C_7
REMARK    3  A    between atoms: C_15  and  C_16
REMARK    4  A    between atoms: C_16  and  N_17
REMARK    5  A    between atoms: N_22  and  C_23
REMARK                            x       y       z     vdW  Elec       q    Type
REMARK                         _______ _______ _______ _____ _____    ______ ____
ROOT
ATOM      1  C   UNL     1       2.213  10.373  18.052  0.00  0.00    +0.000 C 
ATOM      2  N   UNL     1       2.076   9.137  18.801  0.00  0.00    +0.000 N 
ATOM      3  C   UNL     1       2.576   7.970  18.250  0.00  0.00    +0.000 A 
ATOM      4  O   UNL     1       2.916   7.879  17.077  0.00  0.00    +0.000 OA
ATOM      5  C   UNL     1       2.658   6.789  19.155  0.00  0.00    +0.000 A 
ATOM      6  C   UNL     1       3.544   5.684  18.976  0.00  0.00    +0.000 A 
ATOM      7  C   UNL     1       3.462   4.619  19.936  0.00  0.00    +0.000 A 
ATOM      8  C   UNL     1       2.430   4.681  20.888  0.00  0.00    +0.000 A 
ATOM      9  N   UNL     1       2.192   3.685  21.822  0.00  0.00    +0.000 N 
ATOM     10  N   UNL     1       1.624   5.745  21.038  0.00  0.00    +0.000 NA
ATOM     11  C   UNL     1       1.766   6.803  20.215  0.00  0.00    +0.000 A 
ATOM     12  N   UNL     1       0.975   7.942  20.489  0.00  0.00    +0.000 N 
ATOM     13  C   UNL     1       0.006   7.916  21.573  0.00  0.00    +0.000 C 
ATOM     14  C   UNL     1       1.148   9.136  19.825  0.00  0.00    +0.000 A 
ATOM     15  O   UNL     1       0.494  10.142  20.110  0.00  0.00    +0.000 OA
ATOM     16  H   UNL     1       2.214   2.746  21.447  0.00  0.00    +0.000 HD
ATOM     17  H   UNL     1       1.349   3.900  22.345  0.00  0.00    +0.000 HD
ENDROOT
BRANCH   6  18
ATOM     18  C   UNL     1       4.603   5.687  17.897  0.00  0.00    +0.000 A 
ATOM     19  C   UNL     1       5.677   6.603  17.992  0.00  0.00    +0.000 A 
ATOM     20  C   UNL     1       6.709   6.646  17.050  0.00  0.00    +0.000 A 
ATOM     21  C   UNL     1       6.775   5.682  16.055  0.00  0.00    +0.000 A 
ATOM     22  C   UNL     1       5.749   4.747  15.937  0.00  0.00    +0.000 A 
ATOM     23 CL   UNL     1       5.967   3.487  14.768  0.00  0.00    +0.000 Cl
ATOM     24  C   UNL     1       4.620   4.814  16.779  0.00  0.00    +0.000 A 
ATOM     25 CL   UNL     1       3.223   3.844  16.383  0.00  0.00    +0.000 Cl
ENDBRANCH   6  18
BRANCH   7  26
ATOM     26  C   UNL     1       4.370   3.396  19.915  0.00  0.00    +0.000 C 
BRANCH  26  27
ATOM     27  N   UNL     1       3.765   2.166  19.414  0.00  0.00    +0.000 NA
ATOM     28  H   UNL     1       3.734   1.474  20.159  0.00  0.00    +0.000 HD
ATOM     29  H   UNL     1       4.369   1.776  18.690  0.00  0.00    +0.000 HD
ENDBRANCH  26  27
ENDBRANCH   7  26
TORSDOF 3
ENDMDL
MODEL 2
REMARK VINA RESULT:      -6.5      6.913      9.201
REMARK  Name = 
REMARK  5 active torsions:
REMARK  status: ('A' for Active; 'I' for Inactive)
REMARK    1  A    between atoms: C_1  and  N_2
REMARK    2  A    between atoms: C_6  and  C_7
REMARK    3  A    between atoms: C_15  and  C_16
REMARK    4  A    between atoms: C_16  and  N_17
REMARK    5  A    between atoms: N_22  and  C_23
REMARK                            x       y       z     vdW  Elec       q    Type
REMARK                         _______ _______ _______ _____ _____    ______ ____
ROOT
ATOM      1  C   UNL     1      -3.089  13.465  23.864  0.00  0.00    +0.000 C 
ATOM      2  N   UNL     1      -3.662  13.191  22.558  0.00  0.00    +0.000 N 
ATOM      3  C   UNL     1      -2.809  13.041  21.478  0.00  0.00    +0.000 A 
ATOM      4  O   UNL     1      -1.625  13.353  21.516  0.00  0.00    +0.000 OA
ATOM      5  C   UNL     1      -3.409  12.500  20.226  0.00  0.00    +0.000 A 
ATOM      6  C   UNL     1      -2.683  11.827  19.198  0.00  0.00    +0.000 A 
ATOM      7  C   UNL     1      -3.427  11.399  18.046  0.00  0.00    +0.000 A 
ATOM      8  C   UNL     1      -4.772  11.794  17.959  0.00  0.00    +0.000 A 
ATOM      9  N   UNL     1      -5.581  11.513  16.869  0.00  0.00    +0.000 N 
ATOM     10  N   UNL     1      -5.429  12.413  18.954  0.00  0.00    +0.000 NA
ATOM     11  C   UNL     1      -4.770  12.719  20.090  0.00  0.00    +0.000 A 
ATOM     12  N   UNL     1      -5.533  13.262  21.149  0.00  0.00    +0.000 N 
ATOM     13  C   UNL     1      -6.949  13.534  20.965  0.00  0.00    +0.000 C 
ATOM     14  C   UNL     1      -5.009  13.460  22.407  0.00  0.00    +0.000 A 
ATOM     15  O   UNL     1      -5.697  13.879  23.342  0.00  0.00    +0.000 OA
ATOM     16  H   UNL     1      -5.147  11.684  15.971  0.00  0.00    +0.000 HD
ATOM     17  H   UNL     1      -6.481  11.968  16.985  0.00  0.00    +0.000 HD
ENDROOT
BRANCH   6  18
ATOM     18  C   UNL     1      -1.222  11.474  19.364  0.00  0.00    +0.000 A 
ATOM     19  C   UNL     1      -0.877  10.265  20.010  0.00  0.00    +0.000 A 
ATOM     20  C   UNL     1       0.450   9.856  20.175  0.00  0.00    +0.000 A 
ATOM     21  C   UNL     1       1.472  10.576  19.576  0.00  0.00    +0.000 A 
ATOM     22  C   UNL     1       1.176  11.764  18.910  0.00  0.00    +0.000 A 
ATOM     23 CL   UNL     1       2.477  12.535  18.064  0.00  0.00    +0.000 Cl
ATOM     24  C   UNL     1      -0.142  12.266  18.896  0.00  0.00    +0.000 A 
ATOM     25 CL   UNL     1      -0.406  13.903  18.348  0.00  0.00    +0.000 Cl
ENDBRANCH   6  18
BRANCH   7  26
ATOM     26  C   UNL     1      -2.811  10.626  16.887  0.00  0.00    +0.000 C 
BRANCH  26  27
ATOM     27  N   UNL     1      -2.569  11.395  15.670  0.00  0.00    +0.000 NA
ATOM     28  H   UNL     1      -2.357  10.759  14.904  0.00  0.00    +0.000 HD
ATOM     29  H   UNL     1      -1.733  11.965  15.805  0.00  0.00    +0.000 HD
ENDBRANCH  26  27
ENDBRANCH   7  26
TORSDOF 3
ENDMDL
MODEL 3
REMARK VINA RESULT:      -6.0      7.860      9.542
REMARK  Name = 
REMARK  5 active torsions:
REMARK  status: ('A' for Active; 'I' for Inactive)
REMARK    1  A    between atoms: C_1  and  N_2
REMARK    2  A    between atoms: C_6  and  C_7
REMARK    3  A    between atoms: C_15  and  C_16
REMARK    4  A    between atoms: C_16  and  N_17
REMARK    5  A    between atoms: N_22  and  C_23
REMARK                            x       y       z     vdW  Elec       q    Type
REMARK                         _______ _______ _______ _____ _____    ______ ____
ROOT
ATOM      1  C   UNL     1      -5.850  12.653  17.146  0.00  0.00    +0.000 C 
ATOM      2  N   UNL     1      -5.548  12.582  18.564  0.00  0.00    +0.000 N 
ATOM      3  C   UNL     1      -4.261  12.254  18.952  0.00  0.00    +0.000 A 
ATOM      4  O   UNL     1      -3.428  11.797  18.180  0.00  0.00    +0.000 OA
ATOM      5  C   UNL     1      -3.928  12.455  20.391  0.00  0.00    +0.000 A 
ATOM      6  C   UNL     1      -2.611  12.652  20.904  0.00  0.00    +0.000 A 
ATOM      7  C   UNL     1      -2.480  12.800  22.327  0.00  0.00    +0.000 A 
ATOM      8  C   UNL     1      -3.630  12.603  23.109  0.00  0.00    +0.000 A 
ATOM      9  N   UNL     1      -3.627  12.643  24.495  0.00  0.00    +0.000 N 
ATOM     10  N   UNL     1      -4.858  12.435  22.591  0.00  0.00    +0.000 NA
ATOM     11  C   UNL     1      -5.013  12.409  21.253  0.00  0.00    +0.000 A 
ATOM     12  N   UNL     1      -6.336  12.350  20.759  0.00  0.00    +0.000 N 
ATOM     13  C   UNL     1      -7.456  12.248  21.681  0.00  0.00    +0.000 C 
ATOM     14  C   UNL     1      -6.629  12.483  19.420  0.00  0.00    +0.000 A 
ATOM     15  O   UNL     1      -7.791  12.489  19.004  0.00  0.00    +0.000 OA
ATOM     16  H   UNL     1      -2.866  12.134  24.926  0.00  0.00    +0.000 HD
ATOM     17  H   UNL     1      -4.544  12.388  24.846  0.00  0.00    +0.000 HD
ENDROOT
BRANCH   6  18
ATOM     18  C   UNL     1      -1.422  12.817  19.985  0.00  0.00    +0.000 A 
ATOM     19  C   UNL     1      -1.076  14.113  19.537  0.00  0.00    +0.000 A 
ATOM     20  C   UNL     1       0.027  14.349  18.710  0.00  0.00    +0.000 A 
ATOM     21  C   UNL     1       0.902  13.314  18.416  0.00  0.00    +0.000 A 
ATOM     22  C   UNL     1       0.611  12.024  18.855  0.00  0.00    +0.000 A 
ATOM     23 CL   UNL     1       1.816  10.810  18.577  0.00  0.00    +0.000 Cl
ATOM     24  C   UNL     1      -0.593  11.756  19.539  0.00  0.00    +0.000 A 
ATOM     25 CL   UNL     1      -1.068  10.092  19.773  0.00  0.00    +0.000 Cl
ENDBRANCH   6  18
BRANCH   7  26
ATOM     26  C   UNL     1      -1.153  13.066  23.025  0.00  0.00    +0.000 C 
BRANCH  26  27
ATOM     27  N   UNL     1      -1.081  14.301  23.802  0.00  0.00    +0.000 NA
ATOM     28  H   UNL     1      -2.006  14.531  24.159  0.00  0.00    +0.000 HD
ATOM     29  H   UNL     1      -0.821  15.064  23.178  0.00  0.00    +0.000 HD
ENDBRANCH  26  27
ENDBRANCH   7  26
TORSDOF 3
ENDMDL
MODEL 4
REMARK VINA RESULT:      -6.0      8.195     11.660
REMARK  Name = 
REMARK  5 active torsions:
REMARK  status: ('A' for Active; 'I' for Inactive)
REMARK    1  A    between atoms: C_1  and  N_2
REMARK    2  A    between atoms: C_6  and  C_7
REMARK    3  A    between atoms: C_15  and  C_16
REMARK    4  A    between atoms: C_16  and  N_17
REMARK    5  A    between atoms: N_22  and  C_23
REMARK                            x       y       z     vdW  Elec       q    Type
REMARK                         _______ _______ _______ _____ _____    ______ ____
ROOT
ATOM      1  C   UNL     1      -1.344  13.457  23.344  0.00  0.00    +0.000 C 
ATOM      2  N   UNL     1      -1.615  12.992  21.995  0.00  0.00    +0.000 N 
ATOM      3  C   UNL     1      -2.893  12.556  21.689  0.00  0.00    +0.000 A 
ATOM      4  O   UNL     1      -3.740  12.322  22.542  0.00  0.00    +0.000 OA
ATOM      5  C   UNL     1      -3.196  12.346  20.245  0.00  0.00    +0.000 A 
ATOM      6  C   UNL     1      -4.503  12.380  19.673  0.00  0.00    +0.000 A 
ATOM      7  C   UNL     1      -4.605  12.126  18.263  0.00  0.00    +0.000 A 
ATOM      8  C   UNL     1      -3.438  11.732  17.588  0.00  0.00    +0.000 A 
ATOM      9  N   UNL     1      -3.412  11.385  16.246  0.00  0.00    +0.000 N 
ATOM     10  N   UNL     1      -2.220  11.727  18.155  0.00  0.00    +0.000 NA
ATOM     11  C   UNL     1      -2.093  12.075  19.451  0.00  0.00    +0.000 A 
ATOM     12  N   UNL     1      -0.780  12.168  19.967  0.00  0.00    +0.000 N 
ATOM     13  C   UNL     1       0.360  11.826  19.131  0.00  0.00    +0.000 C 
ATOM     14  C   UNL     1      -0.516  12.671  21.221  0.00  0.00    +0.000 A 
ATOM     15  O   UNL     1       0.636  12.804  21.642  0.00  0.00    +0.000 OA
ATOM     16  H   UNL     1      -4.161  10.769  15.958  0.00  0.00    +0.000 HD
ATOM     17  H   UNL     1      -2.486  11.052  15.996  0.00  0.00    +0.000 HD
ENDROOT
BRANCH   6  18
ATOM     18  C   UNL     1      -5.712  12.781  20.487  0.00  0.00    +0.000 A 
ATOM     19  C   UNL     1      -6.587  11.774  20.958  0.00  0.00    +0.000 A 
ATOM     20  C   UNL     1      -7.709  12.064  21.740  0.00  0.00    +0.000 A 
ATOM     21  C   UNL     1      -7.916  13.357  22.195  0.00  0.00    +0.000 A 
ATOM     22  C   UNL     1      -7.067  14.378  21.773  0.00  0.00    +0.000 A 
ATOM     23 CL   UNL     1      -7.297  15.937  22.492  0.00  0.00    +0.000 Cl
ATOM     24  C   UNL     1      -6.040  14.114  20.843  0.00  0.00    +0.000 A 
ATOM     25 CL   UNL     1      -5.224  15.465  20.096  0.00  0.00    +0.000 Cl
ENDBRANCH   6  18
BRANCH   7  26
ATOM     26  C   UNL     1      -5.918  12.174  17.492  0.00  0.00    +0.000 C 
BRANCH  26  27
ATOM     27  N   UNL     1      -6.344  13.498  17.047  0.00  0.00    +0.000 NA
ATOM     28  H   UNL     1      -6.961  13.404  16.244  0.00  0.00    +0.000 HD
ATOM     29  H   UNL     1      -5.525  14.010  16.717  0.00  0.00    +0.000 HD
ENDBRANCH  26  27
ENDBRANCH   7  26
TORSDOF 3
ENDMDL
MODEL 5
REMARK VINA RESULT:      -5.9     10.128     11.383
REMARK  Name = 
REMARK  5 active torsions:
REMARK  status: ('A' for Active; 'I' for Inactive)
REMARK    1  A    between atoms: C_1  and  N_2
REMARK    2  A    between atoms: C_6  and  C_7
REMARK    3  A    between atoms: C_15  and  C_16
REMARK    4  A    between atoms: C_16  and  N_17
REMARK    5  A    between atoms: N_22  and  C_23
REMARK                            x       y       z     vdW  Elec       q    Type
REMARK                         _______ _______ _______ _____ _____    ______ ____
ROOT
ATOM      1  C   UNL     1      -4.618  11.705  17.377  0.00  0.00    +0.000 C 
ATOM      2  N   UNL     1      -5.058  11.916  18.745  0.00  0.00    +0.000 N 
ATOM      3  C   UNL     1      -4.150  12.414  19.664  0.00  0.00    +0.000 A 
ATOM      4  O   UNL     1      -2.946  12.468  19.449  0.00  0.00    +0.000 OA
ATOM      5  C   UNL     1      -4.706  12.865  20.970  0.00  0.00    +0.000 A 
ATOM      6  C   UNL     1      -4.088  13.818  21.835  0.00  0.00    +0.000 A 
ATOM      7  C   UNL     1      -4.758  14.109  23.071  0.00  0.00    +0.000 A 
ATOM      8  C   UNL     1      -5.888  13.340  23.394  0.00  0.00    +0.000 A 
ATOM      9  N   UNL     1      -6.583  13.466  24.587  0.00  0.00    +0.000 N 
ATOM     10  N   UNL     1      -6.454  12.462  22.548  0.00  0.00    +0.000 NA
ATOM     11  C   UNL     1      -5.900  12.262  21.336  0.00  0.00    +0.000 A 
ATOM     12  N   UNL     1      -6.597  11.420  20.441  0.00  0.00    +0.000 N 
ATOM     13  C   UNL     1      -7.819  10.755  20.864  0.00  0.00    +0.000 C 
ATOM     14  C   UNL     1      -6.220  11.271  19.125  0.00  0.00    +0.000 A 
ATOM     15  O   UNL     1      -6.868  10.581  18.334  0.00  0.00    +0.000 OA
ATOM     16  H   UNL     1      -5.996  13.518  25.409  0.00  0.00    +0.000 HD
ATOM     17  H   UNL     1      -7.305  12.755  24.640  0.00  0.00    +0.000 HD
ENDROOT
BRANCH   6  18
ATOM     18  C   UNL     1      -2.847  14.574  21.418  0.00  0.00    +0.000 A 
ATOM     19  C   UNL     1      -2.988  15.763  20.665  0.00  0.00    +0.000 A 
ATOM     20  C   UNL     1      -1.890  16.532  20.269  0.00  0.00    +0.000 A 
ATOM     21  C   UNL     1      -0.622  16.213  20.730  0.00  0.00    +0.000 A 
ATOM     22  C   UNL     1      -0.439  15.061  21.492  0.00  0.00    +0.000 A 
ATOM     23 CL   UNL     1       1.141  14.801  22.154  0.00  0.00    +0.000 Cl
ATOM     24  C   UNL     1      -1.520  14.191  21.744  0.00  0.00    +0.000 A 
ATOM     25 CL   UNL     1      -1.184  12.612  22.408  0.00  0.00    +0.000 Cl
ENDBRANCH   6  18
BRANCH   7  26
ATOM     26  C   UNL     1      -4.256  15.136  24.079  0.00  0.00    +0.000 C 
BRANCH  26  27
ATOM     27  N   UNL     1      -3.618  14.592  25.274  0.00  0.00    +0.000 NA
ATOM     28  H   UNL     1      -3.827  13.599  25.348  0.00  0.00    +0.000 HD
ATOM     29  H   UNL     1      -4.034  15.032  26.095  0.00  0.00    +0.000 HD
ENDBRANCH  26  27
ENDBRANCH   7  26
TORSDOF 3
ENDMDL
MODEL 6
REMARK VINA RESULT:      -5.9      9.998     11.328
REMARK  Name = 
REMARK  5 active torsions:
REMARK  status: ('A' for Active; 'I' for Inactive)
REMARK    1  A    between atoms: C_1  and  N_2
REMARK    2  A    between atoms: C_6  and  C_7
REMARK    3  A    between atoms: C_15  and  C_16
REMARK    4  A    between atoms: C_16  and  N_17
REMARK    5  A    between atoms: N_22  and  C_23
REMARK                            x       y       z     vdW  Elec       q    Type
REMARK                         _______ _______ _______ _____ _____    ______ ____
ROOT
ATOM      1  C   UNL     1      -4.386  11.674  17.392  0.00  0.00    +0.000 C 
ATOM      2  N   UNL     1      -4.869  11.887  18.744  0.00  0.00    +0.000 N 
ATOM      3  C   UNL     1      -3.962  12.264  19.720  0.00  0.00    +0.000 A 
ATOM      4  O   UNL     1      -2.750  12.203  19.562  0.00  0.00    +0.000 OA
ATOM      5  C   UNL     1      -4.534  12.729  21.015  0.00  0.00    +0.000 A 
ATOM      6  C   UNL     1      -3.867  13.589  21.939  0.00  0.00    +0.000 A 
ATOM      7  C   UNL     1      -4.564  13.909  23.153  0.00  0.00    +0.000 A 
ATOM      8  C   UNL     1      -5.779  13.248  23.398  0.00  0.00    +0.000 A 
ATOM      9  N   UNL     1      -6.515  13.408  24.562  0.00  0.00    +0.000 N 
ATOM     10  N   UNL     1      -6.387  12.457  22.497  0.00  0.00    +0.000 NA
ATOM     11  C   UNL     1      -5.797  12.239  21.305  0.00  0.00    +0.000 A 
ATOM     12  N   UNL     1      -6.530  11.499  20.350  0.00  0.00    +0.000 N 
ATOM     13  C   UNL     1      -7.831  10.948  20.695  0.00  0.00    +0.000 C 
ATOM     14  C   UNL     1      -6.106  11.352  19.048  0.00  0.00    +0.000 A 
ATOM     15  O   UNL     1      -6.781  10.754  18.206  0.00  0.00    +0.000 OA
ATOM     16  H   UNL     1      -5.967  13.376  25.411  0.00  0.00    +0.000 HD
ATOM     17  H   UNL     1      -7.306  12.771  24.557  0.00  0.00    +0.000 HD
ENDROOT
BRANCH   6  18
ATOM     18  C   UNL     1      -2.538  14.228  21.606  0.00  0.00    +0.000 A 
ATOM     19  C   UNL     1      -1.349  13.629  22.083  0.00  0.00    +0.000 A 
ATOM     20  C   UNL     1      -0.082  14.145  21.792  0.00  0.00    +0.000 A 
ATOM     21  C   UNL     1       0.045  15.198  20.899  0.00  0.00    +0.000 A 
ATOM     22  C   UNL     1      -1.100  15.806  20.388  0.00  0.00    +0.000 A 
ATOM     23 CL   UNL     1      -0.868  17.017  19.171  0.00  0.00    +0.000 Cl
ATOM     24  C   UNL     1      -2.380  15.398  20.819  0.00  0.00    +0.000 A 
ATOM     25 CL   UNL     1      -3.755  16.396  20.414  0.00  0.00    +0.000 Cl
ENDBRANCH   6  18
BRANCH   7  26
ATOM     26  C   UNL     1      -4.012  14.849  24.217  0.00  0.00    +0.000 C 
BRANCH  26  27
ATOM     27  N   UNL     1      -3.485  14.208  25.418  0.00  0.00    +0.000 NA
ATOM     28  H   UNL     1      -3.461  14.882  26.180  0.00  0.00    +0.000 HD
ATOM     29  H   UNL     1      -2.516  13.939  25.246  0.00  0.00    +0.000 HD
ENDBRANCH  26  27
ENDBRANCH   7  26
TORSDOF 3
ENDMDL
MODEL 7
REMARK VINA RESULT:      -5.9      8.611     12.331
REMARK  Name = 
REMARK  5 active torsions:
REMARK  status: ('A' for Active; 'I' for Inactive)
REMARK    1  A    between atoms: C_1  and  N_2
REMARK    2  A    between atoms: C_6  and  C_7
REMARK    3  A    between atoms: C_15  and  C_16
REMARK    4  A    between atoms: C_16  and  N_17
REMARK    5  A    between atoms: N_22  and  C_23
REMARK                            x       y       z     vdW  Elec       q    Type
REMARK                         _______ _______ _______ _____ _____    ______ ____
ROOT
ATOM      1  C   UNL     1      -0.945  12.821  22.647  0.00  0.00    +0.000 C 
ATOM      2  N   UNL     1      -1.798  12.548  21.505  0.00  0.00    +0.000 N 
ATOM      3  C   UNL     1      -3.159  12.406  21.713  0.00  0.00    +0.000 A 
ATOM      4  O   UNL     1      -3.652  12.267  22.825  0.00  0.00    +0.000 OA
ATOM      5  C   UNL     1      -4.020  12.398  20.497  0.00  0.00    +0.000 A 
ATOM      6  C   UNL     1      -5.404  12.746  20.476  0.00  0.00    +0.000 A 
ATOM      7  C   UNL     1      -6.082  12.651  19.213  0.00  0.00    +0.000 A 
ATOM      8  C   UNL     1      -5.372  12.097  18.135  0.00  0.00    +0.000 A 
ATOM      9  N   UNL     1      -5.929  11.880  16.884  0.00  0.00    +0.000 N 
ATOM     10  N   UNL     1      -4.064  11.796  18.186  0.00  0.00    +0.000 NA
ATOM     11  C   UNL     1      -3.386  11.988  19.335  0.00  0.00    +0.000 A 
ATOM     12  N   UNL     1      -1.990  11.769  19.303  0.00  0.00    +0.000 N 
ATOM     13  C   UNL     1      -1.353  11.287  18.088  0.00  0.00    +0.000 C 
ATOM     14  C   UNL     1      -1.170  12.089  20.362  0.00  0.00    +0.000 A 
ATOM     15  O   UNL     1       0.054  11.950  20.305  0.00  0.00    +0.000 OA
ATOM     16  H   UNL     1      -6.847  11.456  16.903  0.00  0.00    +0.000 HD
ATOM     17  H   UNL     1      -5.263  11.394  16.292  0.00  0.00    +0.000 HD
ENDROOT
BRANCH   6  18
ATOM     18  C   UNL     1      -6.099  13.301  21.698  0.00  0.00    +0.000 A 
ATOM     19  C   UNL     1      -6.936  12.451  22.458  0.00  0.00    +0.000 A 
ATOM     20  C   UNL     1      -7.588  12.883  23.617  0.00  0.00    +0.000 A 
ATOM     21  C   UNL     1      -7.315  14.141  24.133  0.00  0.00    +0.000 A 
ATOM     22  C   UNL     1      -6.480  15.005  23.428  0.00  0.00    +0.000 A 
ATOM     23 CL   UNL     1      -6.069  16.501  24.199  0.00  0.00    +0.000 Cl
ATOM     24  C   UNL     1      -5.963  14.632  22.170  0.00  0.00    +0.000 A 
ATOM     25 CL   UNL     1      -5.205  15.856  21.182  0.00  0.00    +0.000 Cl
ENDBRANCH   6  18
BRANCH   7  26
ATOM     26  C   UNL     1      -7.543  13.032  19.012  0.00  0.00    +0.000 C 
BRANCH  26  27
ATOM     27  N   UNL     1      -7.803  14.022  17.971  0.00  0.00    +0.000 NA
ATOM     28  H   UNL     1      -8.798  14.230  17.941  0.00  0.00    +0.000 HD
ATOM     29  H   UNL     1      -7.571  13.613  17.066  0.00  0.00    +0.000 HD
ENDBRANCH  26  27
ENDBRANCH   7  26
TORSDOF 3
ENDMDL
MODEL 8
REMARK VINA RESULT:      -5.9      8.976     11.111
REMARK  Name = 
REMARK  5 active torsions:
REMARK  status: ('A' for Active; 'I' for Inactive)
REMARK    1  A    between atoms: C_1  and  N_2
REMARK    2  A    between atoms: C_6  and  C_7
REMARK    3  A    between atoms: C_15  and  C_16
REMARK    4  A    between atoms: C_16  and  N_17
REMARK    5  A    between atoms: N_22  and  C_23
REMARK                            x       y       z     vdW  Elec       q    Type
REMARK                         _______ _______ _______ _____ _____    ______ ____
ROOT
ATOM      1  C   UNL     1       6.202  13.998  22.901  0.00  0.00    +0.000 C 
ATOM      2  N   UNL     1       6.744  14.981  21.981  0.00  0.00    +0.000 N 
ATOM      3  C   UNL     1       7.978  14.739  21.403  0.00  0.00    +0.000 A 
ATOM      4  O   UNL     1       8.738  13.863  21.797  0.00  0.00    +0.000 OA
ATOM      5  C   UNL     1       8.370  15.628  20.273  0.00  0.00    +0.000 A 
ATOM      6  C   UNL     1       9.308  15.286  19.253  0.00  0.00    +0.000 A 
ATOM      7  C   UNL     1       9.583  16.284  18.258  0.00  0.00    +0.000 A 
ATOM      8  C   UNL     1       9.017  17.557  18.440  0.00  0.00    +0.000 A 
ATOM      9  N   UNL     1       9.262  18.629  17.597  0.00  0.00    +0.000 N 
ATOM     10  N   UNL     1       8.124  17.839  19.403  0.00  0.00    +0.000 NA
ATOM     11  C   UNL     1       7.769  16.877  20.278  0.00  0.00    +0.000 A 
ATOM     12  N   UNL     1       6.740  17.189  21.195  0.00  0.00    +0.000 N 
ATOM     13  C   UNL     1       6.162  18.523  21.219  0.00  0.00    +0.000 C 
ATOM     14  C   UNL     1       6.179  16.242  22.023  0.00  0.00    +0.000 A 
ATOM     15  O   UNL     1       5.242  16.509  22.779  0.00  0.00    +0.000 OA
ATOM     16  H   UNL     1      10.234  18.753  17.349  0.00  0.00    +0.000 HD
ATOM     17  H   UNL     1       8.822  19.464  17.969  0.00  0.00    +0.000 HD
ENDROOT
BRANCH   6  18
ATOM     18  C   UNL     1       9.897  13.897  19.155  0.00  0.00    +0.000 A 
ATOM     19  C   UNL     1      11.155  13.641  19.749  0.00  0.00    +0.000 A 
ATOM     20  C   UNL     1      11.750  12.376  19.725  0.00  0.00    +0.000 A 
ATOM     21  C   UNL     1      11.044  11.291  19.228  0.00  0.00    +0.000 A 
ATOM     22  C   UNL     1       9.792  11.494  18.651  0.00  0.00    +0.000 A 
ATOM     23 CL   UNL     1       8.907  10.079  18.182  0.00  0.00    +0.000 Cl
ATOM     24  C   UNL     1       9.268  12.796  18.517  0.00  0.00    +0.000 A 
ATOM     25 CL   UNL     1       7.868  13.033  17.502  0.00  0.00    +0.000 Cl
ENDBRANCH   6  18
BRANCH   7  26
ATOM     26  C   UNL     1      10.520  16.059  17.078  0.00  0.00    +0.000 C 
BRANCH  26  27
ATOM     27  N   UNL     1      11.817  16.724  17.162  0.00  0.00    +0.000 NA
ATOM     28  H   UNL     1      11.679  17.711  17.365  0.00  0.00    +0.000 HD
ATOM     29  H   UNL     1      12.265  16.682  16.246  0.00  0.00    +0.000 HD
ENDBRANCH  26  27
ENDBRANCH   7  26
TORSDOF 3
ENDMDL
MODEL 9
REMARK VINA RESULT:      -5.8      8.454     11.003
REMARK  Name = 
REMARK  5 active torsions:
REMARK  status: ('A' for Active; 'I' for Inactive)
REMARK    1  A    between atoms: C_1  and  N_2
REMARK    2  A    between atoms: C_6  and  C_7
REMARK    3  A    between atoms: C_15  and  C_16
REMARK    4  A    between atoms: C_16  and  N_17
REMARK    5  A    between atoms: N_22  and  C_23
REMARK                            x       y       z     vdW  Elec       q    Type
REMARK                         _______ _______ _______ _____ _____    ______ ____
ROOT
ATOM      1  C   UNL     1      -7.458  13.297  19.645  0.00  0.00    +0.000 C 
ATOM      2  N   UNL     1      -6.110  12.825  19.385  0.00  0.00    +0.000 N 
ATOM      3  C   UNL     1      -5.071  13.334  20.144  0.00  0.00    +0.000 A 
ATOM      4  O   UNL     1      -5.189  14.321  20.858  0.00  0.00    +0.000 OA
ATOM      5  C   UNL     1      -3.760  12.634  20.033  0.00  0.00    +0.000 A 
ATOM      6  C   UNL     1      -2.737  12.655  21.027  0.00  0.00    +0.000 A 
ATOM      7  C   UNL     1      -1.524  11.943  20.732  0.00  0.00    +0.000 A 
ATOM      8  C   UNL     1      -1.387  11.401  19.443  0.00  0.00    +0.000 A 
ATOM      9  N   UNL     1      -0.241  10.756  19.004  0.00  0.00    +0.000 N 
ATOM     10  N   UNL     1      -2.379  11.384  18.537  0.00  0.00    +0.000 NA
ATOM     11  C   UNL     1      -3.563  11.949  18.844  0.00  0.00    +0.000 A 
ATOM     12  N   UNL     1      -4.609  11.801  17.904  0.00  0.00    +0.000 N 
ATOM     13  C   UNL     1      -4.365  11.127  16.639  0.00  0.00    +0.000 C 
ATOM     14  C   UNL     1      -5.903  12.189  18.175  0.00  0.00    +0.000 A 
ATOM     15  O   UNL     1      -6.821  12.003  17.373  0.00  0.00    +0.000 OA
ATOM     16  H   UNL     1       0.621  11.232  19.235  0.00  0.00    +0.000 HD
ATOM     17  H   UNL     1      -0.334  10.526  18.020  0.00  0.00    +0.000 HD
ENDROOT
BRANCH   6  18
ATOM     18  C   UNL     1      -2.960  13.298  22.377  0.00  0.00    +0.000 A 
ATOM     19  C   UNL     1      -3.666  12.580  23.370  0.00  0.00    +0.000 A 
ATOM     20  C   UNL     1      -3.887  13.095  24.651  0.00  0.00    +0.000 A 
ATOM     21  C   UNL     1      -3.289  14.288  25.027  0.00  0.00    +0.000 A 
ATOM     22  C   UNL     1      -2.566  15.019  24.086  0.00  0.00    +0.000 A 
ATOM     23 CL   UNL     1      -1.728  16.423  24.660  0.00  0.00    +0.000 Cl
ATOM     24  C   UNL     1      -2.492  14.585  22.747  0.00  0.00    +0.000 A 
ATOM     25 CL   UNL     1      -1.868  15.688  21.545  0.00  0.00    +0.000 Cl
ENDBRANCH   6  18
BRANCH   7  26
ATOM     26  C   UNL     1      -0.358  11.829  21.706  0.00  0.00    +0.000 C 
BRANCH  26  27
ATOM     27  N   UNL     1       0.843  12.578  21.348  0.00  0.00    +0.000 NA
ATOM     28  H   UNL     1       1.258  12.975  22.187  0.00  0.00    +0.000 HD
ATOM     29  H   UNL     1       0.572  13.369  20.763  0.00  0.00    +0.000 HD
ENDBRANCH  26  27
ENDBRANCH   7  26
TORSDOF 3
ENDMDL
