MODEL 1
REMARK VINA RESULT:      -7.9      0.000      0.000
REMARK  Name = 
REMARK  4 active torsions:
REMARK  status: ('A' for Active; 'I' for Inactive)
REMARK    1  A    between atoms: C_4  and  O_5
REMARK    2  A    between atoms: O_5  and  C_6
REMARK    3  A    between atoms: C_9  and  C_10
REMARK    4  A    between atoms: C_12  and  N_13
REMARK                            x       y       z     vdW  Elec       q    Type
REMARK                         _______ _______ _______ _____ _____    ______ ____
ROOT
ATOM      1  C   UNL     1       4.896   4.925  16.461  0.00  0.00    +0.000 A 
ATOM      2  C   UNL     1       3.841   4.454  17.250  0.00  0.00    +0.000 A 
ATOM      3  C   UNL     1       3.017   5.349  17.937  0.00  0.00    +0.000 A 
ATOM      4  C   UNL     1       3.240   6.737  17.850  0.00  0.00    +0.000 A 
ATOM      5  C   UNL     1       4.302   7.205  17.064  0.00  0.00    +0.000 A 
ATOM      6  C   UNL     1       5.125   6.312  16.381  0.00  0.00    +0.000 A 
ENDROOT
BRANCH   4   7
ATOM      7  C   UNL     1       2.394   7.706  18.583  0.00  0.00    +0.000 A 
ATOM      8  C   UNL     1       1.747   8.810  18.059  0.00  0.00    +0.000 A 
ATOM      9  C   UNL     1       1.068   9.362  19.132  0.00  0.00    +0.000 A 
ATOM     10  N   UNL     1       1.322   8.613  20.229  0.00  0.00    +0.000 N 
ATOM     11  N   UNL     1       2.121   7.611  19.900  0.00  0.00    +0.000 NA
ATOM     12  H   UNL     1       0.967   8.743  21.199  0.00  0.00    +0.000 HD
BRANCH   9  13
ATOM     13  N   UNL     1       0.211  10.517  19.097  0.00  0.00    +0.000 N 
ATOM     14  C   UNL     1       0.692  11.858  19.394  0.00  0.00    +0.000 C 
ATOM     15  C   UNL     1       0.393  12.760  18.193  0.00  0.00    +0.000 C 
ATOM     16  N   UNL     1      -1.044  12.720  17.883  0.00  0.00    +0.000 NA
ATOM     17  C   UNL     1      -1.470  11.352  17.556  0.00  0.00    +0.000 C 
ATOM     18  C   UNL     1      -1.200  10.426  18.745  0.00  0.00    +0.000 C 
ATOM     19  H   UNL     1      -1.226  13.335  17.056  0.00  0.00    +0.000 HD
ENDBRANCH   9  13
ENDBRANCH   4   7
BRANCH   1  20
ATOM     20  O   UNL     1       5.687   4.027  15.817  0.00  0.00    +0.000 OA
BRANCH  20  24
ATOM     21  C   UNL     1       7.173   4.386  11.942  0.00  0.00    +0.000 A 
ATOM     22  C   UNL     1       7.785   5.059  13.004  0.00  0.00    +0.000 A 
ATOM     23  C   UNL     1       7.283   4.927  14.302  0.00  0.00    +0.000 A 
ATOM     24  C   UNL     1       6.157   4.130  14.546  0.00  0.00    +0.000 A 
ATOM     25  C   UNL     1       5.555   3.444  13.472  0.00  0.00    +0.000 A 
ATOM     26  C   UNL     1       6.061   3.575  12.178  0.00  0.00    +0.000 A 
ENDBRANCH  20  24
ENDBRANCH   1  20
TORSDOF 4
ENDMDL
MODEL 2
REMARK VINA RESULT:      -7.9      0.169      1.003
REMARK  Name = 
REMARK  4 active torsions:
REMARK  status: ('A' for Active; 'I' for Inactive)
REMARK    1  A    between atoms: C_4  and  O_5
REMARK    2  A    between atoms: O_5  and  C_6
REMARK    3  A    between atoms: C_9  and  C_10
REMARK    4  A    between atoms: C_12  and  N_13
REMARK                            x       y       z     vdW  Elec       q    Type
REMARK                         _______ _______ _______ _____ _____    ______ ____
ROOT
ATOM      1  C   UNL     1       4.880   5.047  16.586  0.00  0.00    +0.000 A 
ATOM      2  C   UNL     1       3.879   4.573  17.441  0.00  0.00    +0.000 A 
ATOM      3  C   UNL     1       3.042   5.466  18.115  0.00  0.00    +0.000 A 
ATOM      4  C   UNL     1       3.198   6.856  17.949  0.00  0.00    +0.000 A 
ATOM      5  C   UNL     1       4.207   7.328  17.098  0.00  0.00    +0.000 A 
ATOM      6  C   UNL     1       5.043   6.437  16.427  0.00  0.00    +0.000 A 
ENDROOT
BRANCH   4   7
ATOM      7  C   UNL     1       2.338   7.824  18.667  0.00  0.00    +0.000 A 
ATOM      8  C   UNL     1       1.714   8.937  18.135  0.00  0.00    +0.000 A 
ATOM      9  C   UNL     1       1.008   9.483  19.193  0.00  0.00    +0.000 A 
ATOM     10  N   UNL     1       1.224   8.722  20.290  0.00  0.00    +0.000 N 
ATOM     11  N   UNL     1       2.026   7.718  19.974  0.00  0.00    +0.000 NA
ATOM     12  H   UNL     1       0.842   8.846  21.249  0.00  0.00    +0.000 HD
BRANCH   9  13
ATOM     13  N   UNL     1       0.160  10.645  19.143  0.00  0.00    +0.000 N 
ATOM     14  C   UNL     1       0.665  11.993  19.360  0.00  0.00    +0.000 C 
ATOM     15  C   UNL     1       0.323  12.844  18.134  0.00  0.00    +0.000 C 
ATOM     16  N   UNL     1      -1.127  12.807  17.889  0.00  0.00    +0.000 NA
ATOM     17  C   UNL     1      -1.579  11.430  17.641  0.00  0.00    +0.000 C 
ATOM     18  C   UNL     1      -1.266  10.554  18.857  0.00  0.00    +0.000 C 
ATOM     19  H   UNL     1      -1.340  13.387  17.044  0.00  0.00    +0.000 HD
ENDBRANCH   9  13
ENDBRANCH   4   7
BRANCH   1  20
ATOM     20  O   UNL     1       5.686   4.152  15.956  0.00  0.00    +0.000 OA
BRANCH  20  24
ATOM     21  C   UNL     1       7.157   4.441  12.070  0.00  0.00    +0.000 A 
ATOM     22  C   UNL     1       6.011   3.687  12.342  0.00  0.00    +0.000 A 
ATOM     23  C   UNL     1       5.521   3.602  13.650  0.00  0.00    +0.000 A 
ATOM     24  C   UNL     1       6.182   4.259  14.695  0.00  0.00    +0.000 A 
ATOM     25  C   UNL     1       7.327   5.028  14.409  0.00  0.00    +0.000 A 
ATOM     26  C   UNL     1       7.811   5.114  13.103  0.00  0.00    +0.000 A 
ENDBRANCH  20  24
ENDBRANCH   1  20
TORSDOF 4
ENDMDL
MODEL 3
REMARK VINA RESULT:      -7.8      1.688      2.706
REMARK  Name = 
REMARK  4 active torsions:
REMARK  status: ('A' for Active; 'I' for Inactive)
REMARK    1  A    between atoms: C_4  and  O_5
REMARK    2  A    between atoms: O_5  and  C_6
REMARK    3  A    between atoms: C_9  and  C_10
REMARK    4  A    between atoms: C_12  and  N_13
REMARK                            x       y       z     vdW  Elec       q    Type
REMARK                         _______ _______ _______ _____ _____    ______ ____
ROOT
ATOM      1  C   UNL     1       5.084   5.265  16.586  0.00  0.00    +0.000 A 
ATOM      2  C   UNL     1       5.357   6.633  16.485  0.00  0.00    +0.000 A 
ATOM      3  C   UNL     1       4.482   7.573  17.036  0.00  0.00    +0.000 A 
ATOM      4  C   UNL     1       3.310   7.156  17.696  0.00  0.00    +0.000 A 
ATOM      5  C   UNL     1       3.034   5.785  17.788  0.00  0.00    +0.000 A 
ATOM      6  C   UNL     1       3.906   4.849  17.237  0.00  0.00    +0.000 A 
ENDROOT
BRANCH   4   7
ATOM      7  C   UNL     1       2.355   8.131  18.271  0.00  0.00    +0.000 A 
ATOM      8  C   UNL     1       1.674   8.021  19.468  0.00  0.00    +0.000 A 
ATOM      9  C   UNL     1       0.945   9.195  19.567  0.00  0.00    +0.000 A 
ATOM     10  N   UNL     1       1.189   9.943  18.467  0.00  0.00    +0.000 N 
ATOM     11  N   UNL     1       2.042   9.304  17.684  0.00  0.00    +0.000 NA
ATOM     12  H   UNL     1       0.810  10.881  18.225  0.00  0.00    +0.000 HD
BRANCH   9  13
ATOM     13  N   UNL     1       0.092   9.580  20.660  0.00  0.00    +0.000 N 
ATOM     14  C   UNL     1      -0.137   8.724  21.814  0.00  0.00    +0.000 C 
ATOM     15  C   UNL     1       0.258   9.494  23.078  0.00  0.00    +0.000 C 
ATOM     16  N   UNL     1      -0.487  10.760  23.145  0.00  0.00    +0.000 NA
ATOM     17  C   UNL     1      -0.194  11.601  21.976  0.00  0.00    +0.000 C 
ATOM     18  C   UNL     1      -0.594  10.865  20.694  0.00  0.00    +0.000 C 
ATOM     19  H   UNL     1      -0.198  11.274  24.009  0.00  0.00    +0.000 HD
ENDBRANCH   9  13
ENDBRANCH   4   7
BRANCH   1  20
ATOM     20  O   UNL     1       5.949   4.378  16.027  0.00  0.00    +0.000 OA
BRANCH  20  24
ATOM     21  C   UNL     1       7.038   4.177  12.012  0.00  0.00    +0.000 A 
ATOM     22  C   UNL     1       5.930   3.466  12.484  0.00  0.00    +0.000 A 
ATOM     23  C   UNL     1       5.568   3.545  13.833  0.00  0.00    +0.000 A 
ATOM     24  C   UNL     1       6.320   4.326  14.720  0.00  0.00    +0.000 A 
ATOM     25  C   UNL     1       7.426   5.051  14.232  0.00  0.00    +0.000 A 
ATOM     26  C   UNL     1       7.781   4.972  12.885  0.00  0.00    +0.000 A 
ENDBRANCH  20  24
ENDBRANCH   1  20
TORSDOF 4
ENDMDL
MODEL 4
REMARK VINA RESULT:      -7.8      4.203      5.881
REMARK  Name = 
REMARK  4 active torsions:
REMARK  status: ('A' for Active; 'I' for Inactive)
REMARK    1  A    between atoms: C_4  and  O_5
REMARK    2  A    between atoms: O_5  and  C_6
REMARK    3  A    between atoms: C_9  and  C_10
REMARK    4  A    between atoms: C_12  and  N_13
REMARK                            x       y       z     vdW  Elec       q    Type
REMARK                         _______ _______ _______ _____ _____    ______ ____
ROOT
ATOM      1  C   UNL     1       2.271   7.621  19.223  0.00  0.00    +0.000 A 
ATOM      2  C   UNL     1       1.605   8.189  20.314  0.00  0.00    +0.000 A 
ATOM      3  C   UNL     1       1.040   9.464  20.214  0.00  0.00    +0.000 A 
ATOM      4  C   UNL     1       1.139  10.196  19.015  0.00  0.00    +0.000 A 
ATOM      5  C   UNL     1       1.815   9.627  17.926  0.00  0.00    +0.000 A 
ATOM      6  C   UNL     1       2.379   8.358  18.028  0.00  0.00    +0.000 A 
ENDROOT
BRANCH   4   7
ATOM      7  C   UNL     1       0.568  11.556  18.888  0.00  0.00    +0.000 A 
ATOM      8  C   UNL     1       1.149  12.744  19.291  0.00  0.00    +0.000 A 
ATOM      9  C   UNL     1       0.241  13.723  18.922  0.00  0.00    +0.000 A 
ATOM     10  N   UNL     1      -0.821  13.122  18.340  0.00  0.00    +0.000 N 
ATOM     11  N   UNL     1      -0.626  11.814  18.316  0.00  0.00    +0.000 NA
ATOM     12  H   UNL     1      -1.677  13.562  17.944  0.00  0.00    +0.000 HD
BRANCH   9  13
ATOM     13  N   UNL     1       0.400  15.142  19.094  0.00  0.00    +0.000 N 
ATOM     14  C   UNL     1       1.704  15.772  19.247  0.00  0.00    +0.000 C 
ATOM     15  C   UNL     1       1.864  16.831  18.152  0.00  0.00    +0.000 C 
ATOM     16  N   UNL     1       0.752  17.791  18.218  0.00  0.00    +0.000 NA
ATOM     17  C   UNL     1      -0.537  17.110  18.023  0.00  0.00    +0.000 C 
ATOM     18  C   UNL     1      -0.736  16.054  19.113  0.00  0.00    +0.000 C 
ATOM     19  H   UNL     1       0.875  18.500  17.458  0.00  0.00    +0.000 HD
ENDBRANCH   9  13
ENDBRANCH   4   7
BRANCH   1  20
ATOM     20  O   UNL     1       2.822   6.386  19.359  0.00  0.00    +0.000 OA
BRANCH  20  24
ATOM     21  C   UNL     1       0.776   2.757  19.378  0.00  0.00    +0.000 A 
ATOM     22  C   UNL     1       1.251   3.300  18.179  0.00  0.00    +0.000 A 
ATOM     23  C   UNL     1       1.942   4.516  18.184  0.00  0.00    +0.000 A 
ATOM     24  C   UNL     1       2.153   5.203  19.386  0.00  0.00    +0.000 A 
ATOM     25  C   UNL     1       1.684   4.641  20.591  0.00  0.00    +0.000 A 
ATOM     26  C   UNL     1       0.998   3.426  20.583  0.00  0.00    +0.000 A 
ENDBRANCH  20  24
ENDBRANCH   1  20
TORSDOF 4
ENDMDL
MODEL 5
REMARK VINA RESULT:      -7.7      0.830      1.897
REMARK  Name = 
REMARK  4 active torsions:
REMARK  status: ('A' for Active; 'I' for Inactive)
REMARK    1  A    between atoms: C_4  and  O_5
REMARK    2  A    between atoms: O_5  and  C_6
REMARK    3  A    between atoms: C_9  and  C_10
REMARK    4  A    between atoms: C_12  and  N_13
REMARK                            x       y       z     vdW  Elec       q    Type
REMARK                         _______ _______ _______ _____ _____    ______ ____
ROOT
ATOM      1  C   UNL     1       4.989   4.643  16.351  0.00  0.00    +0.000 A 
ATOM      2  C   UNL     1       5.229   6.017  16.252  0.00  0.00    +0.000 A 
ATOM      3  C   UNL     1       4.469   6.924  16.996  0.00  0.00    +0.000 A 
ATOM      4  C   UNL     1       3.446   6.467  17.849  0.00  0.00    +0.000 A 
ATOM      5  C   UNL     1       3.203   5.089  17.940  0.00  0.00    +0.000 A 
ATOM      6  C   UNL     1       3.960   4.186  17.197  0.00  0.00    +0.000 A 
ENDROOT
BRANCH   4   7
ATOM      7  C   UNL     1       2.612   7.407  18.632  0.00  0.00    +0.000 A 
ATOM      8  C   UNL     1       2.087   8.611  18.202  0.00  0.00    +0.000 A 
ATOM      9  C   UNL     1       1.361   9.085  19.282  0.00  0.00    +0.000 A 
ATOM     10  N   UNL     1       1.472   8.195  20.294  0.00  0.00    +0.000 N 
ATOM     11  N   UNL     1       2.224   7.179  19.904  0.00  0.00    +0.000 NA
ATOM     12  H   UNL     1       1.048   8.238  21.243  0.00  0.00    +0.000 HD
BRANCH   9  13
ATOM     13  N   UNL     1       0.592  10.299  19.326  0.00  0.00    +0.000 N 
ATOM     14  C   UNL     1      -0.341  10.674  18.273  0.00  0.00    +0.000 C 
ATOM     15  C   UNL     1      -1.725  10.879  18.898  0.00  0.00    +0.000 C 
ATOM     16  N   UNL     1      -1.644  11.876  19.975  0.00  0.00    +0.000 NA
ATOM     17  C   UNL     1      -0.718  11.434  21.028  0.00  0.00    +0.000 C 
ATOM     18  C   UNL     1       0.681  11.236  20.439  0.00  0.00    +0.000 C 
ATOM     19  H   UNL     1      -2.595  11.995  20.394  0.00  0.00    +0.000 HD
ENDBRANCH   9  13
ENDBRANCH   4   7
BRANCH   1  20
ATOM     20  O   UNL     1       5.738   3.789  15.604  0.00  0.00    +0.000 OA
BRANCH  20  24
ATOM     21  C   UNL     1       7.263   4.494  11.793  0.00  0.00    +0.000 A 
ATOM     22  C   UNL     1       6.189   3.617  11.978  0.00  0.00    +0.000 A 
ATOM     23  C   UNL     1       5.680   3.392  13.261  0.00  0.00    +0.000 A 
ATOM     24  C   UNL     1       6.250   4.033  14.368  0.00  0.00    +0.000 A 
ATOM     25  C   UNL     1       7.322   4.925  14.171  0.00  0.00    +0.000 A 
ATOM     26  C   UNL     1       7.825   5.150  12.889  0.00  0.00    +0.000 A 
ENDBRANCH  20  24
ENDBRANCH   1  20
TORSDOF 4
ENDMDL
MODEL 6
REMARK VINA RESULT:      -7.7      5.421      7.236
REMARK  Name = 
REMARK  4 active torsions:
REMARK  status: ('A' for Active; 'I' for Inactive)
REMARK    1  A    between atoms: C_4  and  O_5
REMARK    2  A    between atoms: O_5  and  C_6
REMARK    3  A    between atoms: C_9  and  C_10
REMARK    4  A    between atoms: C_12  and  N_13
REMARK                            x       y       z     vdW  Elec       q    Type
REMARK                         _______ _______ _______ _____ _____    ______ ____
ROOT
ATOM      1  C   UNL     1       5.690   4.887  17.156  0.00  0.00    +0.000 A 
ATOM      2  C   UNL     1       5.522   6.072  16.431  0.00  0.00    +0.000 A 
ATOM      3  C   UNL     1       6.290   7.200  16.730  0.00  0.00    +0.000 A 
ATOM      4  C   UNL     1       7.239   7.163  17.770  0.00  0.00    +0.000 A 
ATOM      5  C   UNL     1       7.399   5.977  18.500  0.00  0.00    +0.000 A 
ATOM      6  C   UNL     1       6.631   4.853  18.203  0.00  0.00    +0.000 A 
ENDROOT
BRANCH   4   7
ATOM      7  C   UNL     1       8.051   8.350  18.121  0.00  0.00    +0.000 A 
ATOM      8  C   UNL     1       8.126   9.543  17.426  0.00  0.00    +0.000 A 
ATOM      9  C   UNL     1       8.982  10.333  18.174  0.00  0.00    +0.000 A 
ATOM     10  N   UNL     1       9.390   9.621  19.249  0.00  0.00    +0.000 N 
ATOM     11  N   UNL     1       8.828   8.424  19.221  0.00  0.00    +0.000 NA
ATOM     12  H   UNL     1      10.030   9.915  20.015  0.00  0.00    +0.000 HD
BRANCH   9  13
ATOM     13  N   UNL     1       9.360  11.691  17.886  0.00  0.00    +0.000 N 
ATOM     14  C   UNL     1       8.389  12.772  17.798  0.00  0.00    +0.000 C 
ATOM     15  C   UNL     1       8.781  13.862  18.800  0.00  0.00    +0.000 C 
ATOM     16  N   UNL     1      10.159  14.306  18.543  0.00  0.00    +0.000 NA
ATOM     17  C   UNL     1      11.102  13.186  18.680  0.00  0.00    +0.000 C 
ATOM     18  C   UNL     1      10.748  12.084  17.678  0.00  0.00    +0.000 C 
ATOM     19  H   UNL     1      10.411  15.043  19.241  0.00  0.00    +0.000 HD
ENDBRANCH   9  13
ENDBRANCH   4   7
BRANCH   1  20
ATOM     20  O   UNL     1       4.917   3.812  16.849  0.00  0.00    +0.000 OA
BRANCH  20  24
ATOM     21  C   UNL     1       1.322   2.715  18.644  0.00  0.00    +0.000 A 
ATOM     22  C   UNL     1       2.391   1.815  18.586  0.00  0.00    +0.000 A 
ATOM     23  C   UNL     1       3.596   2.195  17.986  0.00  0.00    +0.000 A 
ATOM     24  C   UNL     1       3.736   3.474  17.431  0.00  0.00    +0.000 A 
ATOM     25  C   UNL     1       2.658   4.379  17.508  0.00  0.00    +0.000 A 
ATOM     26  C   UNL     1       1.459   3.997  18.110  0.00  0.00    +0.000 A 
ENDBRANCH  20  24
ENDBRANCH   1  20
TORSDOF 4
ENDMDL
MODEL 7
REMARK VINA RESULT:      -7.7      1.669      2.512
REMARK  Name = 
REMARK  4 active torsions:
REMARK  status: ('A' for Active; 'I' for Inactive)
REMARK    1  A    between atoms: C_4  and  O_5
REMARK    2  A    between atoms: O_5  and  C_6
REMARK    3  A    between atoms: C_9  and  C_10
REMARK    4  A    between atoms: C_12  and  N_13
REMARK                            x       y       z     vdW  Elec       q    Type
REMARK                         _______ _______ _______ _____ _____    ______ ____
ROOT
ATOM      1  C   UNL     1       5.154   5.287  16.518  0.00  0.00    +0.000 A 
ATOM      2  C   UNL     1       5.232   6.632  16.143  0.00  0.00    +0.000 A 
ATOM      3  C   UNL     1       4.357   7.573  16.693  0.00  0.00    +0.000 A 
ATOM      4  C   UNL     1       3.379   7.178  17.626  0.00  0.00    +0.000 A 
ATOM      5  C   UNL     1       3.298   5.827  17.994  0.00  0.00    +0.000 A 
ATOM      6  C   UNL     1       4.170   4.890  17.444  0.00  0.00    +0.000 A 
ENDROOT
BRANCH   4   7
ATOM      7  C   UNL     1       2.426   8.149  18.209  0.00  0.00    +0.000 A 
ATOM      8  C   UNL     1       1.730   8.023  19.396  0.00  0.00    +0.000 A 
ATOM      9  C   UNL     1       1.009   9.200  19.509  0.00  0.00    +0.000 A 
ATOM     10  N   UNL     1       1.272   9.967  18.426  0.00  0.00    +0.000 N 
ATOM     11  N   UNL     1       2.128   9.335  17.640  0.00  0.00    +0.000 NA
ATOM     12  H   UNL     1       0.902  10.912  18.197  0.00  0.00    +0.000 HD
BRANCH   9  13
ATOM     13  N   UNL     1       0.147   9.572  20.599  0.00  0.00    +0.000 N 
ATOM     14  C   UNL     1      -0.092   8.701  21.740  0.00  0.00    +0.000 C 
ATOM     15  C   UNL     1       0.292   9.454  23.017  0.00  0.00    +0.000 C 
ATOM     16  N   UNL     1      -0.453  10.720  23.094  0.00  0.00    +0.000 NA
ATOM     17  C   UNL     1      -0.148  11.576  21.939  0.00  0.00    +0.000 C 
ATOM     18  C   UNL     1      -0.537  10.858  20.644  0.00  0.00    +0.000 C 
ATOM     19  H   UNL     1      -0.171  11.223  23.968  0.00  0.00    +0.000 HD
ENDBRANCH   9  13
ENDBRANCH   4   7
BRANCH   1  20
ATOM     20  O   UNL     1       6.012   4.395  15.954  0.00  0.00    +0.000 OA
BRANCH  20  24
ATOM     21  C   UNL     1       7.086   4.202  11.934  0.00  0.00    +0.000 A 
ATOM     22  C   UNL     1       7.818   4.989  12.828  0.00  0.00    +0.000 A 
ATOM     23  C   UNL     1       7.453   5.043  14.178  0.00  0.00    +0.000 A 
ATOM     24  C   UNL     1       6.346   4.318  14.639  0.00  0.00    +0.000 A 
ATOM     25  C   UNL     1       5.624   3.516  13.733  0.00  0.00    +0.000 A 
ATOM     26  C   UNL     1       5.992   3.462  12.388  0.00  0.00    +0.000 A 
ENDBRANCH  20  24
ENDBRANCH   1  20
TORSDOF 4
ENDMDL
MODEL 8
REMARK VINA RESULT:      -7.7      0.841      1.288
REMARK  Name = 
REMARK  4 active torsions:
REMARK  status: ('A' for Active; 'I' for Inactive)
REMARK    1  A    between atoms: C_4  and  O_5
REMARK    2  A    between atoms: O_5  and  C_6
REMARK    3  A    between atoms: C_9  and  C_10
REMARK    4  A    between atoms: C_12  and  N_13
REMARK                            x       y       z     vdW  Elec       q    Type
REMARK                         _______ _______ _______ _____ _____    ______ ____
ROOT
ATOM      1  C   UNL     1       5.093   4.779  16.390  0.00  0.00    +0.000 A 
ATOM      2  C   UNL     1       3.939   4.293  17.014  0.00  0.00    +0.000 A 
ATOM      3  C   UNL     1       3.115   5.151  17.747  0.00  0.00    +0.000 A 
ATOM      4  C   UNL     1       3.438   6.517  17.873  0.00  0.00    +0.000 A 
ATOM      5  C   UNL     1       4.600   6.999  17.254  0.00  0.00    +0.000 A 
ATOM      6  C   UNL     1       5.422   6.142  16.525  0.00  0.00    +0.000 A 
ENDROOT
BRANCH   4   7
ATOM      7  C   UNL     1       2.594   7.444  18.660  0.00  0.00    +0.000 A 
ATOM      8  C   UNL     1       2.036   8.632  18.228  0.00  0.00    +0.000 A 
ATOM      9  C   UNL     1       1.315   9.098  19.314  0.00  0.00    +0.000 A 
ATOM     10  N   UNL     1       1.461   8.220  20.332  0.00  0.00    +0.000 N 
ATOM     11  N   UNL     1       2.231   7.219  19.939  0.00  0.00    +0.000 NA
ATOM     12  H   UNL     1       1.050   8.262  21.287  0.00  0.00    +0.000 HD
BRANCH   9  13
ATOM     13  N   UNL     1       0.519  10.295  19.359  0.00  0.00    +0.000 N 
ATOM     14  C   UNL     1      -0.396  10.669  18.290  0.00  0.00    +0.000 C 
ATOM     15  C   UNL     1      -1.798  10.832  18.882  0.00  0.00    +0.000 C 
ATOM     16  N   UNL     1      -1.766  11.812  19.979  0.00  0.00    +0.000 NA
ATOM     17  C   UNL     1      -0.857  11.371  21.047  0.00  0.00    +0.000 C 
ATOM     18  C   UNL     1       0.560  11.213  20.490  0.00  0.00    +0.000 C 
ATOM     19  H   UNL     1      -2.731  11.904  20.375  0.00  0.00    +0.000 HD
ENDBRANCH   9  13
ENDBRANCH   4   7
BRANCH   1  20
ATOM     20  O   UNL     1       5.880   3.914  15.697  0.00  0.00    +0.000 OA
BRANCH  20  24
ATOM     21  C   UNL     1       7.253   4.425  11.797  0.00  0.00    +0.000 A 
ATOM     22  C   UNL     1       7.828   5.140  12.853  0.00  0.00    +0.000 A 
ATOM     23  C   UNL     1       7.364   4.957  14.160  0.00  0.00    +0.000 A 
ATOM     24  C   UNL     1       6.314   4.066  14.418  0.00  0.00    +0.000 A 
ATOM     25  C   UNL     1       5.751   3.339  13.350  0.00  0.00    +0.000 A 
ATOM     26  C   UNL     1       6.218   3.522  12.048  0.00  0.00    +0.000 A 
ENDBRANCH  20  24
ENDBRANCH   1  20
TORSDOF 4
ENDMDL
MODEL 9
REMARK VINA RESULT:      -7.7      1.201      1.569
REMARK  Name = 
REMARK  4 active torsions:
REMARK  status: ('A' for Active; 'I' for Inactive)
REMARK    1  A    between atoms: C_4  and  O_5
REMARK    2  A    between atoms: O_5  and  C_6
REMARK    3  A    between atoms: C_9  and  C_10
REMARK    4  A    between atoms: C_12  and  N_13
REMARK                            x       y       z     vdW  Elec       q    Type
REMARK                         _______ _______ _______ _____ _____    ______ ____
ROOT
ATOM      1  C   UNL     1       4.958   4.559  16.282  0.00  0.00    +0.000 A 
ATOM      2  C   UNL     1       3.954   4.029  17.099  0.00  0.00    +0.000 A 
ATOM      3  C   UNL     1       3.195   4.865  17.922  0.00  0.00    +0.000 A 
ATOM      4  C   UNL     1       3.435   6.253  17.946  0.00  0.00    +0.000 A 
ATOM      5  C   UNL     1       4.447   6.780  17.132  0.00  0.00    +0.000 A 
ATOM      6  C   UNL     1       5.204   5.945  16.313  0.00  0.00    +0.000 A 
ENDROOT
BRANCH   4   7
ATOM      7  C   UNL     1       2.660   7.159  18.824  0.00  0.00    +0.000 A 
ATOM      8  C   UNL     1       2.142   8.397  18.493  0.00  0.00    +0.000 A 
ATOM      9  C   UNL     1       1.479   8.818  19.633  0.00  0.00    +0.000 A 
ATOM     10  N   UNL     1       1.619   7.866  20.584  0.00  0.00    +0.000 N 
ATOM     11  N   UNL     1       2.330   6.862  20.097  0.00  0.00    +0.000 NA
ATOM     12  H   UNL     1       1.243   7.860  21.554  0.00  0.00    +0.000 HD
BRANCH   9  13
ATOM     13  N   UNL     1       0.740  10.042  19.788  0.00  0.00    +0.000 N 
ATOM     14  C   UNL     1      -0.415  10.153  20.667  0.00  0.00    +0.000 C 
ATOM     15  C   UNL     1      -0.154  11.279  21.673  0.00  0.00    +0.000 C 
ATOM     16  N   UNL     1       0.146  12.528  20.958  0.00  0.00    +0.000 NA
ATOM     17  C   UNL     1       1.339  12.372  20.113  0.00  0.00    +0.000 C 
ATOM     18  C   UNL     1       1.105  11.264  19.084  0.00  0.00    +0.000 C 
ATOM     19  H   UNL     1       0.329  13.282  21.660  0.00  0.00    +0.000 HD
ENDBRANCH   9  13
ENDBRANCH   4   7
BRANCH   1  20
ATOM     20  O   UNL     1       5.686   3.716  15.503  0.00  0.00    +0.000 OA
BRANCH  20  24
ATOM     21  C   UNL     1       7.407   4.645  11.826  0.00  0.00    +0.000 A 
ATOM     22  C   UNL     1       7.886   5.229  13.002  0.00  0.00    +0.000 A 
ATOM     23  C   UNL     1       7.306   4.905  14.234  0.00  0.00    +0.000 A 
ATOM     24  C   UNL     1       6.235   4.005  14.294  0.00  0.00    +0.000 A 
ATOM     25  C   UNL     1       5.768   3.410  13.104  0.00  0.00    +0.000 A 
ATOM     26  C   UNL     1       6.352   3.733  11.879  0.00  0.00    +0.000 A 
ENDBRANCH  20  24
ENDBRANCH   1  20
TORSDOF 4
ENDMDL
