MODEL 1
REMARK VINA RESULT:      -7.6      0.000      0.000
REMARK  Name = 
REMARK  11 active torsions:
REMARK  status: ('A' for Active; 'I' for Inactive)
REMARK    1  A    between atoms: C_1  and  C_2
REMARK    2  A    between atoms: C_2  and  C_3
REMARK    3  A    between atoms: C_6  and  C_7
REMARK    4  A    between atoms: C_7  and  C_8
REMARK    5  A    between atoms: C_7  and  N_9
REMARK    6  A    between atoms: N_9  and  C_10
REMARK    7  A    between atoms: N_9  and  C_11
REMARK    8  A    between atoms: C_11  and  C_12
REMARK    9  A    between atoms: C_13  and  C_14
REMARK   10  A    between atoms: N_16  and  C_17
REMARK   11  A    between atoms: C_23  and  C_24
REMARK                            x       y       z     vdW  Elec       q    Type
REMARK                         _______ _______ _______ _____ _____    ______ ____
ROOT
ATOM      1  C   UNL     1       5.511   3.825  16.847  0.00  0.00    +0.000 A 
ATOM      2  C   UNL     1       6.290   4.357  17.912  0.00  0.00    +0.000 A 
ATOM      3  C   UNL     1       7.733   4.718  17.912  0.00  0.00    +0.000 C 
ATOM      4  N   UNL     1       5.569   4.529  19.021  0.00  0.00    +0.000 NA
ATOM      5  N   UNL     1       4.358   3.988  18.737  0.00  0.00    +0.000 N 
ATOM      6  C   UNL     1       4.231   3.732  17.379  0.00  0.00    +0.000 A 
ATOM      7  C   UNL     1       2.943   3.453  16.688  0.00  0.00    +0.000 C 
ENDROOT
BRANCH   5   8
ATOM      8  C   UNL     1       3.393   3.764  19.759  0.00  0.00    +0.000 A 
ATOM      9  C   UNL     1       2.307   4.636  19.901  0.00  0.00    +0.000 A 
ATOM     10  C   UNL     1       1.289   4.322  20.804  0.00  0.00    +0.000 A 
ATOM     11  C   UNL     1       1.367   3.171  21.585  0.00  0.00    +0.000 A 
ATOM     12  C   UNL     1       2.484   2.346  21.501  0.00  0.00    +0.000 A 
ATOM     13  C   UNL     1       3.505   2.656  20.608  0.00  0.00    +0.000 A 
ENDBRANCH   5   8
BRANCH   1  14
ATOM     14  C   UNL     1       5.956   3.487  15.453  0.00  0.00    +0.000 C 
BRANCH  14  15
ATOM     15  N   UNL     1       6.527   4.675  14.780  0.00  0.00    +0.000 NA
ATOM     16  C   UNL     1       5.538   5.747  14.597  0.00  0.00    +0.000 C 
BRANCH  15  17
ATOM     17  C   UNL     1       7.191   4.339  13.482  0.00  0.00    +0.000 C 
ATOM     18  C   UNL     1       7.766   5.550  12.715  0.00  0.00    +0.000 C 
BRANCH  17  22
ATOM     19  C   UNL     1       4.576   3.026  11.444  0.00  0.00    +0.000 A 
ATOM     20  N   UNL     1       5.430   2.037  11.281  0.00  0.00    +0.000 NA
ATOM     21  N   UNL     1       6.561   2.382  11.980  0.00  0.00    +0.000 NA
ATOM     22  C   UNL     1       6.324   3.554  12.531  0.00  0.00    +0.000 A 
ATOM     23  O   UNL     1       5.069   4.037  12.230  0.00  0.00    +0.000 OA
BRANCH  19  25
ATOM     24  C   UNL     1       3.112   4.024   9.703  0.00  0.00    +0.000 C 
ATOM     25  C   UNL     1       3.191   3.143  10.937  0.00  0.00    +0.000 C 
ENDBRANCH  19  25
ENDBRANCH  17  22
ENDBRANCH  15  17
ENDBRANCH  14  15
ENDBRANCH   1  14
TORSDOF 6
ENDMDL
MODEL 2
REMARK VINA RESULT:      -7.6      3.665      5.354
REMARK  Name = 
REMARK  11 active torsions:
REMARK  status: ('A' for Active; 'I' for Inactive)
REMARK    1  A    between atoms: C_1  and  C_2
REMARK    2  A    between atoms: C_2  and  C_3
REMARK    3  A    between atoms: C_6  and  C_7
REMARK    4  A    between atoms: C_7  and  C_8
REMARK    5  A    between atoms: C_7  and  N_9
REMARK    6  A    between atoms: N_9  and  C_10
REMARK    7  A    between atoms: N_9  and  C_11
REMARK    8  A    between atoms: C_11  and  C_12
REMARK    9  A    between atoms: C_13  and  C_14
REMARK   10  A    between atoms: N_16  and  C_17
REMARK   11  A    between atoms: C_23  and  C_24
REMARK                            x       y       z     vdW  Elec       q    Type
REMARK                         _______ _______ _______ _____ _____    ______ ____
ROOT
ATOM      1  C   UNL     1       3.533   6.580  18.899  0.00  0.00    +0.000 A 
ATOM      2  C   UNL     1       3.646   7.364  17.717  0.00  0.00    +0.000 A 
ATOM      3  C   UNL     1       4.676   7.282  16.648  0.00  0.00    +0.000 C 
ATOM      4  N   UNL     1       2.669   8.267  17.621  0.00  0.00    +0.000 NA
ATOM      5  N   UNL     1       1.994   8.175  18.794  0.00  0.00    +0.000 N 
ATOM      6  C   UNL     1       2.369   7.042  19.501  0.00  0.00    +0.000 A 
ATOM      7  C   UNL     1       1.611   6.469  20.645  0.00  0.00    +0.000 C 
ENDROOT
BRANCH   5   8
ATOM      8  C   UNL     1       1.027   9.152  19.165  0.00  0.00    +0.000 A 
ATOM      9  C   UNL     1       0.977   9.622  20.483  0.00  0.00    +0.000 A 
ATOM     10  C   UNL     1       0.129  10.686  20.799  0.00  0.00    +0.000 A 
ATOM     11  C   UNL     1      -0.687  11.254  19.824  0.00  0.00    +0.000 A 
ATOM     12  C   UNL     1      -0.695  10.736  18.533  0.00  0.00    +0.000 A 
ATOM     13  C   UNL     1       0.142   9.671  18.213  0.00  0.00    +0.000 A 
ENDBRANCH   5   8
BRANCH   1  14
ATOM     14  C   UNL     1       4.436   5.474  19.366  0.00  0.00    +0.000 C 
BRANCH  14  15
ATOM     15  N   UNL     1       4.711   4.519  18.270  0.00  0.00    +0.000 NA
ATOM     16  C   UNL     1       4.113   3.199  18.512  0.00  0.00    +0.000 C 
BRANCH  15  17
ATOM     17  C   UNL     1       6.170   4.393  17.966  0.00  0.00    +0.000 C 
ATOM     18  C   UNL     1       7.087   5.324  18.787  0.00  0.00    +0.000 C 
BRANCH  17  22
ATOM     19  C   UNL     1       6.388   4.265  14.408  0.00  0.00    +0.000 A 
ATOM     20  N   UNL     1       7.477   4.972  14.618  0.00  0.00    +0.000 NA
ATOM     21  N   UNL     1       7.554   5.172  15.976  0.00  0.00    +0.000 NA
ATOM     22  C   UNL     1       6.512   4.568  16.509  0.00  0.00    +0.000 A 
ATOM     23  O   UNL     1       5.711   3.964  15.564  0.00  0.00    +0.000 OA
BRANCH  19  25
ATOM     24  C   UNL     1       6.913   3.747  12.036  0.00  0.00    +0.000 C 
ATOM     25  C   UNL     1       5.859   3.741  13.129  0.00  0.00    +0.000 C 
ENDBRANCH  19  25
ENDBRANCH  17  22
ENDBRANCH  15  17
ENDBRANCH  14  15
ENDBRANCH   1  14
TORSDOF 6
ENDMDL
MODEL 3
REMARK VINA RESULT:      -7.5      2.131      3.365
REMARK  Name = 
REMARK  11 active torsions:
REMARK  status: ('A' for Active; 'I' for Inactive)
REMARK    1  A    between atoms: C_1  and  C_2
REMARK    2  A    between atoms: C_2  and  C_3
REMARK    3  A    between atoms: C_6  and  C_7
REMARK    4  A    between atoms: C_7  and  C_8
REMARK    5  A    between atoms: C_7  and  N_9
REMARK    6  A    between atoms: N_9  and  C_10
REMARK    7  A    between atoms: N_9  and  C_11
REMARK    8  A    between atoms: C_11  and  C_12
REMARK    9  A    between atoms: C_13  and  C_14
REMARK   10  A    between atoms: N_16  and  C_17
REMARK   11  A    between atoms: C_23  and  C_24
REMARK                            x       y       z     vdW  Elec       q    Type
REMARK                         _______ _______ _______ _____ _____    ______ ____
ROOT
ATOM      1  C   UNL     1       3.878   6.542  17.581  0.00  0.00    +0.000 A 
ATOM      2  C   UNL     1       2.863   7.379  18.124  0.00  0.00    +0.000 A 
ATOM      3  C   UNL     1       2.686   8.846  17.956  0.00  0.00    +0.000 C 
ATOM      4  N   UNL     1       1.994   6.692  18.867  0.00  0.00    +0.000 NA
ATOM      5  N   UNL     1       2.505   5.437  18.929  0.00  0.00    +0.000 N 
ATOM      6  C   UNL     1       3.531   5.268  18.011  0.00  0.00    +0.000 A 
ATOM      7  C   UNL     1       4.080   3.951  17.589  0.00  0.00    +0.000 C 
ENDROOT
BRANCH   5   8
ATOM      8  C   UNL     1       1.982   4.474  19.838  0.00  0.00    +0.000 A 
ATOM      9  C   UNL     1       0.978   3.592  19.422  0.00  0.00    +0.000 A 
ATOM     10  C   UNL     1       0.582   2.555  20.271  0.00  0.00    +0.000 A 
ATOM     11  C   UNL     1       1.153   2.417  21.533  0.00  0.00    +0.000 A 
ATOM     12  C   UNL     1       2.095   3.340  21.977  0.00  0.00    +0.000 A 
ATOM     13  C   UNL     1       2.489   4.380  21.140  0.00  0.00    +0.000 A 
ENDBRANCH   5   8
BRANCH   1  14
ATOM     14  C   UNL     1       5.033   6.937  16.705  0.00  0.00    +0.000 C 
BRANCH  14  15
ATOM     15  N   UNL     1       6.317   6.503  17.298  0.00  0.00    +0.000 NA
ATOM     16  C   UNL     1       7.400   7.466  17.058  0.00  0.00    +0.000 C 
BRANCH  15  17
ATOM     17  C   UNL     1       6.721   5.131  16.861  0.00  0.00    +0.000 C 
ATOM     18  C   UNL     1       8.005   4.589  17.526  0.00  0.00    +0.000 C 
BRANCH  17  22
ATOM     19  C   UNL     1       6.546   4.163  13.432  0.00  0.00    +0.000 A 
ATOM     20  N   UNL     1       7.552   5.003  13.319  0.00  0.00    +0.000 NA
ATOM     21  N   UNL     1       7.757   5.534  14.570  0.00  0.00    +0.000 NA
ATOM     22  C   UNL     1       6.869   4.979  15.369  0.00  0.00    +0.000 A 
ATOM     23  O   UNL     1       6.050   4.087  14.710  0.00  0.00    +0.000 OA
BRANCH  19  25
ATOM     24  C   UNL     1       6.995   2.729  11.454  0.00  0.00    +0.000 C 
ATOM     25  C   UNL     1       5.946   3.294  12.395  0.00  0.00    +0.000 C 
ENDBRANCH  19  25
ENDBRANCH  17  22
ENDBRANCH  15  17
ENDBRANCH  14  15
ENDBRANCH   1  14
TORSDOF 6
ENDMDL
MODEL 4
REMARK VINA RESULT:      -7.3      4.334      6.860
REMARK  Name = 
REMARK  11 active torsions:
REMARK  status: ('A' for Active; 'I' for Inactive)
REMARK    1  A    between atoms: C_1  and  C_2
REMARK    2  A    between atoms: C_2  and  C_3
REMARK    3  A    between atoms: C_6  and  C_7
REMARK    4  A    between atoms: C_7  and  C_8
REMARK    5  A    between atoms: C_7  and  N_9
REMARK    6  A    between atoms: N_9  and  C_10
REMARK    7  A    between atoms: N_9  and  C_11
REMARK    8  A    between atoms: C_11  and  C_12
REMARK    9  A    between atoms: C_13  and  C_14
REMARK   10  A    between atoms: N_16  and  C_17
REMARK   11  A    between atoms: C_23  and  C_24
REMARK                            x       y       z     vdW  Elec       q    Type
REMARK                         _______ _______ _______ _____ _____    ______ ____
ROOT
ATOM      1  C   UNL     1       2.535   7.039  19.402  0.00  0.00    +0.000 A 
ATOM      2  C   UNL     1       2.786   7.673  18.153  0.00  0.00    +0.000 A 
ATOM      3  C   UNL     1       3.721   7.256  17.075  0.00  0.00    +0.000 C 
ATOM      4  N   UNL     1       2.052   8.776  17.996  0.00  0.00    +0.000 NA
ATOM      5  N   UNL     1       1.423   8.947  19.186  0.00  0.00    +0.000 N 
ATOM      6  C   UNL     1       1.542   7.818  19.983  0.00  0.00    +0.000 A 
ATOM      7  C   UNL     1       0.715   7.542  21.189  0.00  0.00    +0.000 C 
ENDROOT
BRANCH   5   8
ATOM      8  C   UNL     1       0.736  10.157  19.489  0.00  0.00    +0.000 A 
ATOM      9  C   UNL     1       1.312  11.091  20.358  0.00  0.00    +0.000 A 
ATOM     10  C   UNL     1       0.703  12.337  20.527  0.00  0.00    +0.000 A 
ATOM     11  C   UNL     1      -0.485  12.638  19.867  0.00  0.00    +0.000 A 
ATOM     12  C   UNL     1      -1.099  11.682  19.065  0.00  0.00    +0.000 A 
ATOM     13  C   UNL     1      -0.501  10.436  18.897  0.00  0.00    +0.000 A 
ENDBRANCH   5   8
BRANCH   1  14
ATOM     14  C   UNL     1       3.162   5.788  19.948  0.00  0.00    +0.000 C 
BRANCH  14  15
ATOM     15  N   UNL     1       2.601   4.587  19.291  0.00  0.00    +0.000 NA
ATOM     16  C   UNL     1       1.418   4.065  19.990  0.00  0.00    +0.000 C 
BRANCH  15  17
ATOM     17  C   UNL     1       3.618   3.509  19.092  0.00  0.00    +0.000 C 
ATOM     18  C   UNL     1       3.914   2.656  20.344  0.00  0.00    +0.000 C 
BRANCH  17  22
ATOM     19  C   UNL     1       6.384   4.499  17.069  0.00  0.00    +0.000 A 
ATOM     20  N   UNL     1       6.997   4.556  18.232  0.00  0.00    +0.000 NA
ATOM     21  N   UNL     1       6.056   4.237  19.182  0.00  0.00    +0.000 NA
ATOM     22  C   UNL     1       4.932   3.997  18.539  0.00  0.00    +0.000 A 
ATOM     23  O   UNL     1       5.061   4.148  17.175  0.00  0.00    +0.000 OA
BRANCH  19  25
ATOM     24  C   UNL     1       6.126   4.016  14.646  0.00  0.00    +0.000 C 
ATOM     25  C   UNL     1       6.946   4.713  15.717  0.00  0.00    +0.000 C 
ENDBRANCH  19  25
ENDBRANCH  17  22
ENDBRANCH  15  17
ENDBRANCH  14  15
ENDBRANCH   1  14
TORSDOF 6
ENDMDL
MODEL 5
REMARK VINA RESULT:      -7.3      4.403      6.930
REMARK  Name = 
REMARK  11 active torsions:
REMARK  status: ('A' for Active; 'I' for Inactive)
REMARK    1  A    between atoms: C_1  and  C_2
REMARK    2  A    between atoms: C_2  and  C_3
REMARK    3  A    between atoms: C_6  and  C_7
REMARK    4  A    between atoms: C_7  and  C_8
REMARK    5  A    between atoms: C_7  and  N_9
REMARK    6  A    between atoms: N_9  and  C_10
REMARK    7  A    between atoms: N_9  and  C_11
REMARK    8  A    between atoms: C_11  and  C_12
REMARK    9  A    between atoms: C_13  and  C_14
REMARK   10  A    between atoms: N_16  and  C_17
REMARK   11  A    between atoms: C_23  and  C_24
REMARK                            x       y       z     vdW  Elec       q    Type
REMARK                         _______ _______ _______ _____ _____    ______ ____
ROOT
ATOM      1  C   UNL     1       2.464   7.152  19.418  0.00  0.00    +0.000 A 
ATOM      2  C   UNL     1       2.721   7.755  18.155  0.00  0.00    +0.000 A 
ATOM      3  C   UNL     1       3.635   7.292  17.077  0.00  0.00    +0.000 C 
ATOM      4  N   UNL     1       2.016   8.875  17.982  0.00  0.00    +0.000 NA
ATOM      5  N   UNL     1       1.402   9.086  19.174  0.00  0.00    +0.000 N 
ATOM      6  C   UNL     1       1.498   7.970  19.992  0.00  0.00    +0.000 A 
ATOM      7  C   UNL     1       0.675   7.740  21.210  0.00  0.00    +0.000 C 
ENDROOT
BRANCH   5   8
ATOM      8  C   UNL     1       0.751  10.320  19.458  0.00  0.00    +0.000 A 
ATOM      9  C   UNL     1      -0.533  10.565  18.959  0.00  0.00    +0.000 A 
ATOM     10  C   UNL     1      -1.221  11.710  19.369  0.00  0.00    +0.000 A 
ATOM     11  C   UNL     1      -0.625  12.620  20.238  0.00  0.00    +0.000 A 
ATOM     12  C   UNL     1       0.681  12.416  20.672  0.00  0.00    +0.000 A 
ATOM     13  C   UNL     1       1.375  11.281  20.263  0.00  0.00    +0.000 A 
ENDBRANCH   5   8
BRANCH   1  14
ATOM     14  C   UNL     1       3.063   5.896  19.983  0.00  0.00    +0.000 C 
BRANCH  14  15
ATOM     15  N   UNL     1       2.423   4.698  19.396  0.00  0.00    +0.000 NA
ATOM     16  C   UNL     1       1.270   4.235  20.182  0.00  0.00    +0.000 C 
BRANCH  15  17
ATOM     17  C   UNL     1       3.390   3.581  19.166  0.00  0.00    +0.000 C 
ATOM     18  C   UNL     1       3.651   2.684  20.395  0.00  0.00    +0.000 C 
BRANCH  17  22
ATOM     19  C   UNL     1       6.204   4.463  17.159  0.00  0.00    +0.000 A 
ATOM     20  N   UNL     1       6.806   4.520  18.328  0.00  0.00    +0.000 NA
ATOM     21  N   UNL     1       5.847   4.241  19.272  0.00  0.00    +0.000 NA
ATOM     22  C   UNL     1       4.724   4.024  18.620  0.00  0.00    +0.000 A 
ATOM     23  O   UNL     1       4.870   4.152  17.256  0.00  0.00    +0.000 OA
BRANCH  19  25
ATOM     24  C   UNL     1       5.713   4.731  14.739  0.00  0.00    +0.000 C 
ATOM     25  C   UNL     1       6.785   4.643  15.810  0.00  0.00    +0.000 C 
ENDBRANCH  19  25
ENDBRANCH  17  22
ENDBRANCH  15  17
ENDBRANCH  14  15
ENDBRANCH   1  14
TORSDOF 6
ENDMDL
MODEL 6
REMARK VINA RESULT:      -7.3      3.019      4.801
REMARK  Name = 
REMARK  11 active torsions:
REMARK  status: ('A' for Active; 'I' for Inactive)
REMARK    1  A    between atoms: C_1  and  C_2
REMARK    2  A    between atoms: C_2  and  C_3
REMARK    3  A    between atoms: C_6  and  C_7
REMARK    4  A    between atoms: C_7  and  C_8
REMARK    5  A    between atoms: C_7  and  N_9
REMARK    6  A    between atoms: N_9  and  C_10
REMARK    7  A    between atoms: N_9  and  C_11
REMARK    8  A    between atoms: C_11  and  C_12
REMARK    9  A    between atoms: C_13  and  C_14
REMARK   10  A    between atoms: N_16  and  C_17
REMARK   11  A    between atoms: C_23  and  C_24
REMARK                            x       y       z     vdW  Elec       q    Type
REMARK                         _______ _______ _______ _____ _____    ______ ____
ROOT
ATOM      1  C   UNL     1       3.497   5.033  19.360  0.00  0.00    +0.000 A 
ATOM      2  C   UNL     1       2.582   4.937  20.445  0.00  0.00    +0.000 A 
ATOM      3  C   UNL     1       2.286   3.759  21.304  0.00  0.00    +0.000 C 
ATOM      4  N   UNL     1       1.945   6.088  20.665  0.00  0.00    +0.000 NA
ATOM      5  N   UNL     1       2.332   6.899  19.649  0.00  0.00    +0.000 N 
ATOM      6  C   UNL     1       3.408   6.360  18.960  0.00  0.00    +0.000 A 
ATOM      7  C   UNL     1       4.276   7.119  18.018  0.00  0.00    +0.000 C 
ENDROOT
BRANCH   5   8
ATOM      8  C   UNL     1       1.673   8.137  19.404  0.00  0.00    +0.000 A 
ATOM      9  C   UNL     1       1.076   8.834  20.461  0.00  0.00    +0.000 A 
ATOM     10  C   UNL     1       0.568  10.116  20.236  0.00  0.00    +0.000 A 
ATOM     11  C   UNL     1       0.621  10.685  18.967  0.00  0.00    +0.000 A 
ATOM     12  C   UNL     1       1.143   9.962  17.899  0.00  0.00    +0.000 A 
ATOM     13  C   UNL     1       1.645   8.682  18.114  0.00  0.00    +0.000 A 
ENDBRANCH   5   8
BRANCH   1  14
ATOM     14  C   UNL     1       4.390   3.960  18.804  0.00  0.00    +0.000 C 
BRANCH  14  15
ATOM     15  N   UNL     1       4.740   4.245  17.394  0.00  0.00    +0.000 NA
ATOM     16  C   UNL     1       3.935   3.462  16.447  0.00  0.00    +0.000 C 
BRANCH  15  17
ATOM     17  C   UNL     1       6.200   4.074  17.117  0.00  0.00    +0.000 C 
ATOM     18  C   UNL     1       7.139   4.747  18.142  0.00  0.00    +0.000 C 
BRANCH  17  22
ATOM     19  C   UNL     1       6.881   4.410  13.632  0.00  0.00    +0.000 A 
ATOM     20  N   UNL     1       7.571   5.455  14.040  0.00  0.00    +0.000 NA
ATOM     21  N   UNL     1       7.397   5.527  15.401  0.00  0.00    +0.000 NA
ATOM     22  C   UNL     1       6.620   4.518  15.739  0.00  0.00    +0.000 A 
ATOM     23  O   UNL     1       6.243   3.755  14.655  0.00  0.00    +0.000 OA
BRANCH  19  25
ATOM     24  C   UNL     1       5.499   3.031  12.096  0.00  0.00    +0.000 C 
ATOM     25  C   UNL     1       6.761   3.860  12.263  0.00  0.00    +0.000 C 
ENDBRANCH  19  25
ENDBRANCH  17  22
ENDBRANCH  15  17
ENDBRANCH  14  15
ENDBRANCH   1  14
TORSDOF 6
ENDMDL
MODEL 7
REMARK VINA RESULT:      -7.3      4.333      6.693
REMARK  Name = 
REMARK  11 active torsions:
REMARK  status: ('A' for Active; 'I' for Inactive)
REMARK    1  A    between atoms: C_1  and  C_2
REMARK    2  A    between atoms: C_2  and  C_3
REMARK    3  A    between atoms: C_6  and  C_7
REMARK    4  A    between atoms: C_7  and  C_8
REMARK    5  A    between atoms: C_7  and  N_9
REMARK    6  A    between atoms: N_9  and  C_10
REMARK    7  A    between atoms: N_9  and  C_11
REMARK    8  A    between atoms: C_11  and  C_12
REMARK    9  A    between atoms: C_13  and  C_14
REMARK   10  A    between atoms: N_16  and  C_17
REMARK   11  A    between atoms: C_23  and  C_24
REMARK                            x       y       z     vdW  Elec       q    Type
REMARK                         _______ _______ _______ _____ _____    ______ ____
ROOT
ATOM      1  C   UNL     1       2.474   6.965  18.825  0.00  0.00    +0.000 A 
ATOM      2  C   UNL     1       2.123   6.540  20.137  0.00  0.00    +0.000 A 
ATOM      3  C   UNL     1       2.363   5.220  20.777  0.00  0.00    +0.000 C 
ATOM      4  N   UNL     1       1.505   7.502  20.825  0.00  0.00    +0.000 NA
ATOM      5  N   UNL     1       1.324   8.507  19.933  0.00  0.00    +0.000 N 
ATOM      6  C   UNL     1       2.065   8.292  18.779  0.00  0.00    +0.000 A 
ATOM      7  C   UNL     1       2.354   9.330  17.753  0.00  0.00    +0.000 C 
ENDROOT
BRANCH   5   8
ATOM      8  C   UNL     1       0.479   9.613  20.230  0.00  0.00    +0.000 A 
ATOM      9  C   UNL     1       0.639  10.312  21.433  0.00  0.00    +0.000 A 
ATOM     10  C   UNL     1      -0.091  11.485  21.646  0.00  0.00    +0.000 A 
ATOM     11  C   UNL     1      -0.995  11.938  20.689  0.00  0.00    +0.000 A 
ATOM     12  C   UNL     1      -1.212  11.201  19.529  0.00  0.00    +0.000 A 
ATOM     13  C   UNL     1      -0.494  10.029  19.314  0.00  0.00    +0.000 A 
ENDBRANCH   5   8
BRANCH   1  14
ATOM     14  C   UNL     1       3.171   6.178  17.752  0.00  0.00    +0.000 C 
BRANCH  14  15
ATOM     15  N   UNL     1       4.629   6.126  17.999  0.00  0.00    +0.000 NA
ATOM     16  C   UNL     1       5.356   7.191  17.295  0.00  0.00    +0.000 C 
BRANCH  15  17
ATOM     17  C   UNL     1       5.219   4.787  17.690  0.00  0.00    +0.000 C 
ATOM     18  C   UNL     1       5.207   4.401  16.195  0.00  0.00    +0.000 C 
BRANCH  17  22
ATOM     19  C   UNL     1       3.134   2.237  19.057  0.00  0.00    +0.000 A 
ATOM     20  N   UNL     1       4.094   2.169  19.956  0.00  0.00    +0.000 NA
ATOM     21  N   UNL     1       5.049   3.080  19.572  0.00  0.00    +0.000 NA
ATOM     22  C   UNL     1       4.609   3.650  18.469  0.00  0.00    +0.000 A 
ATOM     23  O   UNL     1       3.385   3.159  18.072  0.00  0.00    +0.000 OA
BRANCH  19  25
ATOM     24  C   UNL     1       0.665   2.432  18.865  0.00  0.00    +0.000 C 
ATOM     25  C   UNL     1       1.852   1.498  19.017  0.00  0.00    +0.000 C 
ENDBRANCH  19  25
ENDBRANCH  17  22
ENDBRANCH  15  17
ENDBRANCH  14  15
ENDBRANCH   1  14
TORSDOF 6
ENDMDL
MODEL 8
REMARK VINA RESULT:      -7.2      4.224      5.880
REMARK  Name = 
REMARK  11 active torsions:
REMARK  status: ('A' for Active; 'I' for Inactive)
REMARK    1  A    between atoms: C_1  and  C_2
REMARK    2  A    between atoms: C_2  and  C_3
REMARK    3  A    between atoms: C_6  and  C_7
REMARK    4  A    between atoms: C_7  and  C_8
REMARK    5  A    between atoms: C_7  and  N_9
REMARK    6  A    between atoms: N_9  and  C_10
REMARK    7  A    between atoms: N_9  and  C_11
REMARK    8  A    between atoms: C_11  and  C_12
REMARK    9  A    between atoms: C_13  and  C_14
REMARK   10  A    between atoms: N_16  and  C_17
REMARK   11  A    between atoms: C_23  and  C_24
REMARK                            x       y       z     vdW  Elec       q    Type
REMARK                         _______ _______ _______ _____ _____    ______ ____
ROOT
ATOM      1  C   UNL     1       2.343   7.076  18.867  0.00  0.00    +0.000 A 
ATOM      2  C   UNL     1       2.007   6.659  20.186  0.00  0.00    +0.000 A 
ATOM      3  C   UNL     1       2.248   5.340  20.828  0.00  0.00    +0.000 C 
ATOM      4  N   UNL     1       1.404   7.627  20.878  0.00  0.00    +0.000 NA
ATOM      5  N   UNL     1       1.218   8.630  19.983  0.00  0.00    +0.000 N 
ATOM      6  C   UNL     1       1.940   8.405  18.821  0.00  0.00    +0.000 A 
ATOM      7  C   UNL     1       2.222   9.437  17.787  0.00  0.00    +0.000 C 
ENDROOT
BRANCH   5   8
ATOM      8  C   UNL     1       0.384   9.742  20.288  0.00  0.00    +0.000 A 
ATOM      9  C   UNL     1       0.597  10.477  21.461  0.00  0.00    +0.000 A 
ATOM     10  C   UNL     1      -0.126  11.654  21.674  0.00  0.00    +0.000 A 
ATOM     11  C   UNL     1      -1.075  12.077  20.748  0.00  0.00    +0.000 A 
ATOM     12  C   UNL     1      -1.343  11.307  19.621  0.00  0.00    +0.000 A 
ATOM     13  C   UNL     1      -0.632  10.129  19.406  0.00  0.00    +0.000 A 
ENDBRANCH   5   8
BRANCH   1  14
ATOM     14  C   UNL     1       3.019   6.280  17.788  0.00  0.00    +0.000 C 
BRANCH  14  15
ATOM     15  N   UNL     1       4.491   6.385  17.899  0.00  0.00    +0.000 NA
ATOM     16  C   UNL     1       5.060   7.340  16.938  0.00  0.00    +0.000 C 
BRANCH  15  17
ATOM     17  C   UNL     1       5.174   5.058  17.797  0.00  0.00    +0.000 C 
ATOM     18  C   UNL     1       6.099   4.711  18.984  0.00  0.00    +0.000 C 
BRANCH  17  22
ATOM     19  C   UNL     1       6.348   4.243  14.529  0.00  0.00    +0.000 A 
ATOM     20  N   UNL     1       7.501   4.634  15.029  0.00  0.00    +0.000 NA
ATOM     21  N   UNL     1       7.246   5.041  16.317  0.00  0.00    +0.000 NA
ATOM     22  C   UNL     1       5.957   4.866  16.524  0.00  0.00    +0.000 A 
ATOM     23  O   UNL     1       5.309   4.359  15.418  0.00  0.00    +0.000 OA
BRANCH  19  25
ATOM     24  C   UNL     1       7.062   4.155  12.151  0.00  0.00    +0.000 C 
ATOM     25  C   UNL     1       6.066   3.675  13.192  0.00  0.00    +0.000 C 
ENDBRANCH  19  25
ENDBRANCH  17  22
ENDBRANCH  15  17
ENDBRANCH  14  15
ENDBRANCH   1  14
TORSDOF 6
ENDMDL
MODEL 9
REMARK VINA RESULT:      -7.1      3.616      6.200
REMARK  Name = 
REMARK  11 active torsions:
REMARK  status: ('A' for Active; 'I' for Inactive)
REMARK    1  A    between atoms: C_1  and  C_2
REMARK    2  A    between atoms: C_2  and  C_3
REMARK    3  A    between atoms: C_6  and  C_7
REMARK    4  A    between atoms: C_7  and  C_8
REMARK    5  A    between atoms: C_7  and  N_9
REMARK    6  A    between atoms: N_9  and  C_10
REMARK    7  A    between atoms: N_9  and  C_11
REMARK    8  A    between atoms: C_11  and  C_12
REMARK    9  A    between atoms: C_13  and  C_14
REMARK   10  A    between atoms: N_16  and  C_17
REMARK   11  A    between atoms: C_23  and  C_24
REMARK                            x       y       z     vdW  Elec       q    Type
REMARK                         _______ _______ _______ _____ _____    ______ ____
ROOT
ATOM      1  C   UNL     1       2.507   5.268  18.724  0.00  0.00    +0.000 A 
ATOM      2  C   UNL     1       1.968   4.878  19.982  0.00  0.00    +0.000 A 
ATOM      3  C   UNL     1       1.727   3.506  20.500  0.00  0.00    +0.000 C 
ATOM      4  N   UNL     1       1.665   5.931  20.744  0.00  0.00    +0.000 NA
ATOM      5  N   UNL     1       1.872   7.009  19.946  0.00  0.00    +0.000 N 
ATOM      6  C   UNL     1       2.560   6.655  18.794  0.00  0.00    +0.000 A 
ATOM      7  C   UNL     1       3.227   7.618  17.877  0.00  0.00    +0.000 C 
ENDROOT
BRANCH   5   8
ATOM      8  C   UNL     1       1.423   8.305  20.328  0.00  0.00    +0.000 A 
ATOM      9  C   UNL     1       1.113   9.255  19.348  0.00  0.00    +0.000 A 
ATOM     10  C   UNL     1       0.530  10.467  19.728  0.00  0.00    +0.000 A 
ATOM     11  C   UNL     1       0.292  10.746  21.072  0.00  0.00    +0.000 A 
ATOM     12  C   UNL     1       0.673   9.834  22.051  0.00  0.00    +0.000 A 
ATOM     13  C   UNL     1       1.260   8.628  21.680  0.00  0.00    +0.000 A 
ENDBRANCH   5   8
BRANCH   1  14
ATOM     14  C   UNL     1       2.961   4.384  17.598  0.00  0.00    +0.000 C 
BRANCH  14  15
ATOM     15  N   UNL     1       4.396   4.050  17.735  0.00  0.00    +0.000 NA
ATOM     16  C   UNL     1       4.905   4.306  19.089  0.00  0.00    +0.000 C 
BRANCH  15  17
ATOM     17  C   UNL     1       5.248   4.730  16.711  0.00  0.00    +0.000 C 
ATOM     18  C   UNL     1       5.895   3.786  15.675  0.00  0.00    +0.000 C 
BRANCH  17  22
ATOM     19  C   UNL     1       7.441   7.374  17.670  0.00  0.00    +0.000 A 
ATOM     20  N   UNL     1       8.154   6.379  18.156  0.00  0.00    +0.000 NA
ATOM     21  N   UNL     1       7.434   5.233  17.915  0.00  0.00    +0.000 NA
ATOM     22  C   UNL     1       6.333   5.599  17.292  0.00  0.00    +0.000 A 
ATOM     23  O   UNL     1       6.262   6.962  17.100  0.00  0.00    +0.000 OA
BRANCH  19  25
ATOM     24  C   UNL     1       8.799   9.189  18.686  0.00  0.00    +0.000 C 
ATOM     25  C   UNL     1       7.774   8.815  17.630  0.00  0.00    +0.000 C 
ENDBRANCH  19  25
ENDBRANCH  17  22
ENDBRANCH  15  17
ENDBRANCH  14  15
ENDBRANCH   1  14
TORSDOF 6
ENDMDL
