MODEL 1
REMARK VINA RESULT:      -7.4      0.000      0.000
REMARK  Name = 
REMARK  3 active torsions:
REMARK  status: ('A' for Active; 'I' for Inactive)
REMARK    1  A    between atoms: C_2  and  C_17
REMARK    2  A    between atoms: N_3  and  N_4
REMARK    3  A    between atoms: C_7  and  C_8
REMARK                            x       y       z     vdW  Elec       q    Type
REMARK                         _______ _______ _______ _____ _____    ______ ____
ROOT
ATOM      1  N   UNL     1       1.634   6.800  21.256  0.00  0.00    +0.000 N 
ATOM      2  C   UNL     1       2.047   5.917  20.314  0.00  0.00    +0.000 A 
ATOM      3  N   UNL     1       2.871   6.180  19.323  0.00  0.00    +0.000 NA
ATOM      4  C   UNL     1       3.110   5.031  18.578  0.00  0.00    +0.000 A 
ATOM      5  C   UNL     1       2.421   3.912  19.001  0.00  0.00    +0.000 A 
ATOM      6  S   UNL     1       1.489   4.288  20.384  0.00  0.00    +0.000 S 
ATOM      7  H   UNL     1       0.900   6.471  21.888  0.00  0.00    +0.000 HD
ENDROOT
BRANCH   4   8
ATOM      8  C   UNL     1       4.060   5.026  17.470  0.00  0.00    +0.000 A 
ATOM      9  C   UNL     1       4.533   3.801  16.976  0.00  0.00    +0.000 A 
ATOM     10  C   UNL     1       5.429   3.762  15.904  0.00  0.00    +0.000 A 
ATOM     11  C   UNL     1       5.864   4.950  15.323  0.00  0.00    +0.000 A 
ATOM     12 CL   UNL     1       6.977   4.905  14.011  0.00  0.00    +0.000 Cl
ATOM     13  C   UNL     1       5.408   6.175  15.801  0.00  0.00    +0.000 A 
ATOM     14  C   UNL     1       4.508   6.214  16.870  0.00  0.00    +0.000 A 
ENDBRANCH   4   8
BRANCH   1  17
ATOM     15  O   UNL     1      -0.639   8.096  21.773  0.00  0.00    +0.000 OA
ATOM     16  C   UNL     1       0.274   8.756  21.266  0.00  0.00    +0.000 C 
ATOM     17  N   UNL     1       1.495   8.170  20.976  0.00  0.00    +0.000 N 
ATOM     18  H   UNL     1       2.282   8.664  20.564  0.00  0.00    +0.000 HD
BRANCH  16  19
ATOM     19  C   UNL     1       0.154  10.157  20.939  0.00  0.00    +0.000 A 
ATOM     20  C   UNL     1      -0.669  10.796  20.029  0.00  0.00    +0.000 A 
ATOM     21  C   UNL     1      -0.351  12.173  20.087  0.00  0.00    +0.000 A 
ATOM     22  C   UNL     1       0.645  12.294  21.028  0.00  0.00    +0.000 A 
ATOM     23  O   UNL     1       0.954  11.081  21.559  0.00  0.00    +0.000 OA
ENDBRANCH  16  19
ENDBRANCH   1  17
TORSDOF 3
ENDMDL
MODEL 2
REMARK VINA RESULT:      -7.3      4.732      8.045
REMARK  Name = 
REMARK  3 active torsions:
REMARK  status: ('A' for Active; 'I' for Inactive)
REMARK    1  A    between atoms: C_2  and  C_17
REMARK    2  A    between atoms: N_3  and  N_4
REMARK    3  A    between atoms: C_7  and  C_8
REMARK                            x       y       z     vdW  Elec       q    Type
REMARK                         _______ _______ _______ _____ _____    ______ ____
ROOT
ATOM      1  N   UNL     1       4.626   3.303  16.955  0.00  0.00    +0.000 N 
ATOM      2  C   UNL     1       4.189   4.193  17.879  0.00  0.00    +0.000 A 
ATOM      3  N   UNL     1       3.643   5.362  17.623  0.00  0.00    +0.000 NA
ATOM      4  C   UNL     1       3.272   5.991  18.806  0.00  0.00    +0.000 A 
ATOM      5  C   UNL     1       3.586   5.295  19.956  0.00  0.00    +0.000 A 
ATOM      6  S   UNL     1       4.318   3.802  19.553  0.00  0.00    +0.000 S 
ATOM      7  H   UNL     1       5.135   2.493  17.319  0.00  0.00    +0.000 HD
ENDROOT
BRANCH   4   8
ATOM      8  C   UNL     1       2.562   7.267  18.799  0.00  0.00    +0.000 A 
ATOM      9  C   UNL     1       1.908   7.693  19.964  0.00  0.00    +0.000 A 
ATOM     10  C   UNL     1       1.234   8.918  19.997  0.00  0.00    +0.000 A 
ATOM     11  C   UNL     1       1.206   9.722  18.860  0.00  0.00    +0.000 A 
ATOM     12 CL   UNL     1       0.368  11.224  18.893  0.00  0.00    +0.000 Cl
ATOM     13  C   UNL     1       1.848   9.313  17.694  0.00  0.00    +0.000 A 
ATOM     14  C   UNL     1       2.525   8.090  17.663  0.00  0.00    +0.000 A 
ENDBRANCH   4   8
BRANCH   1  17
ATOM     15  O   UNL     1       7.148   4.133  16.703  0.00  0.00    +0.000 OA
ATOM     16  C   UNL     1       6.455   4.144  15.681  0.00  0.00    +0.000 C 
ATOM     17  N   UNL     1       5.138   3.716  15.714  0.00  0.00    +0.000 N 
ATOM     18  H   UNL     1       4.522   3.699  14.905  0.00  0.00    +0.000 HD
BRANCH  16  19
ATOM     19  C   UNL     1       6.940   4.589  14.396  0.00  0.00    +0.000 A 
ATOM     20  C   UNL     1       6.580   4.196  13.119  0.00  0.00    +0.000 A 
ATOM     21  C   UNL     1       7.394   4.927  12.222  0.00  0.00    +0.000 A 
ATOM     22  C   UNL     1       8.201   5.722  13.002  0.00  0.00    +0.000 A 
ATOM     23  O   UNL     1       7.929   5.535  14.321  0.00  0.00    +0.000 OA
ENDBRANCH  16  19
ENDBRANCH   1  17
TORSDOF 3
ENDMDL
MODEL 3
REMARK VINA RESULT:      -7.3      0.779      1.311
REMARK  Name = 
REMARK  3 active torsions:
REMARK  status: ('A' for Active; 'I' for Inactive)
REMARK    1  A    between atoms: C_2  and  C_17
REMARK    2  A    between atoms: N_3  and  N_4
REMARK    3  A    between atoms: C_7  and  C_8
REMARK                            x       y       z     vdW  Elec       q    Type
REMARK                         _______ _______ _______ _____ _____    ______ ____
ROOT
ATOM      1  N   UNL     1       1.620   7.225  21.105  0.00  0.00    +0.000 N 
ATOM      2  C   UNL     1       2.124   6.238  20.323  0.00  0.00    +0.000 A 
ATOM      3  N   UNL     1       2.848   6.411  19.239  0.00  0.00    +0.000 NA
ATOM      4  C   UNL     1       3.233   5.182  18.716  0.00  0.00    +0.000 A 
ATOM      5  C   UNL     1       2.751   4.084  19.400  0.00  0.00    +0.000 A 
ATOM      6  S   UNL     1       1.836   4.594  20.752  0.00  0.00    +0.000 S 
ATOM      7  H   UNL     1       0.978   6.927  21.843  0.00  0.00    +0.000 HD
ENDROOT
BRANCH   4   8
ATOM      8  C   UNL     1       4.119   5.090  17.559  0.00  0.00    +0.000 A 
ATOM      9  C   UNL     1       4.540   6.267  16.923  0.00  0.00    +0.000 A 
ATOM     10  C   UNL     1       5.403   6.215  15.823  0.00  0.00    +0.000 A 
ATOM     11  C   UNL     1       5.844   4.982  15.349  0.00  0.00    +0.000 A 
ATOM     12 CL   UNL     1       6.895   4.913  13.990  0.00  0.00    +0.000 Cl
ATOM     13  C   UNL     1       5.434   3.803  15.966  0.00  0.00    +0.000 A 
ATOM     14  C   UNL     1       4.575   3.856  17.069  0.00  0.00    +0.000 A 
ENDBRANCH   4   8
BRANCH   1  17
ATOM     15  O   UNL     1       1.438   9.388  22.654  0.00  0.00    +0.000 OA
ATOM     16  C   UNL     1       1.170   9.537  21.458  0.00  0.00    +0.000 C 
ATOM     17  N   UNL     1       1.251   8.473  20.575  0.00  0.00    +0.000 N 
ATOM     18  H   UNL     1       1.048   8.538  19.581  0.00  0.00    +0.000 HD
BRANCH  16  19
ATOM     19  C   UNL     1       0.760  10.798  20.887  0.00  0.00    +0.000 A 
ATOM     20  C   UNL     1      -0.137  11.070  19.869  0.00  0.00    +0.000 A 
ATOM     21  C   UNL     1      -0.135  12.472  19.686  0.00  0.00    +0.000 A 
ATOM     22  C   UNL     1       0.761  12.975  20.601  0.00  0.00    +0.000 A 
ATOM     23  O   UNL     1       1.303  11.971  21.342  0.00  0.00    +0.000 OA
ENDBRANCH  16  19
ENDBRANCH   1  17
TORSDOF 3
ENDMDL
MODEL 4
REMARK VINA RESULT:      -7.3      4.716      8.033
REMARK  Name = 
REMARK  3 active torsions:
REMARK  status: ('A' for Active; 'I' for Inactive)
REMARK    1  A    between atoms: C_2  and  C_17
REMARK    2  A    between atoms: N_3  and  N_4
REMARK    3  A    between atoms: C_7  and  C_8
REMARK                            x       y       z     vdW  Elec       q    Type
REMARK                         _______ _______ _______ _____ _____    ______ ____
ROOT
ATOM      1  N   UNL     1       4.621   3.264  16.983  0.00  0.00    +0.000 N 
ATOM      2  C   UNL     1       4.192   4.150  17.914  0.00  0.00    +0.000 A 
ATOM      3  N   UNL     1       3.653   5.325  17.667  0.00  0.00    +0.000 NA
ATOM      4  C   UNL     1       3.290   5.948  18.855  0.00  0.00    +0.000 A 
ATOM      5  C   UNL     1       3.602   5.242  19.999  0.00  0.00    +0.000 A 
ATOM      6  S   UNL     1       4.323   3.748  19.585  0.00  0.00    +0.000 S 
ATOM      7  H   UNL     1       5.125   2.448  17.340  0.00  0.00    +0.000 HD
ENDROOT
BRANCH   4   8
ATOM      8  C   UNL     1       2.589   7.229  18.859  0.00  0.00    +0.000 A 
ATOM      9  C   UNL     1       2.601   8.021  17.702  0.00  0.00    +0.000 A 
ATOM     10  C   UNL     1       1.925   9.245  17.668  0.00  0.00    +0.000 A 
ATOM     11  C   UNL     1       1.237   9.686  18.796  0.00  0.00    +0.000 A 
ATOM     12 CL   UNL     1       0.415  11.197  18.761  0.00  0.00    +0.000 Cl
ATOM     13  C   UNL     1       1.217   8.914  19.954  0.00  0.00    +0.000 A 
ATOM     14  C   UNL     1       1.890   7.689  19.986  0.00  0.00    +0.000 A 
ENDBRANCH   4   8
BRANCH   1  17
ATOM     15  O   UNL     1       7.138   4.110  16.736  0.00  0.00    +0.000 OA
ATOM     16  C   UNL     1       6.446   4.118  15.713  0.00  0.00    +0.000 C 
ATOM     17  N   UNL     1       5.132   3.682  15.742  0.00  0.00    +0.000 N 
ATOM     18  H   UNL     1       4.518   3.661  14.932  0.00  0.00    +0.000 HD
BRANCH  16  19
ATOM     19  C   UNL     1       6.931   4.568  14.430  0.00  0.00    +0.000 A 
ATOM     20  C   UNL     1       6.574   4.177  13.151  0.00  0.00    +0.000 A 
ATOM     21  C   UNL     1       7.386   4.912  12.257  0.00  0.00    +0.000 A 
ATOM     22  C   UNL     1       8.189   5.709  13.039  0.00  0.00    +0.000 A 
ATOM     23  O   UNL     1       7.916   5.518  14.358  0.00  0.00    +0.000 OA
ENDBRANCH  16  19
ENDBRANCH   1  17
TORSDOF 3
ENDMDL
MODEL 5
REMARK VINA RESULT:      -7.2      6.142      9.036
REMARK  Name = 
REMARK  3 active torsions:
REMARK  status: ('A' for Active; 'I' for Inactive)
REMARK    1  A    between atoms: C_2  and  C_17
REMARK    2  A    between atoms: N_3  and  N_4
REMARK    3  A    between atoms: C_7  and  C_8
REMARK                            x       y       z     vdW  Elec       q    Type
REMARK                         _______ _______ _______ _____ _____    ______ ____
ROOT
ATOM      1  N   UNL     1       7.317   4.428  15.821  0.00  0.00    +0.000 N 
ATOM      2  C   UNL     1       6.661   4.826  16.938  0.00  0.00    +0.000 A 
ATOM      3  N   UNL     1       5.657   4.194  17.507  0.00  0.00    +0.000 NA
ATOM      4  C   UNL     1       5.258   4.862  18.659  0.00  0.00    +0.000 A 
ATOM      5  C   UNL     1       5.950   6.027  18.923  0.00  0.00    +0.000 A 
ATOM      6  S   UNL     1       7.155   6.272  17.735  0.00  0.00    +0.000 S 
ATOM      7  H   UNL     1       7.995   5.092  15.439  0.00  0.00    +0.000 HD
ENDROOT
BRANCH   4   8
ATOM      8  C   UNL     1       4.217   4.323  19.529  0.00  0.00    +0.000 A 
ATOM      9  C   UNL     1       4.228   2.956  19.845  0.00  0.00    +0.000 A 
ATOM     10  C   UNL     1       3.255   2.412  20.690  0.00  0.00    +0.000 A 
ATOM     11  C   UNL     1       2.262   3.232  21.219  0.00  0.00    +0.000 A 
ATOM     12 CL   UNL     1       1.057   2.563  22.249  0.00  0.00    +0.000 Cl
ATOM     13  C   UNL     1       2.234   4.590  20.914  0.00  0.00    +0.000 A 
ATOM     14  C   UNL     1       3.210   5.135  20.072  0.00  0.00    +0.000 A 
ENDBRANCH   4   8
BRANCH   1  17
ATOM     15  O   UNL     1       7.352   5.274  13.292  0.00  0.00    +0.000 OA
ATOM     16  C   UNL     1       6.733   4.230  13.520  0.00  0.00    +0.000 C 
ATOM     17  N   UNL     1       6.673   3.707  14.801  0.00  0.00    +0.000 N 
ATOM     18  H   UNL     1       6.184   2.850  15.047  0.00  0.00    +0.000 HD
BRANCH  16  19
ATOM     19  C   UNL     1       6.036   3.480  12.501  0.00  0.00    +0.000 A 
ATOM     20  C   UNL     1       4.749   3.619  12.011  0.00  0.00    +0.000 A 
ATOM     21  C   UNL     1       4.567   2.601  11.047  0.00  0.00    +0.000 A 
ATOM     22  C   UNL     1       5.751   1.902  11.003  0.00  0.00    +0.000 A 
ATOM     23  O   UNL     1       6.653   2.431  11.872  0.00  0.00    +0.000 OA
ENDBRANCH  16  19
ENDBRANCH   1  17
TORSDOF 3
ENDMDL
MODEL 6
REMARK VINA RESULT:      -7.2      0.864      1.042
REMARK  Name = 
REMARK  3 active torsions:
REMARK  status: ('A' for Active; 'I' for Inactive)
REMARK    1  A    between atoms: C_2  and  C_17
REMARK    2  A    between atoms: N_3  and  N_4
REMARK    3  A    between atoms: C_7  and  C_8
REMARK                            x       y       z     vdW  Elec       q    Type
REMARK                         _______ _______ _______ _____ _____    ______ ____
ROOT
ATOM      1  N   UNL     1       1.704   7.298  20.986  0.00  0.00    +0.000 N 
ATOM      2  C   UNL     1       2.203   6.314  20.199  0.00  0.00    +0.000 A 
ATOM      3  N   UNL     1       2.926   6.488  19.114  0.00  0.00    +0.000 NA
ATOM      4  C   UNL     1       3.305   5.261  18.584  0.00  0.00    +0.000 A 
ATOM      5  C   UNL     1       2.821   4.161  19.265  0.00  0.00    +0.000 A 
ATOM      6  S   UNL     1       1.911   4.668  20.621  0.00  0.00    +0.000 S 
ATOM      7  H   UNL     1       1.062   6.999  21.725  0.00  0.00    +0.000 HD
ENDROOT
BRANCH   4   8
ATOM      8  C   UNL     1       4.188   5.172  17.425  0.00  0.00    +0.000 A 
ATOM      9  C   UNL     1       4.651   3.914  17.011  0.00  0.00    +0.000 A 
ATOM     10  C   UNL     1       5.484   3.793  15.894  0.00  0.00    +0.000 A 
ATOM     11  C   UNL     1       5.863   4.932  15.188  0.00  0.00    +0.000 A 
ATOM     12 CL   UNL     1       6.897   4.787  13.821  0.00  0.00    +0.000 Cl
ATOM     13  C   UNL     1       5.415   6.188  15.586  0.00  0.00    +0.000 A 
ATOM     14  C   UNL     1       4.579   6.308  16.701  0.00  0.00    +0.000 A 
ENDBRANCH   4   8
BRANCH   1  17
ATOM     15  O   UNL     1      -0.509   8.545  21.798  0.00  0.00    +0.000 OA
ATOM     16  C   UNL     1       0.165   9.116  20.934  0.00  0.00    +0.000 C 
ATOM     17  N   UNL     1       1.338   8.550  20.463  0.00  0.00    +0.000 N 
ATOM     18  H   UNL     1       1.935   8.975  19.758  0.00  0.00    +0.000 HD
BRANCH  16  19
ATOM     19  C   UNL     1      -0.197  10.388  20.355  0.00  0.00    +0.000 A 
ATOM     20  C   UNL     1       0.330  11.650  20.568  0.00  0.00    +0.000 A 
ATOM     21  C   UNL     1      -0.420  12.545  19.770  0.00  0.00    +0.000 A 
ATOM     22  C   UNL     1      -1.357  11.780  19.117  0.00  0.00    +0.000 A 
ATOM     23  O   UNL     1      -1.227  10.469  19.455  0.00  0.00    +0.000 OA
ENDBRANCH  16  19
ENDBRANCH   1  17
TORSDOF 3
ENDMDL
MODEL 7
REMARK VINA RESULT:      -6.9      6.142      9.237
REMARK  Name = 
REMARK  3 active torsions:
REMARK  status: ('A' for Active; 'I' for Inactive)
REMARK    1  A    between atoms: C_2  and  C_17
REMARK    2  A    between atoms: N_3  and  N_4
REMARK    3  A    between atoms: C_7  and  C_8
REMARK                            x       y       z     vdW  Elec       q    Type
REMARK                         _______ _______ _______ _____ _____    ______ ____
ROOT
ATOM      1  N   UNL     1       7.285   4.854  15.609  0.00  0.00    +0.000 N 
ATOM      2  C   UNL     1       6.558   5.211  16.696  0.00  0.00    +0.000 A 
ATOM      3  N   UNL     1       5.672   4.457  17.310  0.00  0.00    +0.000 NA
ATOM      4  C   UNL     1       5.152   5.125  18.412  0.00  0.00    +0.000 A 
ATOM      5  C   UNL     1       5.629   6.408  18.591  0.00  0.00    +0.000 A 
ATOM      6  S   UNL     1       6.786   6.774  17.386  0.00  0.00    +0.000 S 
ATOM      7  H   UNL     1       7.841   5.597  15.178  0.00  0.00    +0.000 HD
ENDROOT
BRANCH   4   8
ATOM      8  C   UNL     1       4.212   4.477  19.321  0.00  0.00    +0.000 A 
ATOM      9  C   UNL     1       3.201   5.242  19.923  0.00  0.00    +0.000 A 
ATOM     10  C   UNL     1       2.274   4.648  20.784  0.00  0.00    +0.000 A 
ATOM     11  C   UNL     1       2.356   3.284  21.054  0.00  0.00    +0.000 A 
ATOM     12 CL   UNL     1       1.223   2.553  22.123  0.00  0.00    +0.000 Cl
ATOM     13  C   UNL     1       3.353   2.510  20.469  0.00  0.00    +0.000 A 
ATOM     14  C   UNL     1       4.278   3.103  19.604  0.00  0.00    +0.000 A 
ENDBRANCH   4   8
BRANCH   1  17
ATOM     15  O   UNL     1       7.547   5.344  13.000  0.00  0.00    +0.000 OA
ATOM     16  C   UNL     1       6.956   4.306  13.314  0.00  0.00    +0.000 C 
ATOM     17  N   UNL     1       6.785   3.962  14.645  0.00  0.00    +0.000 N 
ATOM     18  H   UNL     1       6.312   3.119  14.962  0.00  0.00    +0.000 HD
BRANCH  16  19
ATOM     19  C   UNL     1       6.405   3.382  12.350  0.00  0.00    +0.000 A 
ATOM     20  C   UNL     1       5.097   3.188  11.943  0.00  0.00    +0.000 A 
ATOM     21  C   UNL     1       5.114   2.132  11.003  0.00  0.00    +0.000 A 
ATOM     22  C   UNL     1       6.429   1.745  10.888  0.00  0.00    +0.000 A 
ATOM     23  O   UNL     1       7.224   2.502  11.692  0.00  0.00    +0.000 OA
ENDBRANCH  16  19
ENDBRANCH   1  17
TORSDOF 3
ENDMDL
MODEL 8
REMARK VINA RESULT:      -6.7      3.397      3.924
REMARK  Name = 
REMARK  3 active torsions:
REMARK  status: ('A' for Active; 'I' for Inactive)
REMARK    1  A    between atoms: C_2  and  C_17
REMARK    2  A    between atoms: N_3  and  N_4
REMARK    3  A    between atoms: C_7  and  C_8
REMARK                            x       y       z     vdW  Elec       q    Type
REMARK                         _______ _______ _______ _____ _____    ______ ____
ROOT
ATOM      1  N   UNL     1       0.485   9.843  18.778  0.00  0.00    +0.000 N 
ATOM      2  C   UNL     1       1.303   8.772  18.929  0.00  0.00    +0.000 A 
ATOM      3  N   UNL     1       1.918   8.131  17.959  0.00  0.00    +0.000 NA
ATOM      4  C   UNL     1       2.710   7.115  18.480  0.00  0.00    +0.000 A 
ATOM      5  C   UNL     1       2.647   6.975  19.852  0.00  0.00    +0.000 A 
ATOM      6  S   UNL     1       1.613   8.167  20.513  0.00  0.00    +0.000 S 
ATOM      7  H   UNL     1      -0.010  10.151  19.618  0.00  0.00    +0.000 HD
ENDROOT
BRANCH   4   8
ATOM      8  C   UNL     1       3.570   6.304  17.622  0.00  0.00    +0.000 A 
ATOM      9  C   UNL     1       3.413   4.911  17.615  0.00  0.00    +0.000 A 
ATOM     10  C   UNL     1       4.208   4.107  16.791  0.00  0.00    +0.000 A 
ATOM     11  C   UNL     1       5.171   4.695  15.975  0.00  0.00    +0.000 A 
ATOM     12 CL   UNL     1       6.159   3.708  14.970  0.00  0.00    +0.000 Cl
ATOM     13  C   UNL     1       5.343   6.076  15.971  0.00  0.00    +0.000 A 
ATOM     14  C   UNL     1       4.544   6.879  16.792  0.00  0.00    +0.000 A 
ENDBRANCH   4   8
BRANCH   1  17
ATOM     15  O   UNL     1      -2.137  10.301  18.945  0.00  0.00    +0.000 OA
ATOM     16  C   UNL     1      -1.656  10.236  17.809  0.00  0.00    +0.000 C 
ATOM     17  N   UNL     1      -0.300  10.017  17.625  0.00  0.00    +0.000 N 
ATOM     18  H   UNL     1       0.151   9.959  16.717  0.00  0.00    +0.000 HD
BRANCH  16  19
ATOM     19  C   UNL     1      -2.438  10.382  16.605  0.00  0.00    +0.000 A 
ATOM     20  C   UNL     1      -3.551  11.164  16.351  0.00  0.00    +0.000 A 
ATOM     21  C   UNL     1      -3.941  10.898  15.018  0.00  0.00    +0.000 A 
ATOM     22  C   UNL     1      -3.045   9.973  14.536  0.00  0.00    +0.000 A 
ATOM     23  O   UNL     1      -2.123   9.659  15.485  0.00  0.00    +0.000 OA
ENDBRANCH  16  19
ENDBRANCH   1  17
TORSDOF 3
ENDMDL
MODEL 9
REMARK VINA RESULT:      -6.6      5.948      9.220
REMARK  Name = 
REMARK  3 active torsions:
REMARK  status: ('A' for Active; 'I' for Inactive)
REMARK    1  A    between atoms: C_2  and  C_17
REMARK    2  A    between atoms: N_3  and  N_4
REMARK    3  A    between atoms: C_7  and  C_8
REMARK                            x       y       z     vdW  Elec       q    Type
REMARK                         _______ _______ _______ _____ _____    ______ ____
ROOT
ATOM      1  N   UNL     1       6.378   5.504  15.219  0.00  0.00    +0.000 N 
ATOM      2  C   UNL     1       5.553   5.775  16.260  0.00  0.00    +0.000 A 
ATOM      3  N   UNL     1       4.885   4.885  16.963  0.00  0.00    +0.000 NA
ATOM      4  C   UNL     1       4.176   5.510  17.982  0.00  0.00    +0.000 A 
ATOM      5  C   UNL     1       4.289   6.886  18.008  0.00  0.00    +0.000 A 
ATOM      6  S   UNL     1       5.338   7.409  16.763  0.00  0.00    +0.000 S 
ATOM      7  H   UNL     1       6.727   6.316  14.703  0.00  0.00    +0.000 HD
ENDROOT
BRANCH   4   8
ATOM      8  C   UNL     1       3.418   4.741  18.965  0.00  0.00    +0.000 A 
ATOM      9  C   UNL     1       3.870   3.465  19.334  0.00  0.00    +0.000 A 
ATOM     10  C   UNL     1       3.177   2.710  20.285  0.00  0.00    +0.000 A 
ATOM     11  C   UNL     1       2.022   3.226  20.869  0.00  0.00    +0.000 A 
ATOM     12 CL   UNL     1       1.161   2.294  22.031  0.00  0.00    +0.000 Cl
ATOM     13  C   UNL     1       1.557   4.488  20.512  0.00  0.00    +0.000 A 
ATOM     14  C   UNL     1       2.253   5.245  19.564  0.00  0.00    +0.000 A 
ENDBRANCH   4   8
BRANCH   1  17
ATOM     15  O   UNL     1       7.580   5.335  12.845  0.00  0.00    +0.000 OA
ATOM     16  C   UNL     1       6.817   4.412  13.148  0.00  0.00    +0.000 C 
ATOM     17  N   UNL     1       6.160   4.408  14.368  0.00  0.00    +0.000 N 
ATOM     18  H   UNL     1       5.526   3.674  14.673  0.00  0.00    +0.000 HD
BRANCH  16  19
ATOM     19  C   UNL     1       6.549   3.286  12.286  0.00  0.00    +0.000 A 
ATOM     20  C   UNL     1       5.356   2.652  11.986  0.00  0.00    +0.000 A 
ATOM     21  C   UNL     1       5.668   1.583  11.114  0.00  0.00    +0.000 A 
ATOM     22  C   UNL     1       7.031   1.627  10.931  0.00  0.00    +0.000 A 
ATOM     23  O   UNL     1       7.576   2.660  11.628  0.00  0.00    +0.000 OA
ENDBRANCH  16  19
ENDBRANCH   1  17
TORSDOF 3
ENDMDL
