MODEL 1
REMARK VINA RESULT:      -6.5      0.000      0.000
REMARK  Name = 
REMARK  10 active torsions:
REMARK  status: ('A' for Active; 'I' for Inactive)
REMARK    1  A    between atoms: C_1  and  O_2
REMARK    2  A    between atoms: O_2  and  C_3
REMARK    3  A    between atoms: C_4  and  C_5
REMARK    4  A    between atoms: C_5  and  O_6
REMARK    5  A    between atoms: O_6  and  C_7
REMARK    6  A    between atoms: C_14  and  C_15
REMARK    7  A    between atoms: C_16  and  O_17
REMARK    8  A    between atoms: O_17  and  C_18
REMARK    9  A    between atoms: C_18  and  C_19
REMARK   10  A    between atoms: C_19  and  C_20
REMARK                            x       y       z     vdW  Elec       q    Type
REMARK                         _______ _______ _______ _____ _____    ______ ____
ROOT
ATOM      1  C   UNL     1       0.184  12.414  20.409  0.00  0.00    +0.000 C 
ATOM      2  C   UNL     1      -0.786  11.152  20.322  0.00  0.00    +0.000 C 
ATOM      3  C   UNL     1       0.051   9.970  19.906  0.00  0.00    +0.000 C 
ATOM      4  C   UNL     1       0.912  10.419  19.013  0.00  0.00    +0.000 C 
ATOM      5  C   UNL     1       1.867   9.558  18.301  0.00  0.00    +0.000 C 
ATOM      6  O   UNL     1       2.397   9.906  17.253  0.00  0.00    +0.000 OA
ATOM      7  C   UNL     1       2.112   8.230  18.933  0.00  0.00    +0.000 C 
ATOM      8  C   UNL     1       2.995   7.293  18.161  0.00  0.00    +0.000 C 
ATOM      9  C   UNL     1       1.567   7.931  20.131  0.00  0.00    +0.000 C 
ATOM     10  C   UNL     1       0.518   8.853  20.733  0.00  0.00    +0.000 C 
ATOM     11  O   UNL     1       0.095   8.735  21.879  0.00  0.00    +0.000 OA
ATOM     12  N   UNL     1       0.865  11.792  19.072  0.00  0.00    +0.000 N 
ATOM     13  C   UNL     1       1.692  12.747  18.327  0.00  0.00    +0.000 C 
ATOM     14  C   UNL     1       1.644  13.901  19.242  0.00  0.00    +0.000 C 
ATOM     15  N   UNL     1       2.216  14.343  20.477  0.00  0.00    +0.000 NA
ATOM     16  C   UNL     1       1.561  13.070  20.542  0.00  0.00    +0.000 C 
ATOM     17  H   UNL     1       1.672  15.063  20.944  0.00  0.00    +0.000 HD
ENDROOT
BRANCH   1  19
ATOM     18  C   UNL     1      -0.792  12.397  22.625  0.00  0.00    +0.000 C 
ATOM     19  O   UNL     1       0.361  12.010  21.845  0.00  0.00    +0.000 OA
ENDBRANCH   1  19
BRANCH   2  20
ATOM     20  C   UNL     1      -1.926  11.548  19.347  0.00  0.00    +0.000 C 
BRANCH  20  21
ATOM     21  O   UNL     1      -2.218  10.433  18.467  0.00  0.00    +0.000 OA
BRANCH  21  22
ATOM     22  C   UNL     1      -2.544  10.731  17.187  0.00  0.00    +0.000 C 
ATOM     23  N   UNL     1      -1.869  11.827  16.774  0.00  0.00    +0.000 N 
ATOM     24  O   UNL     1      -3.289  10.098  16.460  0.00  0.00    +0.000 OA
ATOM     25  H   UNL     1      -1.288  12.345  17.414  0.00  0.00    +0.000 HD
ATOM     26  H   UNL     1      -2.064  12.200  15.854  0.00  0.00    +0.000 HD
ENDBRANCH  21  22
ENDBRANCH  20  21
ENDBRANCH   2  20
BRANCH   9  27
ATOM     27  O   UNL     1       2.012   6.781  20.784  0.00  0.00    +0.000 OA
BRANCH  27  28
ATOM     28  C   UNL     1       1.277   5.571  20.578  0.00  0.00    +0.000 C 
BRANCH  28  29
ATOM     29  C   UNL     1       2.234   4.395  20.428  0.00  0.00    +0.000 C 
BRANCH  29  30
ATOM     30  C   UNL     1       1.897   3.340  21.393  0.00  0.00    +0.000 C 
ATOM     31  N   UNL     1       1.647   2.483  22.138  0.00  0.00    +0.000 NA
ENDBRANCH  29  30
ENDBRANCH  28  29
ENDBRANCH  27  28
ENDBRANCH   9  27
TORSDOF 8
ENDMDL
MODEL 2
REMARK VINA RESULT:      -6.4      4.651      8.058
REMARK  Name = 
REMARK  10 active torsions:
REMARK  status: ('A' for Active; 'I' for Inactive)
REMARK    1  A    between atoms: C_1  and  O_2
REMARK    2  A    between atoms: O_2  and  C_3
REMARK    3  A    between atoms: C_4  and  C_5
REMARK    4  A    between atoms: C_5  and  O_6
REMARK    5  A    between atoms: O_6  and  C_7
REMARK    6  A    between atoms: C_14  and  C_15
REMARK    7  A    between atoms: C_16  and  O_17
REMARK    8  A    between atoms: O_17  and  C_18
REMARK    9  A    between atoms: C_18  and  C_19
REMARK   10  A    between atoms: C_19  and  C_20
REMARK                            x       y       z     vdW  Elec       q    Type
REMARK                         _______ _______ _______ _____ _____    ______ ____
ROOT
ATOM      1  C   UNL     1       6.545   6.451  17.485  0.00  0.00    +0.000 C 
ATOM      2  C   UNL     1       5.232   6.652  16.603  0.00  0.00    +0.000 C 
ATOM      3  C   UNL     1       4.047   6.374  17.491  0.00  0.00    +0.000 C 
ATOM      4  C   UNL     1       4.387   5.355  18.257  0.00  0.00    +0.000 C 
ATOM      5  C   UNL     1       3.474   4.724  19.221  0.00  0.00    +0.000 C 
ATOM      6  O   UNL     1       3.668   3.595  19.654  0.00  0.00    +0.000 OA
ATOM      7  C   UNL     1       2.290   5.547  19.602  0.00  0.00    +0.000 C 
ATOM      8  C   UNL     1       1.288   4.875  20.495  0.00  0.00    +0.000 C 
ATOM      9  C   UNL     1       2.169   6.817  19.160  0.00  0.00    +0.000 C 
ATOM     10  C   UNL     1       3.118   7.337  18.091  0.00  0.00    +0.000 C 
ATOM     11  O   UNL     1       3.173   8.516  17.755  0.00  0.00    +0.000 OA
ATOM     12  N   UNL     1       5.744   5.188  18.118  0.00  0.00    +0.000 N 
ATOM     13  C   UNL     1       6.605   4.233  18.823  0.00  0.00    +0.000 C 
ATOM     14  C   UNL     1       7.893   4.944  18.754  0.00  0.00    +0.000 C 
ATOM     15  N   UNL     1       8.573   6.039  19.375  0.00  0.00    +0.000 NA
ATOM     16  C   UNL     1       7.293   6.367  18.817  0.00  0.00    +0.000 C 
ATOM     17  H   UNL     1       9.329   6.421  18.813  0.00  0.00    +0.000 HD
ENDROOT
BRANCH   1  19
ATOM     18  C   UNL     1       7.651   8.605  17.546  0.00  0.00    +0.000 C 
ATOM     19  O   UNL     1       6.403   7.916  17.785  0.00  0.00    +0.000 OA
ENDBRANCH   1  19
BRANCH   2  20
ATOM     20  C   UNL     1       5.388   5.716  15.376  0.00  0.00    +0.000 C 
BRANCH  20  21
ATOM     21  O   UNL     1       6.789   5.625  15.013  0.00  0.00    +0.000 OA
BRANCH  21  22
ATOM     22  C   UNL     1       7.087   4.943  13.882  0.00  0.00    +0.000 C 
ATOM     23  N   UNL     1       8.132   5.521  13.248  0.00  0.00    +0.000 N 
ATOM     24  O   UNL     1       6.555   3.921  13.487  0.00  0.00    +0.000 OA
ATOM     25  H   UNL     1       8.525   6.386  13.586  0.00  0.00    +0.000 HD
ATOM     26  H   UNL     1       8.423   5.151  12.353  0.00  0.00    +0.000 HD
ENDBRANCH  21  22
ENDBRANCH  20  21
ENDBRANCH   2  20
BRANCH   9  27
ATOM     27  O   UNL     1       1.176   7.616  19.728  0.00  0.00    +0.000 OA
BRANCH  27  28
ATOM     28  C   UNL     1       1.529   8.413  20.862  0.00  0.00    +0.000 C 
BRANCH  28  29
ATOM     29  C   UNL     1       0.396   9.373  21.203  0.00  0.00    +0.000 C 
BRANCH  29  30
ATOM     30  C   UNL     1       0.314   9.566  22.656  0.00  0.00    +0.000 C 
ATOM     31  N   UNL     1       0.218   9.705  23.806  0.00  0.00    +0.000 NA
ENDBRANCH  29  30
ENDBRANCH  28  29
ENDBRANCH  27  28
ENDBRANCH   9  27
TORSDOF 8
ENDMDL
MODEL 3
REMARK VINA RESULT:      -6.1      4.386      8.144
REMARK  Name = 
REMARK  10 active torsions:
REMARK  status: ('A' for Active; 'I' for Inactive)
REMARK    1  A    between atoms: C_1  and  O_2
REMARK    2  A    between atoms: O_2  and  C_3
REMARK    3  A    between atoms: C_4  and  C_5
REMARK    4  A    between atoms: C_5  and  O_6
REMARK    5  A    between atoms: O_6  and  C_7
REMARK    6  A    between atoms: C_14  and  C_15
REMARK    7  A    between atoms: C_16  and  O_17
REMARK    8  A    between atoms: O_17  and  C_18
REMARK    9  A    between atoms: C_18  and  C_19
REMARK   10  A    between atoms: C_19  and  C_20
REMARK                            x       y       z     vdW  Elec       q    Type
REMARK                         _______ _______ _______ _____ _____    ______ ____
ROOT
ATOM      1  C   UNL     1       6.516   6.425  17.492  0.00  0.00    +0.000 C 
ATOM      2  C   UNL     1       5.200   6.653  16.621  0.00  0.00    +0.000 C 
ATOM      3  C   UNL     1       4.018   6.385  17.515  0.00  0.00    +0.000 C 
ATOM      4  C   UNL     1       4.347   5.353  18.269  0.00  0.00    +0.000 C 
ATOM      5  C   UNL     1       3.431   4.727  19.234  0.00  0.00    +0.000 C 
ATOM      6  O   UNL     1       3.612   3.592  19.655  0.00  0.00    +0.000 OA
ATOM      7  C   UNL     1       2.263   5.564  19.630  0.00  0.00    +0.000 C 
ATOM      8  C   UNL     1       1.257   4.899  20.524  0.00  0.00    +0.000 C 
ATOM      9  C   UNL     1       2.158   6.840  19.200  0.00  0.00    +0.000 C 
ATOM     10  C   UNL     1       3.107   7.355  18.130  0.00  0.00    +0.000 C 
ATOM     11  O   UNL     1       3.178   8.537  17.804  0.00  0.00    +0.000 OA
ATOM     12  N   UNL     1       5.701   5.168  18.119  0.00  0.00    +0.000 N 
ATOM     13  C   UNL     1       6.552   4.193  18.809  0.00  0.00    +0.000 C 
ATOM     14  C   UNL     1       7.851   4.886  18.738  0.00  0.00    +0.000 C 
ATOM     15  N   UNL     1       8.550   5.965  19.364  0.00  0.00    +0.000 NA
ATOM     16  C   UNL     1       7.273   6.317  18.819  0.00  0.00    +0.000 C 
ATOM     17  H   UNL     1       9.309   6.341  18.801  0.00  0.00    +0.000 HD
ENDROOT
BRANCH   1  19
ATOM     18  C   UNL     1       7.655   8.561  17.565  0.00  0.00    +0.000 C 
ATOM     19  O   UNL     1       6.399   7.889  17.807  0.00  0.00    +0.000 OA
ENDBRANCH   1  19
BRANCH   2  20
ATOM     20  C   UNL     1       5.335   5.726  15.384  0.00  0.00    +0.000 C 
BRANCH  20  21
ATOM     21  O   UNL     1       6.737   5.568  15.050  0.00  0.00    +0.000 OA
BRANCH  21  22
ATOM     22  C   UNL     1       7.023   4.898  13.908  0.00  0.00    +0.000 C 
ATOM     23  N   UNL     1       6.367   3.717  13.881  0.00  0.00    +0.000 N 
ATOM     24  O   UNL     1       7.718   5.292  12.988  0.00  0.00    +0.000 OA
ATOM     25  H   UNL     1       5.828   3.409  14.675  0.00  0.00    +0.000 HD
ATOM     26  H   UNL     1       6.538   3.083  13.111  0.00  0.00    +0.000 HD
ENDBRANCH  21  22
ENDBRANCH  20  21
ENDBRANCH   2  20
BRANCH   9  27
ATOM     27  O   UNL     1       1.180   7.648  19.783  0.00  0.00    +0.000 OA
BRANCH  27  28
ATOM     28  C   UNL     1       1.537   8.385  20.956  0.00  0.00    +0.000 C 
BRANCH  28  29
ATOM     29  C   UNL     1       0.743   9.683  21.022  0.00  0.00    +0.000 C 
BRANCH  29  30
ATOM     30  C   UNL     1       0.805  10.383  19.733  0.00  0.00    +0.000 C 
ATOM     31  N   UNL     1       0.823  10.949  18.718  0.00  0.00    +0.000 NA
ENDBRANCH  29  30
ENDBRANCH  28  29
ENDBRANCH  27  28
ENDBRANCH   9  27
TORSDOF 8
ENDMDL
MODEL 4
REMARK VINA RESULT:      -6.1      1.175      1.326
REMARK  Name = 
REMARK  10 active torsions:
REMARK  status: ('A' for Active; 'I' for Inactive)
REMARK    1  A    between atoms: C_1  and  O_2
REMARK    2  A    between atoms: O_2  and  C_3
REMARK    3  A    between atoms: C_4  and  C_5
REMARK    4  A    between atoms: C_5  and  O_6
REMARK    5  A    between atoms: O_6  and  C_7
REMARK    6  A    between atoms: C_14  and  C_15
REMARK    7  A    between atoms: C_16  and  O_17
REMARK    8  A    between atoms: O_17  and  C_18
REMARK    9  A    between atoms: C_18  and  C_19
REMARK   10  A    between atoms: C_19  and  C_20
REMARK                            x       y       z     vdW  Elec       q    Type
REMARK                         _______ _______ _______ _____ _____    ______ ____
ROOT
ATOM      1  C   UNL     1       0.057  12.461  20.461  0.00  0.00    +0.000 C 
ATOM      2  C   UNL     1      -0.895  11.187  20.345  0.00  0.00    +0.000 C 
ATOM      3  C   UNL     1      -0.039  10.024  19.917  0.00  0.00    +0.000 C 
ATOM      4  C   UNL     1       0.824  10.500  19.040  0.00  0.00    +0.000 C 
ATOM      5  C   UNL     1       1.798   9.664  18.323  0.00  0.00    +0.000 C 
ATOM      6  O   UNL     1       2.333  10.037  17.286  0.00  0.00    +0.000 OA
ATOM      7  C   UNL     1       2.056   8.329  18.934  0.00  0.00    +0.000 C 
ATOM      8  C   UNL     1       2.958   7.417  18.155  0.00  0.00    +0.000 C 
ATOM      9  C   UNL     1       1.503   8.003  20.122  0.00  0.00    +0.000 C 
ATOM     10  C   UNL     1       0.437   8.900  20.730  0.00  0.00    +0.000 C 
ATOM     11  O   UNL     1       0.005   8.757  21.870  0.00  0.00    +0.000 OA
ATOM     12  N   UNL     1       0.758  11.871  19.121  0.00  0.00    +0.000 N 
ATOM     13  C   UNL     1       1.579  12.850  18.400  0.00  0.00    +0.000 C 
ATOM     14  C   UNL     1       1.506  13.987  19.334  0.00  0.00    +0.000 C 
ATOM     15  N   UNL     1       2.061  14.416  20.581  0.00  0.00    +0.000 NA
ATOM     16  C   UNL     1       1.423  13.133  20.619  0.00  0.00    +0.000 C 
ATOM     17  H   UNL     1       1.503  15.121  21.055  0.00  0.00    +0.000 HD
ENDROOT
BRANCH   1  19
ATOM     18  C   UNL     1      -0.850  12.555  22.706  0.00  0.00    +0.000 C 
ATOM     19  O   UNL     1       0.226  12.035  21.892  0.00  0.00    +0.000 OA
ENDBRANCH   1  19
BRANCH   2  20
ATOM     20  C   UNL     1      -2.031  11.585  19.366  0.00  0.00    +0.000 C 
BRANCH  20  21
ATOM     21  O   UNL     1      -3.064  12.301  20.090  0.00  0.00    +0.000 OA
BRANCH  21  22
ATOM     22  C   UNL     1      -4.295  12.336  19.527  0.00  0.00    +0.000 C 
ATOM     23  N   UNL     1      -4.208  12.129  18.195  0.00  0.00    +0.000 N 
ATOM     24  O   UNL     1      -5.357  12.473  20.109  0.00  0.00    +0.000 OA
ATOM     25  H   UNL     1      -3.310  12.054  17.743  0.00  0.00    +0.000 HD
ATOM     26  H   UNL     1      -5.049  12.191  17.637  0.00  0.00    +0.000 HD
ENDBRANCH  21  22
ENDBRANCH  20  21
ENDBRANCH   2  20
BRANCH   9  27
ATOM     27  O   UNL     1       1.958   6.848  20.760  0.00  0.00    +0.000 OA
BRANCH  27  28
ATOM     28  C   UNL     1       1.197   5.648  20.589  0.00  0.00    +0.000 C 
BRANCH  28  29
ATOM     29  C   UNL     1       2.126   4.469  20.332  0.00  0.00    +0.000 C 
BRANCH  29  30
ATOM     30  C   UNL     1       1.873   3.401  21.308  0.00  0.00    +0.000 C 
ATOM     31  N   UNL     1       1.671   2.579  22.105  0.00  0.00    +0.000 NA
ENDBRANCH  29  30
ENDBRANCH  28  29
ENDBRANCH  27  28
ENDBRANCH   9  27
TORSDOF 8
ENDMDL
MODEL 5
REMARK VINA RESULT:      -6.1      3.295      6.396
REMARK  Name = 
REMARK  10 active torsions:
REMARK  status: ('A' for Active; 'I' for Inactive)
REMARK    1  A    between atoms: C_1  and  O_2
REMARK    2  A    between atoms: O_2  and  C_3
REMARK    3  A    between atoms: C_4  and  C_5
REMARK    4  A    between atoms: C_5  and  O_6
REMARK    5  A    between atoms: O_6  and  C_7
REMARK    6  A    between atoms: C_14  and  C_15
REMARK    7  A    between atoms: C_16  and  O_17
REMARK    8  A    between atoms: O_17  and  C_18
REMARK    9  A    between atoms: C_18  and  C_19
REMARK   10  A    between atoms: C_19  and  C_20
REMARK                            x       y       z     vdW  Elec       q    Type
REMARK                         _______ _______ _______ _____ _____    ______ ____
ROOT
ATOM      1  C   UNL     1      -0.684  11.667  22.092  0.00  0.00    +0.000 C 
ATOM      2  C   UNL     1      -1.044  12.894  21.141  0.00  0.00    +0.000 C 
ATOM      3  C   UNL     1      -1.607  12.324  19.865  0.00  0.00    +0.000 C 
ATOM      4  C   UNL     1      -0.899  11.244  19.596  0.00  0.00    +0.000 C 
ATOM      5  C   UNL     1      -1.086  10.431  18.385  0.00  0.00    +0.000 C 
ATOM      6  O   UNL     1      -0.220   9.667  17.978  0.00  0.00    +0.000 OA
ATOM      7  C   UNL     1      -2.386  10.632  17.684  0.00  0.00    +0.000 C 
ATOM      8  C   UNL     1      -2.547   9.898  16.384  0.00  0.00    +0.000 C 
ATOM      9  C   UNL     1      -3.338  11.424  18.222  0.00  0.00    +0.000 C 
ATOM     10  C   UNL     1      -3.006  12.292  19.425  0.00  0.00    +0.000 C 
ATOM     11  O   UNL     1      -3.851  12.913  20.062  0.00  0.00    +0.000 OA
ATOM     12  N   UNL     1      -0.172  10.954  20.726  0.00  0.00    +0.000 N 
ATOM     13  C   UNL     1       0.710   9.804  20.951  0.00  0.00    +0.000 C 
ATOM     14  C   UNL     1       0.646   9.711  22.420  0.00  0.00    +0.000 C 
ATOM     15  N   UNL     1      -0.237   9.256  23.450  0.00  0.00    +0.000 NA
ATOM     16  C   UNL     1      -0.810  10.211  22.548  0.00  0.00    +0.000 C 
ATOM     17  H   UNL     1      -0.051   9.672  24.359  0.00  0.00    +0.000 HD
ENDROOT
BRANCH   1  19
ATOM     18  C   UNL     1      -2.134  12.893  23.596  0.00  0.00    +0.000 C 
ATOM     19  O   UNL     1      -2.083  11.834  22.613  0.00  0.00    +0.000 OA
ENDBRANCH   1  19
BRANCH   2  20
ATOM     20  C   UNL     1       0.259  13.723  20.992  0.00  0.00    +0.000 C 
BRANCH  20  21
ATOM     21  O   UNL     1       0.725  14.129  22.303  0.00  0.00    +0.000 OA
BRANCH  21  22
ATOM     22  C   UNL     1       0.420  15.388  22.700  0.00  0.00    +0.000 C 
ATOM     23  N   UNL     1       0.637  16.263  21.693  0.00  0.00    +0.000 N 
ATOM     24  O   UNL     1      -0.042  15.718  23.778  0.00  0.00    +0.000 OA
ATOM     25  H   UNL     1       1.052  15.958  20.827  0.00  0.00    +0.000 HD
ATOM     26  H   UNL     1       0.509  17.250  21.871  0.00  0.00    +0.000 HD
ENDBRANCH  21  22
ENDBRANCH  20  21
ENDBRANCH   2  20
BRANCH   9  27
ATOM     27  O   UNL     1      -4.612  11.394  17.653  0.00  0.00    +0.000 OA
BRANCH  27  28
ATOM     28  C   UNL     1      -5.574  10.499  18.219  0.00  0.00    +0.000 C 
BRANCH  28  29
ATOM     29  C   UNL     1      -6.732  11.285  18.821  0.00  0.00    +0.000 C 
BRANCH  29  30
ATOM     30  C   UNL     1      -7.174  10.659  20.074  0.00  0.00    +0.000 C 
ATOM     31  N   UNL     1      -7.540  10.140  21.047  0.00  0.00    +0.000 NA
ENDBRANCH  29  30
ENDBRANCH  28  29
ENDBRANCH  27  28
ENDBRANCH   9  27
TORSDOF 8
ENDMDL
MODEL 6
REMARK VINA RESULT:      -6.0      3.149      6.566
REMARK  Name = 
REMARK  10 active torsions:
REMARK  status: ('A' for Active; 'I' for Inactive)
REMARK    1  A    between atoms: C_1  and  O_2
REMARK    2  A    between atoms: O_2  and  C_3
REMARK    3  A    between atoms: C_4  and  C_5
REMARK    4  A    between atoms: C_5  and  O_6
REMARK    5  A    between atoms: O_6  and  C_7
REMARK    6  A    between atoms: C_14  and  C_15
REMARK    7  A    between atoms: C_16  and  O_17
REMARK    8  A    between atoms: O_17  and  C_18
REMARK    9  A    between atoms: C_18  and  C_19
REMARK   10  A    between atoms: C_19  and  C_20
REMARK                            x       y       z     vdW  Elec       q    Type
REMARK                         _______ _______ _______ _____ _____    ______ ____
ROOT
ATOM      1  C   UNL     1      -0.007  13.162  19.841  0.00  0.00    +0.000 C 
ATOM      2  C   UNL     1      -0.239  11.593  20.003  0.00  0.00    +0.000 C 
ATOM      3  C   UNL     1      -1.583  11.273  19.401  0.00  0.00    +0.000 C 
ATOM      4  C   UNL     1      -2.383  12.270  19.727  0.00  0.00    +0.000 C 
ATOM      5  C   UNL     1      -3.814  12.305  19.391  0.00  0.00    +0.000 C 
ATOM      6  O   UNL     1      -4.601  13.033  19.984  0.00  0.00    +0.000 OA
ATOM      7  C   UNL     1      -4.231  11.374  18.305  0.00  0.00    +0.000 C 
ATOM      8  C   UNL     1      -5.705  11.313  18.027  0.00  0.00    +0.000 C 
ATOM      9  C   UNL     1      -3.309  10.656  17.628  0.00  0.00    +0.000 C 
ATOM     10  C   UNL     1      -1.871  10.621  18.120  0.00  0.00    +0.000 C 
ATOM     11  O   UNL     1      -0.951  10.125  17.477  0.00  0.00    +0.000 OA
ATOM     12  N   UNL     1      -1.585  13.280  20.208  0.00  0.00    +0.000 N 
ATOM     13  C   UNL     1      -1.997  14.623  20.629  0.00  0.00    +0.000 C 
ATOM     14  C   UNL     1      -0.743  15.363  20.403  0.00  0.00    +0.000 C 
ATOM     15  N   UNL     1       0.021  15.917  19.328  0.00  0.00    +0.000 NA
ATOM     16  C   UNL     1      -0.278  14.522  19.193  0.00  0.00    +0.000 C 
ATOM     17  H   UNL     1       1.000  16.064  19.558  0.00  0.00    +0.000 HD
ENDROOT
BRANCH   1  19
ATOM     18  C   UNL     1       2.081  12.750  18.684  0.00  0.00    +0.000 C 
ATOM     19  O   UNL     1       0.643  12.795  18.538  0.00  0.00    +0.000 OA
ENDBRANCH   1  19
BRANCH   2  20
ATOM     20  C   UNL     1      -0.088  11.286  21.516  0.00  0.00    +0.000 C 
BRANCH  20  21
ATOM     21  O   UNL     1       1.168  10.599  21.746  0.00  0.00    +0.000 OA
BRANCH  21  22
ATOM     22  C   UNL     1       1.127   9.490  22.522  0.00  0.00    +0.000 C 
ATOM     23  N   UNL     1       1.456   8.398  21.796  0.00  0.00    +0.000 N 
ATOM     24  O   UNL     1       0.890   9.446  23.716  0.00  0.00    +0.000 OA
ATOM     25  H   UNL     1       1.613   8.467  20.803  0.00  0.00    +0.000 HD
ATOM     26  H   UNL     1       1.406   7.488  22.236  0.00  0.00    +0.000 HD
ENDBRANCH  21  22
ENDBRANCH  20  21
ENDBRANCH   2  20
BRANCH   9  27
ATOM     27  O   UNL     1      -3.720   9.984  16.475  0.00  0.00    +0.000 OA
BRANCH  27  28
ATOM     28  C   UNL     1      -3.695  10.705  15.239  0.00  0.00    +0.000 C 
BRANCH  28  29
ATOM     29  C   UNL     1      -2.953   9.902  14.179  0.00  0.00    +0.000 C 
BRANCH  29  30
ATOM     30  C   UNL     1      -3.743   9.841  12.942  0.00  0.00    +0.000 C 
ATOM     31  N   UNL     1      -4.397   9.799  11.982  0.00  0.00    +0.000 NA
ENDBRANCH  29  30
ENDBRANCH  28  29
ENDBRANCH  27  28
ENDBRANCH   9  27
TORSDOF 8
ENDMDL
MODEL 7
REMARK VINA RESULT:      -6.0      1.511      1.692
REMARK  Name = 
REMARK  10 active torsions:
REMARK  status: ('A' for Active; 'I' for Inactive)
REMARK    1  A    between atoms: C_1  and  O_2
REMARK    2  A    between atoms: O_2  and  C_3
REMARK    3  A    between atoms: C_4  and  C_5
REMARK    4  A    between atoms: C_5  and  O_6
REMARK    5  A    between atoms: O_6  and  C_7
REMARK    6  A    between atoms: C_14  and  C_15
REMARK    7  A    between atoms: C_16  and  O_17
REMARK    8  A    between atoms: O_17  and  C_18
REMARK    9  A    between atoms: C_18  and  C_19
REMARK   10  A    between atoms: C_19  and  C_20
REMARK                            x       y       z     vdW  Elec       q    Type
REMARK                         _______ _______ _______ _____ _____    ______ ____
ROOT
ATOM      1  C   UNL     1       0.209  12.230  20.426  0.00  0.00    +0.000 C 
ATOM      2  C   UNL     1      -0.737  10.957  20.263  0.00  0.00    +0.000 C 
ATOM      3  C   UNL     1       0.127   9.812  19.803  0.00  0.00    +0.000 C 
ATOM      4  C   UNL     1       0.992  10.319  18.946  0.00  0.00    +0.000 C 
ATOM      5  C   UNL     1       1.973   9.509  18.209  0.00  0.00    +0.000 C 
ATOM      6  O   UNL     1       2.512   9.917  17.187  0.00  0.00    +0.000 OA
ATOM      7  C   UNL     1       2.233   8.157  18.779  0.00  0.00    +0.000 C 
ATOM      8  C   UNL     1       3.144   7.274  17.976  0.00  0.00    +0.000 C 
ATOM      9  C   UNL     1       1.675   7.791  19.953  0.00  0.00    +0.000 C 
ATOM     10  C   UNL     1       0.602   8.664  20.582  0.00  0.00    +0.000 C 
ATOM     11  O   UNL     1       0.164   8.483  21.714  0.00  0.00    +0.000 OA
ATOM     12  N   UNL     1       0.921  11.686  19.071  0.00  0.00    +0.000 N 
ATOM     13  C   UNL     1       1.741  12.690  18.387  0.00  0.00    +0.000 C 
ATOM     14  C   UNL     1       1.659  13.797  19.356  0.00  0.00    +0.000 C 
ATOM     15  N   UNL     1       2.205  14.188  20.619  0.00  0.00    +0.000 NA
ATOM     16  C   UNL     1       1.572  12.902  20.613  0.00  0.00    +0.000 C 
ATOM     17  H   UNL     1       1.641  14.876  21.112  0.00  0.00    +0.000 HD
ENDROOT
BRANCH   1  19
ATOM     18  C   UNL     1      -0.747  12.189  22.651  0.00  0.00    +0.000 C 
ATOM     19  O   UNL     1       0.372  11.760  21.843  0.00  0.00    +0.000 OA
ENDBRANCH   1  19
BRANCH   2  20
ATOM     20  C   UNL     1      -1.869  11.381  19.291  0.00  0.00    +0.000 C 
BRANCH  20  21
ATOM     21  O   UNL     1      -2.765  12.301  19.965  0.00  0.00    +0.000 OA
BRANCH  21  22
ATOM     22  C   UNL     1      -4.050  12.328  19.539  0.00  0.00    +0.000 C 
ATOM     23  N   UNL     1      -4.104  12.151  18.200  0.00  0.00    +0.000 N 
ATOM     24  O   UNL     1      -5.045  12.436  20.234  0.00  0.00    +0.000 OA
ATOM     25  H   UNL     1      -3.259  12.100  17.653  0.00  0.00    +0.000 HD
ATOM     26  H   UNL     1      -5.001  12.211  17.737  0.00  0.00    +0.000 HD
ENDBRANCH  21  22
ENDBRANCH  20  21
ENDBRANCH   2  20
BRANCH   9  27
ATOM     27  O   UNL     1       2.131   6.617  20.556  0.00  0.00    +0.000 OA
BRANCH  27  28
ATOM     28  C   UNL     1       1.249   5.491  20.574  0.00  0.00    +0.000 C 
BRANCH  28  29
ATOM     29  C   UNL     1       1.948   4.268  19.995  0.00  0.00    +0.000 C 
BRANCH  29  30
ATOM     30  C   UNL     1       1.598   4.107  18.578  0.00  0.00    +0.000 C 
ATOM     31  N   UNL     1       1.310   3.948  17.463  0.00  0.00    +0.000 NA
ENDBRANCH  29  30
ENDBRANCH  28  29
ENDBRANCH  27  28
ENDBRANCH   9  27
TORSDOF 8
ENDMDL
MODEL 8
REMARK VINA RESULT:      -5.9      4.019      7.812
REMARK  Name = 
REMARK  10 active torsions:
REMARK  status: ('A' for Active; 'I' for Inactive)
REMARK    1  A    between atoms: C_1  and  O_2
REMARK    2  A    between atoms: O_2  and  C_3
REMARK    3  A    between atoms: C_4  and  C_5
REMARK    4  A    between atoms: C_5  and  O_6
REMARK    5  A    between atoms: O_6  and  C_7
REMARK    6  A    between atoms: C_14  and  C_15
REMARK    7  A    between atoms: C_16  and  O_17
REMARK    8  A    between atoms: O_17  and  C_18
REMARK    9  A    between atoms: C_18  and  C_19
REMARK   10  A    between atoms: C_19  and  C_20
REMARK                            x       y       z     vdW  Elec       q    Type
REMARK                         _______ _______ _______ _____ _____    ______ ____
ROOT
ATOM      1  C   UNL     1       1.830   4.522  19.086  0.00  0.00    +0.000 C 
ATOM      2  C   UNL     1       2.279   6.048  18.979  0.00  0.00    +0.000 C 
ATOM      3  C   UNL     1       3.754   6.061  18.674  0.00  0.00    +0.000 C 
ATOM      4  C   UNL     1       4.290   5.085  19.382  0.00  0.00    +0.000 C 
ATOM      5  C   UNL     1       5.733   4.809  19.423  0.00  0.00    +0.000 C 
ATOM      6  O   UNL     1       6.243   4.157  20.326  0.00  0.00    +0.000 OA
ATOM      7  C   UNL     1       6.522   5.404  18.307  0.00  0.00    +0.000 C 
ATOM      8  C   UNL     1       8.011   5.230  18.394  0.00  0.00    +0.000 C 
ATOM      9  C   UNL     1       5.899   6.043  17.293  0.00  0.00    +0.000 C 
ATOM     10  C   UNL     1       4.415   6.356  17.399  0.00  0.00    +0.000 C 
ATOM     11  O   UNL     1       3.749   6.788  16.462  0.00  0.00    +0.000 OA
ATOM     12  N   UNL     1       3.250   4.314  19.846  0.00  0.00    +0.000 N 
ATOM     13  C   UNL     1       3.334   3.071  20.618  0.00  0.00    +0.000 C 
ATOM     14  C   UNL     1       2.053   2.446  20.244  0.00  0.00    +0.000 C 
ATOM     15  N   UNL     1       1.456   1.745  19.149  0.00  0.00    +0.000 NA
ATOM     16  C   UNL     1       2.005   3.026  18.813  0.00  0.00    +0.000 C 
ATOM     17  H   UNL     1       0.440   1.768  19.156  0.00  0.00    +0.000 HD
ENDROOT
BRANCH   1  19
ATOM     18  C   UNL     1       2.219   3.596  16.881  0.00  0.00    +0.000 C 
ATOM     19  O   UNL     1       1.544   4.643  17.616  0.00  0.00    +0.000 OA
ENDBRANCH   1  19
BRANCH   2  20
ATOM     20  C   UNL     1       1.860   6.717  20.314  0.00  0.00    +0.000 C 
BRANCH  20  21
ATOM     21  O   UNL     1       1.735   8.149  20.118  0.00  0.00    +0.000 OA
BRANCH  21  22
ATOM     22  C   UNL     1       0.974   8.826  21.010  0.00  0.00    +0.000 C 
ATOM     23  N   UNL     1       1.585   8.861  22.215  0.00  0.00    +0.000 N 
ATOM     24  O   UNL     1      -0.084   9.387  20.786  0.00  0.00    +0.000 OA
ATOM     25  H   UNL     1       2.443   8.357  22.373  0.00  0.00    +0.000 HD
ATOM     26  H   UNL     1       1.098   9.284  22.995  0.00  0.00    +0.000 HD
ENDBRANCH  21  22
ENDBRANCH  20  21
ENDBRANCH   2  20
BRANCH   9  27
ATOM     27  O   UNL     1       6.653   6.373  16.166  0.00  0.00    +0.000 OA
BRANCH  27  28
ATOM     28  C   UNL     1       7.066   5.307  15.305  0.00  0.00    +0.000 C 
BRANCH  28  29
ATOM     29  C   UNL     1       5.857   4.499  14.852  0.00  0.00    +0.000 C 
BRANCH  29  30
ATOM     30  C   UNL     1       6.109   3.905  13.533  0.00  0.00    +0.000 C 
ATOM     31  N   UNL     1       6.332   3.458  12.484  0.00  0.00    +0.000 NA
ENDBRANCH  29  30
ENDBRANCH  28  29
ENDBRANCH  27  28
ENDBRANCH   9  27
TORSDOF 8
ENDMDL
MODEL 9
REMARK VINA RESULT:      -5.8      2.694      6.253
REMARK  Name = 
REMARK  10 active torsions:
REMARK  status: ('A' for Active; 'I' for Inactive)
REMARK    1  A    between atoms: C_1  and  O_2
REMARK    2  A    between atoms: O_2  and  C_3
REMARK    3  A    between atoms: C_4  and  C_5
REMARK    4  A    between atoms: C_5  and  O_6
REMARK    5  A    between atoms: O_6  and  C_7
REMARK    6  A    between atoms: C_14  and  C_15
REMARK    7  A    between atoms: C_16  and  O_17
REMARK    8  A    between atoms: O_17  and  C_18
REMARK    9  A    between atoms: C_18  and  C_19
REMARK   10  A    between atoms: C_19  and  C_20
REMARK                            x       y       z     vdW  Elec       q    Type
REMARK                         _______ _______ _______ _____ _____    ______ ____
ROOT
ATOM      1  C   UNL     1      -0.231  10.276  20.617  0.00  0.00    +0.000 C 
ATOM      2  C   UNL     1      -0.191  10.532  19.044  0.00  0.00    +0.000 C 
ATOM      3  C   UNL     1       0.252  11.956  18.831  0.00  0.00    +0.000 C 
ATOM      4  C   UNL     1      -0.329  12.671  19.775  0.00  0.00    +0.000 C 
ATOM      5  C   UNL     1      -0.211  14.134  19.874  0.00  0.00    +0.000 C 
ATOM      6  O   UNL     1      -1.012  14.806  20.511  0.00  0.00    +0.000 OA
ATOM      7  C   UNL     1       0.930  14.727  19.121  0.00  0.00    +0.000 C 
ATOM      8  C   UNL     1       0.999  16.227  19.116  0.00  0.00    +0.000 C 
ATOM      9  C   UNL     1       1.831  13.932  18.504  0.00  0.00    +0.000 C 
ATOM     10  C   UNL     1       1.561  12.441  18.382  0.00  0.00    +0.000 C 
ATOM     11  O   UNL     1       2.395  11.636  17.980  0.00  0.00    +0.000 OA
ATOM     12  N   UNL     1      -0.835  11.782  20.694  0.00  0.00    +0.000 N 
ATOM     13  C   UNL     1      -1.504  12.090  21.962  0.00  0.00    +0.000 C 
ATOM     14  C   UNL     1      -1.211  10.858  22.715  0.00  0.00    +0.000 C 
ATOM     15  N   UNL     1      -0.131  10.236  23.418  0.00  0.00    +0.000 NA
ATOM     16  C   UNL     1       0.164  10.594  22.061  0.00  0.00    +0.000 C 
ATOM     17  H   UNL     1      -0.237   9.230  23.520  0.00  0.00    +0.000 HD
ENDROOT
BRANCH   1  19
ATOM     18  C   UNL     1       1.307   8.406  20.682  0.00  0.00    +0.000 C 
ATOM     19  O   UNL     1       1.191   9.827  20.445  0.00  0.00    +0.000 OA
ENDBRANCH   1  19
BRANCH   2  20
ATOM     20  C   UNL     1      -1.605  10.179  18.512  0.00  0.00    +0.000 C 
BRANCH  20  21
ATOM     21  O   UNL     1      -1.548   9.993  17.075  0.00  0.00    +0.000 OA
BRANCH  21  22
ATOM     22  C   UNL     1      -2.491  10.624  16.337  0.00  0.00    +0.000 C 
ATOM     23  N   UNL     1      -2.868  11.772  16.941  0.00  0.00    +0.000 N 
ATOM     24  O   UNL     1      -2.922  10.272  15.253  0.00  0.00    +0.000 OA
ATOM     25  H   UNL     1      -2.515  12.014  17.853  0.00  0.00    +0.000 HD
ATOM     26  H   UNL     1      -3.614  12.317  16.528  0.00  0.00    +0.000 HD
ENDBRANCH  21  22
ENDBRANCH  20  21
ENDBRANCH   2  20
BRANCH   9  27
ATOM     27  O   UNL     1       2.998  14.522  18.018  0.00  0.00    +0.000 OA
BRANCH  27  28
ATOM     28  C   UNL     1       4.141  14.546  18.878  0.00  0.00    +0.000 C 
BRANCH  28  29
ATOM     29  C   UNL     1       5.372  14.999  18.104  0.00  0.00    +0.000 C 
BRANCH  29  30
ATOM     30  C   UNL     1       6.562  14.940  18.962  0.00  0.00    +0.000 C 
ATOM     31  N   UNL     1       7.515  14.922  19.628  0.00  0.00    +0.000 NA
ENDBRANCH  29  30
ENDBRANCH  28  29
ENDBRANCH  27  28
ENDBRANCH   9  27
TORSDOF 8
ENDMDL
