MODEL 1
REMARK VINA RESULT:      -6.9      0.000      0.000
REMARK  Name = 
REMARK  4 active torsions:
REMARK  status: ('A' for Active; 'I' for Inactive)
REMARK    1  A    between atoms: C_1  and  C_2
REMARK    2  A    between atoms: C_2  and  C_3
REMARK    3  A    between atoms: C_3  and  C_4
REMARK    4  A    between atoms: C_10  and  C_11
REMARK                            x       y       z     vdW  Elec       q    Type
REMARK                         _______ _______ _______ _____ _____    ______ ____
ROOT
ATOM      1  C   UNL     1       3.339   4.427  19.160  0.00  0.00    +0.000 C 
ATOM      2  O   UNL     1       2.654   4.150  18.182  0.00  0.00    +0.000 OA
ATOM      3  N   UNL     1       4.707   4.577  19.193  0.00  0.00    +0.000 N 
ATOM      4  C   UNL     1       5.539   4.572  18.098  0.00  0.00    +0.000 A 
ATOM      5  N   UNL     1       6.849   4.509  18.198  0.00  0.00    +0.000 NA
ATOM      6  N   UNL     1       7.461   4.520  16.955  0.00  0.00    +0.000 NA
ATOM      7  C   UNL     1       6.584   4.643  15.976  0.00  0.00    +0.000 A 
ATOM      8  S   UNL     1       4.960   4.746  16.507  0.00  0.00    +0.000 S 
ATOM      9  H   UNL     1       5.192   4.587  20.079  0.00  0.00    +0.000 HD
ENDROOT
BRANCH   7  10
ATOM     10  C   UNL     1       6.938   4.687  14.589  0.00  0.00    +0.000 A 
ATOM     11  C   UNL     1       6.404   3.959  13.535  0.00  0.00    +0.000 A 
ATOM     12  C   UNL     1       7.083   4.360  12.358  0.00  0.00    +0.000 A 
ATOM     13  C   UNL     1       7.993   5.308  12.749  0.00  0.00    +0.000 A 
ATOM     14  O   UNL     1       7.916   5.516  14.086  0.00  0.00    +0.000 OA
ENDBRANCH   7  10
BRANCH   1  15
ATOM     15  C   UNL     1       2.683   4.624  20.513  0.00  0.00    +0.000 C 
BRANCH  15  17
ATOM     16  C   UNL     1       1.292   2.721  21.459  0.00  0.00    +0.000 C 
ATOM     17  C   UNL     1       2.673   3.354  21.360  0.00  0.00    +0.000 C 
ENDBRANCH  15  17
ENDBRANCH   1  15
TORSDOF 3
ENDMDL
MODEL 2
REMARK VINA RESULT:      -6.8      0.896      1.134
REMARK  Name = 
REMARK  4 active torsions:
REMARK  status: ('A' for Active; 'I' for Inactive)
REMARK    1  A    between atoms: C_1  and  C_2
REMARK    2  A    between atoms: C_2  and  C_3
REMARK    3  A    between atoms: C_3  and  C_4
REMARK    4  A    between atoms: C_10  and  C_11
REMARK                            x       y       z     vdW  Elec       q    Type
REMARK                         _______ _______ _______ _____ _____    ______ ____
ROOT
ATOM      1  C   UNL     1       3.470   2.937  19.374  0.00  0.00    +0.000 C 
ATOM      2  O   UNL     1       2.994   2.342  18.414  0.00  0.00    +0.000 OA
ATOM      3  N   UNL     1       4.642   3.658  19.400  0.00  0.00    +0.000 N 
ATOM      4  C   UNL     1       5.427   3.948  18.310  0.00  0.00    +0.000 A 
ATOM      5  N   UNL     1       6.636   4.455  18.415  0.00  0.00    +0.000 NA
ATOM      6  N   UNL     1       7.219   4.659  17.175  0.00  0.00    +0.000 NA
ATOM      7  C   UNL     1       6.400   4.344  16.189  0.00  0.00    +0.000 A 
ATOM      8  S   UNL     1       4.872   3.774  16.709  0.00  0.00    +0.000 S 
ATOM      9  H   UNL     1       5.052   3.920  20.285  0.00  0.00    +0.000 HD
ENDROOT
BRANCH   7  10
ATOM     10  C   UNL     1       6.739   4.460  14.802  0.00  0.00    +0.000 A 
ATOM     11  C   UNL     1       6.167   3.818  13.714  0.00  0.00    +0.000 A 
ATOM     12  C   UNL     1       6.845   4.265  12.554  0.00  0.00    +0.000 A 
ATOM     13  C   UNL     1       7.793   5.156  12.989  0.00  0.00    +0.000 A 
ATOM     14  O   UNL     1       7.740   5.283  14.336  0.00  0.00    +0.000 OA
ENDBRANCH   7  10
BRANCH   1  15
ATOM     15  C   UNL     1       2.755   2.908  20.712  0.00  0.00    +0.000 C 
BRANCH  15  17
ATOM     16  C   UNL     1       1.380   5.031  20.492  0.00  0.00    +0.000 C 
ATOM     17  C   UNL     1       1.357   3.518  20.653  0.00  0.00    +0.000 C 
ENDBRANCH  15  17
ENDBRANCH   1  15
TORSDOF 3
ENDMDL
MODEL 3
REMARK VINA RESULT:      -6.4      1.556      1.618
REMARK  Name = 
REMARK  4 active torsions:
REMARK  status: ('A' for Active; 'I' for Inactive)
REMARK    1  A    between atoms: C_1  and  C_2
REMARK    2  A    between atoms: C_2  and  C_3
REMARK    3  A    between atoms: C_3  and  C_4
REMARK    4  A    between atoms: C_10  and  C_11
REMARK                            x       y       z     vdW  Elec       q    Type
REMARK                         _______ _______ _______ _____ _____    ______ ____
ROOT
ATOM      1  C   UNL     1       3.494   4.261  19.626  0.00  0.00    +0.000 C 
ATOM      2  O   UNL     1       4.107   3.217  19.432  0.00  0.00    +0.000 OA
ATOM      3  N   UNL     1       3.568   5.413  18.876  0.00  0.00    +0.000 N 
ATOM      4  C   UNL     1       4.250   5.554  17.691  0.00  0.00    +0.000 A 
ATOM      5  N   UNL     1       4.464   6.721  17.124  0.00  0.00    +0.000 NA
ATOM      6  N   UNL     1       5.170   6.597  15.939  0.00  0.00    +0.000 NA
ATOM      7  C   UNL     1       5.411   5.334  15.640  0.00  0.00    +0.000 A 
ATOM      8  S   UNL     1       4.800   4.220  16.787  0.00  0.00    +0.000 S 
ATOM      9  H   UNL     1       3.196   6.278  19.243  0.00  0.00    +0.000 HD
ENDROOT
BRANCH   7  10
ATOM     10  C   UNL     1       6.120   4.912  14.469  0.00  0.00    +0.000 A 
ATOM     11  C   UNL     1       5.815   3.877  13.598  0.00  0.00    +0.000 A 
ATOM     12  C   UNL     1       6.813   3.860  12.594  0.00  0.00    +0.000 A 
ATOM     13  C   UNL     1       7.675   4.883  12.900  0.00  0.00    +0.000 A 
ATOM     14  O   UNL     1       7.270   5.524  14.022  0.00  0.00    +0.000 OA
ENDBRANCH   7  10
BRANCH   1  15
ATOM     15  C   UNL     1       2.548   4.375  20.807  0.00  0.00    +0.000 C 
BRANCH  15  17
ATOM     16  C   UNL     1       0.754   3.010  19.637  0.00  0.00    +0.000 C 
ATOM     17  C   UNL     1       1.575   3.203  20.904  0.00  0.00    +0.000 C 
ENDBRANCH  15  17
ENDBRANCH   1  15
TORSDOF 3
ENDMDL
MODEL 4
REMARK VINA RESULT:      -6.3      4.087      6.548
REMARK  Name = 
REMARK  4 active torsions:
REMARK  status: ('A' for Active; 'I' for Inactive)
REMARK    1  A    between atoms: C_1  and  C_2
REMARK    2  A    between atoms: C_2  and  C_3
REMARK    3  A    between atoms: C_3  and  C_4
REMARK    4  A    between atoms: C_10  and  C_11
REMARK                            x       y       z     vdW  Elec       q    Type
REMARK                         _______ _______ _______ _____ _____    ______ ____
ROOT
ATOM      1  C   UNL     1       8.104   8.271  18.080  0.00  0.00    +0.000 C 
ATOM      2  O   UNL     1       8.559   7.520  18.936  0.00  0.00    +0.000 OA
ATOM      3  N   UNL     1       7.085   7.993  17.196  0.00  0.00    +0.000 N 
ATOM      4  C   UNL     1       6.305   6.861  17.205  0.00  0.00    +0.000 A 
ATOM      5  N   UNL     1       5.492   6.547  16.221  0.00  0.00    +0.000 NA
ATOM      6  N   UNL     1       4.816   5.363  16.468  0.00  0.00    +0.000 NA
ATOM      7  C   UNL     1       5.115   4.865  17.653  0.00  0.00    +0.000 A 
ATOM      8  S   UNL     1       6.241   5.803  18.538  0.00  0.00    +0.000 S 
ATOM      9  H   UNL     1       6.936   8.590  16.396  0.00  0.00    +0.000 HD
ENDROOT
BRANCH   7  10
ATOM     10  C   UNL     1       4.560   3.650  18.171  0.00  0.00    +0.000 A 
ATOM     11  C   UNL     1       3.656   2.786  17.571  0.00  0.00    +0.000 A 
ATOM     12  C   UNL     1       3.416   1.727  18.480  0.00  0.00    +0.000 A 
ATOM     13  C   UNL     1       4.183   1.995  19.586  0.00  0.00    +0.000 A 
ATOM     14  O   UNL     1       4.876   3.146  19.413  0.00  0.00    +0.000 OA
ENDBRANCH   7  10
BRANCH   1  15
ATOM     15  C   UNL     1       8.683   9.662  17.907  0.00  0.00    +0.000 C 
BRANCH  15  17
ATOM     16  C   UNL     1      10.283  11.331  18.957  0.00  0.00    +0.000 C 
ATOM     17  C   UNL     1       9.259  10.231  19.201  0.00  0.00    +0.000 C 
ENDBRANCH  15  17
ENDBRANCH   1  15
TORSDOF 3
ENDMDL
MODEL 5
REMARK VINA RESULT:      -6.2      0.898      1.109
REMARK  Name = 
REMARK  4 active torsions:
REMARK  status: ('A' for Active; 'I' for Inactive)
REMARK    1  A    between atoms: C_1  and  C_2
REMARK    2  A    between atoms: C_2  and  C_3
REMARK    3  A    between atoms: C_3  and  C_4
REMARK    4  A    between atoms: C_10  and  C_11
REMARK                            x       y       z     vdW  Elec       q    Type
REMARK                         _______ _______ _______ _____ _____    ______ ____
ROOT
ATOM      1  C   UNL     1       3.263   4.691  19.107  0.00  0.00    +0.000 C 
ATOM      2  O   UNL     1       2.553   4.251  18.209  0.00  0.00    +0.000 OA
ATOM      3  N   UNL     1       4.623   4.900  19.056  0.00  0.00    +0.000 N 
ATOM      4  C   UNL     1       5.411   4.774  17.937  0.00  0.00    +0.000 A 
ATOM      5  N   UNL     1       6.725   4.778  17.984  0.00  0.00    +0.000 NA
ATOM      6  N   UNL     1       7.287   4.638  16.726  0.00  0.00    +0.000 NA
ATOM      7  C   UNL     1       6.367   4.586  15.780  0.00  0.00    +0.000 A 
ATOM      8  S   UNL     1       4.762   4.698  16.364  0.00  0.00    +0.000 S 
ATOM      9  H   UNL     1       5.141   5.054  19.910  0.00  0.00    +0.000 HD
ENDROOT
BRANCH   7  10
ATOM     10  C   UNL     1       6.664   4.449  14.385  0.00  0.00    +0.000 A 
ATOM     11  C   UNL     1       7.563   5.172  13.616  0.00  0.00    +0.000 A 
ATOM     12  C   UNL     1       7.498   4.660  12.296  0.00  0.00    +0.000 A 
ATOM     13  C   UNL     1       6.566   3.654  12.326  0.00  0.00    +0.000 A 
ATOM     14  O   UNL     1       6.059   3.515  13.574  0.00  0.00    +0.000 OA
ENDBRANCH   7  10
BRANCH   1  15
ATOM     15  C   UNL     1       2.652   5.051  20.448  0.00  0.00    +0.000 C 
BRANCH  15  17
ATOM     16  C   UNL     1       2.532   2.712  21.430  0.00  0.00    +0.000 C 
ATOM     17  C   UNL     1       1.754   3.950  21.007  0.00  0.00    +0.000 C 
ENDBRANCH  15  17
ENDBRANCH   1  15
TORSDOF 3
ENDMDL
MODEL 6
REMARK VINA RESULT:      -6.2      1.432      6.879
REMARK  Name = 
REMARK  4 active torsions:
REMARK  status: ('A' for Active; 'I' for Inactive)
REMARK    1  A    between atoms: C_1  and  C_2
REMARK    2  A    between atoms: C_2  and  C_3
REMARK    3  A    between atoms: C_3  and  C_4
REMARK    4  A    between atoms: C_10  and  C_11
REMARK                            x       y       z     vdW  Elec       q    Type
REMARK                         _______ _______ _______ _____ _____    ______ ____
ROOT
ATOM      1  C   UNL     1       6.287   4.517  14.658  0.00  0.00    +0.000 C 
ATOM      2  O   UNL     1       5.084   4.586  14.430  0.00  0.00    +0.000 OA
ATOM      3  N   UNL     1       6.891   4.478  15.894  0.00  0.00    +0.000 N 
ATOM      4  C   UNL     1       6.239   4.377  17.101  0.00  0.00    +0.000 A 
ATOM      5  N   UNL     1       6.843   4.555  18.255  0.00  0.00    +0.000 NA
ATOM      6  N   UNL     1       5.973   4.398  19.322  0.00  0.00    +0.000 NA
ATOM      7  C   UNL     1       4.762   4.058  18.921  0.00  0.00    +0.000 A 
ATOM      8  S   UNL     1       4.605   3.915  17.223  0.00  0.00    +0.000 S 
ATOM      9  H   UNL     1       7.884   4.643  15.975  0.00  0.00    +0.000 HD
ENDROOT
BRANCH   7  10
ATOM     10  C   UNL     1       3.663   3.827  19.811  0.00  0.00    +0.000 A 
ATOM     11  C   UNL     1       2.608   4.671  20.123  0.00  0.00    +0.000 A 
ATOM     12  C   UNL     1       1.779   3.990  21.047  0.00  0.00    +0.000 A 
ATOM     13  C   UNL     1       2.366   2.767  21.253  0.00  0.00    +0.000 A 
ATOM     14  O   UNL     1       3.497   2.655  20.515  0.00  0.00    +0.000 OA
ENDBRANCH   7  10
BRANCH   1  15
ATOM     15  C   UNL     1       7.275   4.482  13.507  0.00  0.00    +0.000 C 
BRANCH  15  17
ATOM     16  C   UNL     1       6.477   2.679  11.907  0.00  0.00    +0.000 C 
ATOM     17  C   UNL     1       6.616   4.173  12.166  0.00  0.00    +0.000 C 
ENDBRANCH  15  17
ENDBRANCH   1  15
TORSDOF 3
ENDMDL
MODEL 7
REMARK VINA RESULT:      -6.2      3.863      6.385
REMARK  Name = 
REMARK  4 active torsions:
REMARK  status: ('A' for Active; 'I' for Inactive)
REMARK    1  A    between atoms: C_1  and  C_2
REMARK    2  A    between atoms: C_2  and  C_3
REMARK    3  A    between atoms: C_3  and  C_4
REMARK    4  A    between atoms: C_10  and  C_11
REMARK                            x       y       z     vdW  Elec       q    Type
REMARK                         _______ _______ _______ _____ _____    ______ ____
ROOT
ATOM      1  C   UNL     1       6.106   3.443  12.405  0.00  0.00    +0.000 C 
ATOM      2  O   UNL     1       7.062   4.155  12.121  0.00  0.00    +0.000 OA
ATOM      3  N   UNL     1       5.558   3.256  13.655  0.00  0.00    +0.000 N 
ATOM      4  C   UNL     1       5.909   3.944  14.793  0.00  0.00    +0.000 A 
ATOM      5  N   UNL     1       5.510   3.587  15.993  0.00  0.00    +0.000 NA
ATOM      6  N   UNL     1       5.994   4.439  16.972  0.00  0.00    +0.000 NA
ATOM      7  C   UNL     1       6.696   5.431  16.457  0.00  0.00    +0.000 A 
ATOM      8  S   UNL     1       6.814   5.385  14.750  0.00  0.00    +0.000 S 
ATOM      9  H   UNL     1       4.921   2.489  13.816  0.00  0.00    +0.000 HD
ENDROOT
BRANCH   7  10
ATOM     10  C   UNL     1       7.311   6.463  17.236  0.00  0.00    +0.000 A 
ATOM     11  C   UNL     1       7.897   6.368  18.490  0.00  0.00    +0.000 A 
ATOM     12  C   UNL     1       8.366   7.659  18.837  0.00  0.00    +0.000 A 
ATOM     13  C   UNL     1       8.045   8.475  17.782  0.00  0.00    +0.000 A 
ATOM     14  O   UNL     1       7.413   7.769  16.813  0.00  0.00    +0.000 OA
ENDBRANCH   7  10
BRANCH   1  15
ATOM     15  C   UNL     1       5.411   2.640  11.322  0.00  0.00    +0.000 C 
BRANCH  15  17
ATOM     16  C   UNL     1       3.506   3.805  10.111  0.00  0.00    +0.000 C 
ATOM     17  C   UNL     1       3.907   2.895  11.264  0.00  0.00    +0.000 C 
ENDBRANCH  15  17
ENDBRANCH   1  15
TORSDOF 3
ENDMDL
MODEL 8
REMARK VINA RESULT:      -6.2      1.592      1.714
REMARK  Name = 
REMARK  4 active torsions:
REMARK  status: ('A' for Active; 'I' for Inactive)
REMARK    1  A    between atoms: C_1  and  C_2
REMARK    2  A    between atoms: C_2  and  C_3
REMARK    3  A    between atoms: C_3  and  C_4
REMARK    4  A    between atoms: C_10  and  C_11
REMARK                            x       y       z     vdW  Elec       q    Type
REMARK                         _______ _______ _______ _____ _____    ______ ____
ROOT
ATOM      1  C   UNL     1       3.404   4.390  19.357  0.00  0.00    +0.000 C 
ATOM      2  O   UNL     1       3.605   3.226  19.032  0.00  0.00    +0.000 OA
ATOM      3  N   UNL     1       3.879   5.517  18.725  0.00  0.00    +0.000 N 
ATOM      4  C   UNL     1       4.561   5.538  17.531  0.00  0.00    +0.000 A 
ATOM      5  N   UNL     1       5.173   6.609  17.077  0.00  0.00    +0.000 NA
ATOM      6  N   UNL     1       5.783   6.375  15.855  0.00  0.00    +0.000 NA
ATOM      7  C   UNL     1       5.558   5.149  15.421  0.00  0.00    +0.000 A 
ATOM      8  S   UNL     1       4.596   4.203  16.474  0.00  0.00    +0.000 S 
ATOM      9  H   UNL     1       3.841   6.411  19.194  0.00  0.00    +0.000 HD
ENDROOT
BRANCH   7  10
ATOM     10  C   UNL     1       6.065   4.636  14.183  0.00  0.00    +0.000 A 
ATOM     11  C   UNL     1       7.261   4.934  13.547  0.00  0.00    +0.000 A 
ATOM     12  C   UNL     1       7.308   4.171  12.354  0.00  0.00    +0.000 A 
ATOM     13  C   UNL     1       6.143   3.447  12.322  0.00  0.00    +0.000 A 
ATOM     14  O   UNL     1       5.388   3.716  13.415  0.00  0.00    +0.000 OA
ENDBRANCH   7  10
BRANCH   1  15
ATOM     15  C   UNL     1       2.567   4.700  20.584  0.00  0.00    +0.000 C 
BRANCH  15  17
ATOM     16  C   UNL     1       1.454   2.686  21.659  0.00  0.00    +0.000 C 
ATOM     17  C   UNL     1       1.309   3.840  20.677  0.00  0.00    +0.000 C 
ENDBRANCH  15  17
ENDBRANCH   1  15
TORSDOF 3
ENDMDL
MODEL 9
REMARK VINA RESULT:      -6.2      1.194      6.752
REMARK  Name = 
REMARK  4 active torsions:
REMARK  status: ('A' for Active; 'I' for Inactive)
REMARK    1  A    between atoms: C_1  and  C_2
REMARK    2  A    between atoms: C_2  and  C_3
REMARK    3  A    between atoms: C_3  and  C_4
REMARK    4  A    between atoms: C_10  and  C_11
REMARK                            x       y       z     vdW  Elec       q    Type
REMARK                         _______ _______ _______ _____ _____    ______ ____
ROOT
ATOM      1  C   UNL     1       6.785   5.144  14.646  0.00  0.00    +0.000 C 
ATOM      2  O   UNL     1       5.667   5.595  14.428  0.00  0.00    +0.000 OA
ATOM      3  N   UNL     1       7.284   4.726  15.859  0.00  0.00    +0.000 N 
ATOM      4  C   UNL     1       6.565   4.618  17.026  0.00  0.00    +0.000 A 
ATOM      5  N   UNL     1       7.129   4.418  18.196  0.00  0.00    +0.000 NA
ATOM      6  N   UNL     1       6.193   4.344  19.215  0.00  0.00    +0.000 NA
ATOM      7  C   UNL     1       4.959   4.441  18.755  0.00  0.00    +0.000 A 
ATOM      8  S   UNL     1       4.862   4.635  17.057  0.00  0.00    +0.000 S 
ATOM      9  H   UNL     1       8.277   4.580  15.972  0.00  0.00    +0.000 HD
ENDROOT
BRANCH   7  10
ATOM     10  C   UNL     1       3.792   4.392  19.585  0.00  0.00    +0.000 A 
ATOM     11  C   UNL     1       3.186   3.286  20.162  0.00  0.00    +0.000 A 
ATOM     12  C   UNL     1       2.066   3.752  20.894  0.00  0.00    +0.000 A 
ATOM     13  C   UNL     1       2.044   5.113  20.729  0.00  0.00    +0.000 A 
ATOM     14  O   UNL     1       3.076   5.511  19.946  0.00  0.00    +0.000 OA
ENDBRANCH   7  10
BRANCH   1  15
ATOM     15  C   UNL     1       7.785   5.018  13.512  0.00  0.00    +0.000 C 
BRANCH  15  17
ATOM     16  C   UNL     1       6.302   3.310  12.357  0.00  0.00    +0.000 C 
ATOM     17  C   UNL     1       7.144   4.568  12.202  0.00  0.00    +0.000 C 
ENDBRANCH  15  17
ENDBRANCH   1  15
TORSDOF 3
ENDMDL
