MODEL 1
REMARK VINA RESULT:      -6.5      0.000      0.000
REMARK  Name = 
REMARK  9 active torsions:
REMARK  status: ('A' for Active; 'I' for Inactive)
REMARK    1  A    between atoms: C_1  and  C_2
REMARK    2  A    between atoms: C_2  and  C_3
REMARK    3  A    between atoms: C_3  and  N_4
REMARK    4  A    between atoms: N_4  and  C_5
REMARK    5  A    between atoms: C_5  and  C_6
REMARK    6  A    between atoms: C_6  and  C_7
REMARK    7  A    between atoms: N_14  and  C_15
REMARK    8  A    between atoms: C_15  and  C_16
REMARK    9  A    between atoms: C_16  and  N_17
REMARK                            x       y       z     vdW  Elec       q    Type
REMARK                         _______ _______ _______ _____ _____    ______ ____
ROOT
ATOM      1  N   UNL     1       4.655   4.046  18.466  0.00  0.00    +0.000 N 
ATOM      2  C   UNL     1       5.616   4.766  17.780  0.00  0.00    +0.000 A 
ATOM      3  N   UNL     1       5.832   4.480  16.505  0.00  0.00    +0.000 NA
ATOM      4  C   UNL     1       6.713   5.263  15.913  0.00  0.00    +0.000 A 
ATOM      5 CL   UNL     1       7.018   4.938  14.263  0.00  0.00    +0.000 Cl
ATOM      6  N   UNL     1       7.367   6.286  16.426  0.00  0.00    +0.000 NA
ATOM      7  C   UNL     1       7.112   6.480  17.708  0.00  0.00    +0.000 A 
ATOM      8  N   UNL     1       7.691   7.553  18.372  0.00  0.00    +0.000 N 
ATOM      9  N   UNL     1       6.283   5.728  18.418  0.00  0.00    +0.000 NA
ATOM     10  H   UNL     1       8.276   7.180  19.112  0.00  0.00    +0.000 HD
ENDROOT
BRANCH   1  11
ATOM     11  C   UNL     1       3.987   2.938  17.787  0.00  0.00    +0.000 C 
BRANCH  11  13
ATOM     12  C   UNL     1       1.763   2.025  18.659  0.00  0.00    +0.000 C 
ATOM     13  C   UNL     1       3.281   1.996  18.773  0.00  0.00    +0.000 C 
ENDBRANCH  11  13
ENDBRANCH   1  11
BRANCH   1  14
ATOM     14  C   UNL     1       4.053   4.631  19.665  0.00  0.00    +0.000 C 
BRANCH  14  15
ATOM     15  C   UNL     1       2.853   5.550  19.385  0.00  0.00    +0.000 C 
ATOM     16  C   UNL     1       1.825   5.603  20.507  0.00  0.00    +0.000 C 
ENDBRANCH  14  15
ENDBRANCH   1  14
BRANCH   8  17
ATOM     17  C   UNL     1       8.322   8.572  17.537  0.00  0.00    +0.000 C 
BRANCH  17  18
ATOM     18  C   UNL     1       8.373   9.926  18.296  0.00  0.00    +0.000 C 
BRANCH  18  19
ATOM     19  N   UNL     1       9.712  10.370  18.728  0.00  0.00    +0.000 NA
ATOM     20  C   UNL     1       9.649  10.966  20.087  0.00  0.00    +0.000 C 
ATOM     21  C   UNL     1       9.063  12.393  20.144  0.00  0.00    +0.000 C 
ATOM     22  O   UNL     1       9.712  13.278  19.223  0.00  0.00    +0.000 OA
ATOM     23  C   UNL     1       9.656  12.755  17.891  0.00  0.00    +0.000 C 
ATOM     24  C   UNL     1      10.318  11.371  17.824  0.00  0.00    +0.000 C 
ENDBRANCH  18  19
ENDBRANCH  17  18
ENDBRANCH   8  17
TORSDOF 7
ENDMDL
MODEL 2
REMARK VINA RESULT:      -6.4      3.825      6.864
REMARK  Name = 
REMARK  9 active torsions:
REMARK  status: ('A' for Active; 'I' for Inactive)
REMARK    1  A    between atoms: C_1  and  C_2
REMARK    2  A    between atoms: C_2  and  C_3
REMARK    3  A    between atoms: C_3  and  N_4
REMARK    4  A    between atoms: N_4  and  C_5
REMARK    5  A    between atoms: C_5  and  C_6
REMARK    6  A    between atoms: C_6  and  C_7
REMARK    7  A    between atoms: N_14  and  C_15
REMARK    8  A    between atoms: C_15  and  C_16
REMARK    9  A    between atoms: C_16  and  N_17
REMARK                            x       y       z     vdW  Elec       q    Type
REMARK                         _______ _______ _______ _____ _____    ______ ____
ROOT
ATOM      1  N   UNL     1       6.068   5.595  16.800  0.00  0.00    +0.000 N 
ATOM      2  C   UNL     1       5.009   5.176  17.585  0.00  0.00    +0.000 A 
ATOM      3  N   UNL     1       4.875   3.881  17.830  0.00  0.00    +0.000 NA
ATOM      4  C   UNL     1       3.882   3.580  18.644  0.00  0.00    +0.000 A 
ATOM      5 CL   UNL     1       3.676   1.920  18.997  0.00  0.00    +0.000 Cl
ATOM      6  N   UNL     1       3.045   4.402  19.244  0.00  0.00    +0.000 NA
ATOM      7  C   UNL     1       3.233   5.669  18.921  0.00  0.00    +0.000 A 
ATOM      8  N   UNL     1       2.457   6.656  19.514  0.00  0.00    +0.000 N 
ATOM      9  N   UNL     1       4.167   6.085  18.077  0.00  0.00    +0.000 NA
ATOM     10  H   UNL     1       1.932   7.120  18.781  0.00  0.00    +0.000 HD
ENDROOT
BRANCH   1  11
ATOM     11  C   UNL     1       6.937   4.589  16.195  0.00  0.00    +0.000 C 
BRANCH  11  13
ATOM     12  C   UNL     1       5.821   4.063  13.955  0.00  0.00    +0.000 C 
ATOM     13  C   UNL     1       6.997   4.720  14.666  0.00  0.00    +0.000 C 
ENDBRANCH  11  13
ENDBRANCH   1  11
BRANCH   1  14
ATOM     14  C   UNL     1       6.529   6.979  16.914  0.00  0.00    +0.000 C 
BRANCH  14  15
ATOM     15  C   UNL     1       7.707   7.175  17.882  0.00  0.00    +0.000 C 
ATOM     16  C   UNL     1       8.219   8.605  17.970  0.00  0.00    +0.000 C 
ENDBRANCH  14  15
ENDBRANCH   1  14
BRANCH   8  17
ATOM     17  C   UNL     1       1.673   6.254  20.679  0.00  0.00    +0.000 C 
BRANCH  17  18
ATOM     18  C   UNL     1       0.727   7.410  21.108  0.00  0.00    +0.000 C 
BRANCH  18  19
ATOM     19  N   UNL     1       1.357   8.738  21.240  0.00  0.00    +0.000 NA
ATOM     20  C   UNL     1       1.116   9.294  22.596  0.00  0.00    +0.000 C 
ATOM     21  C   UNL     1      -0.305   9.849  22.829  0.00  0.00    +0.000 C 
ATOM     22  O   UNL     1      -0.691  10.784  21.813  0.00  0.00    +0.000 OA
ATOM     23  C   UNL     1      -0.578  10.195  20.512  0.00  0.00    +0.000 C 
ATOM     24  C   UNL     1       0.860   9.723  20.254  0.00  0.00    +0.000 C 
ENDBRANCH  18  19
ENDBRANCH  17  18
ENDBRANCH   8  17
TORSDOF 7
ENDMDL
MODEL 3
REMARK VINA RESULT:      -6.4      4.936      6.488
REMARK  Name = 
REMARK  9 active torsions:
REMARK  status: ('A' for Active; 'I' for Inactive)
REMARK    1  A    between atoms: C_1  and  C_2
REMARK    2  A    between atoms: C_2  and  C_3
REMARK    3  A    between atoms: C_3  and  N_4
REMARK    4  A    between atoms: N_4  and  C_5
REMARK    5  A    between atoms: C_5  and  C_6
REMARK    6  A    between atoms: C_6  and  C_7
REMARK    7  A    between atoms: N_14  and  C_15
REMARK    8  A    between atoms: C_15  and  C_16
REMARK    9  A    between atoms: C_16  and  N_17
REMARK                            x       y       z     vdW  Elec       q    Type
REMARK                         _______ _______ _______ _____ _____    ______ ____
ROOT
ATOM      1  N   UNL     1       2.535   3.610  18.108  0.00  0.00    +0.000 N 
ATOM      2  C   UNL     1       3.008   4.900  17.945  0.00  0.00    +0.000 A 
ATOM      3  N   UNL     1       4.153   5.079  17.303  0.00  0.00    +0.000 NA
ATOM      4  C   UNL     1       4.490   6.342  17.132  0.00  0.00    +0.000 A 
ATOM      5 CL   UNL     1       5.956   6.623  16.299  0.00  0.00    +0.000 Cl
ATOM      6  N   UNL     1       3.823   7.418  17.497  0.00  0.00    +0.000 NA
ATOM      7  C   UNL     1       2.710   7.146  18.155  0.00  0.00    +0.000 A 
ATOM      8  N   UNL     1       1.876   8.181  18.560  0.00  0.00    +0.000 N 
ATOM      9  N   UNL     1       2.295   5.917  18.427  0.00  0.00    +0.000 NA
ATOM     10  H   UNL     1       1.827   8.161  19.573  0.00  0.00    +0.000 HD
ENDROOT
BRANCH   1  11
ATOM     11  C   UNL     1       3.361   2.494  17.652  0.00  0.00    +0.000 C 
BRANCH  11  13
ATOM     12  C   UNL     1       4.455   2.254  19.951  0.00  0.00    +0.000 C 
ATOM     13  C   UNL     1       3.745   1.551  18.802  0.00  0.00    +0.000 C 
ENDBRANCH  11  13
ENDBRANCH   1  11
BRANCH   1  14
ATOM     14  C   UNL     1       1.106   3.405  18.348  0.00  0.00    +0.000 C 
BRANCH  14  15
ATOM     15  C   UNL     1       0.776   2.820  19.730  0.00  0.00    +0.000 C 
ATOM     16  C   UNL     1       1.252   3.665  20.903  0.00  0.00    +0.000 C 
ENDBRANCH  14  15
ENDBRANCH   1  14
BRANCH   8  17
ATOM     17  C   UNL     1       2.139   9.494  17.978  0.00  0.00    +0.000 C 
BRANCH  17  18
ATOM     18  C   UNL     1       1.183  10.551  18.595  0.00  0.00    +0.000 C 
BRANCH  18  19
ATOM     19  N   UNL     1      -0.130  10.046  19.041  0.00  0.00    +0.000 NA
ATOM     20  C   UNL     1      -1.173  10.348  18.027  0.00  0.00    +0.000 C 
ATOM     21  C   UNL     1      -1.649  11.815  18.001  0.00  0.00    +0.000 C 
ATOM     22  O   UNL     1      -2.045  12.275  19.300  0.00  0.00    +0.000 OA
ATOM     23  C   UNL     1      -0.985  12.098  20.245  0.00  0.00    +0.000 C 
ATOM     24  C   UNL     1      -0.574  10.621  20.329  0.00  0.00    +0.000 C 
ENDBRANCH  18  19
ENDBRANCH  17  18
ENDBRANCH   8  17
TORSDOF 7
ENDMDL
MODEL 4
REMARK VINA RESULT:      -6.3      4.457      6.905
REMARK  Name = 
REMARK  9 active torsions:
REMARK  status: ('A' for Active; 'I' for Inactive)
REMARK    1  A    between atoms: C_1  and  C_2
REMARK    2  A    between atoms: C_2  and  C_3
REMARK    3  A    between atoms: C_3  and  N_4
REMARK    4  A    between atoms: N_4  and  C_5
REMARK    5  A    between atoms: C_5  and  C_6
REMARK    6  A    between atoms: C_6  and  C_7
REMARK    7  A    between atoms: N_14  and  C_15
REMARK    8  A    between atoms: C_15  and  C_16
REMARK    9  A    between atoms: C_16  and  N_17
REMARK                            x       y       z     vdW  Elec       q    Type
REMARK                         _______ _______ _______ _____ _____    ______ ____
ROOT
ATOM      1  N   UNL     1       5.453   5.697  17.027  0.00  0.00    +0.000 N 
ATOM      2  C   UNL     1       4.346   5.625  17.852  0.00  0.00    +0.000 A 
ATOM      3  N   UNL     1       3.963   4.438  18.297  0.00  0.00    +0.000 NA
ATOM      4  C   UNL     1       2.944   4.472  19.134  0.00  0.00    +0.000 A 
ATOM      5 CL   UNL     1       2.420   2.963  19.743  0.00  0.00    +0.000 Cl
ATOM      6  N   UNL     1       2.296   5.528  19.583  0.00  0.00    +0.000 NA
ATOM      7  C   UNL     1       2.725   6.665  19.065  0.00  0.00    +0.000 A 
ATOM      8  N   UNL     1       2.169   7.868  19.483  0.00  0.00    +0.000 N 
ATOM      9  N   UNL     1       3.709   6.749  18.180  0.00  0.00    +0.000 NA
ATOM     10  H   UNL     1       1.734   8.304  18.677  0.00  0.00    +0.000 HD
ENDROOT
BRANCH   1  11
ATOM     11  C   UNL     1       6.097   4.456  16.603  0.00  0.00    +0.000 C 
BRANCH  11  13
ATOM     12  C   UNL     1       6.008   3.921  14.104  0.00  0.00    +0.000 C 
ATOM     13  C   UNL     1       6.776   4.596  15.232  0.00  0.00    +0.000 C 
ENDBRANCH  11  13
ENDBRANCH   1  11
BRANCH   1  14
ATOM     14  C   UNL     1       6.180   6.963  16.926  0.00  0.00    +0.000 C 
BRANCH  14  15
ATOM     15  C   UNL     1       7.439   7.040  17.805  0.00  0.00    +0.000 C 
ATOM     16  C   UNL     1       8.097   8.412  17.844  0.00  0.00    +0.000 C 
ENDBRANCH  14  15
ENDBRANCH   1  14
BRANCH   8  17
ATOM     17  C   UNL     1       1.341   7.819  20.684  0.00  0.00    +0.000 C 
BRANCH  17  18
ATOM     18  C   UNL     1       0.500   9.120  20.804  0.00  0.00    +0.000 C 
BRANCH  18  19
ATOM     19  N   UNL     1       0.891  10.222  19.903  0.00  0.00    +0.000 NA
ATOM     20  C   UNL     1       1.064  11.482  20.669  0.00  0.00    +0.000 C 
ATOM     21  C   UNL     1      -0.249  12.175  21.088  0.00  0.00    +0.000 C 
ATOM     22  O   UNL     1      -1.134  12.365  19.977  0.00  0.00    +0.000 OA
ATOM     23  C   UNL     1      -1.399  11.121  19.320  0.00  0.00    +0.000 C 
ATOM     24  C   UNL     1      -0.094  10.478  18.830  0.00  0.00    +0.000 C 
ENDBRANCH  18  19
ENDBRANCH  17  18
ENDBRANCH   8  17
TORSDOF 7
ENDMDL
MODEL 5
REMARK VINA RESULT:      -6.3      4.993      7.415
REMARK  Name = 
REMARK  9 active torsions:
REMARK  status: ('A' for Active; 'I' for Inactive)
REMARK    1  A    between atoms: C_1  and  C_2
REMARK    2  A    between atoms: C_2  and  C_3
REMARK    3  A    between atoms: C_3  and  N_4
REMARK    4  A    between atoms: N_4  and  C_5
REMARK    5  A    between atoms: C_5  and  C_6
REMARK    6  A    between atoms: C_6  and  C_7
REMARK    7  A    between atoms: N_14  and  C_15
REMARK    8  A    between atoms: C_15  and  C_16
REMARK    9  A    between atoms: C_16  and  N_17
REMARK                            x       y       z     vdW  Elec       q    Type
REMARK                         _______ _______ _______ _____ _____    ______ ____
ROOT
ATOM      1  N   UNL     1       5.012   5.760  17.624  0.00  0.00    +0.000 N 
ATOM      2  C   UNL     1       3.942   5.878  18.492  0.00  0.00    +0.000 A 
ATOM      3  N   UNL     1       3.615   4.835  19.241  0.00  0.00    +0.000 NA
ATOM      4  C   UNL     1       2.631   5.059  20.089  0.00  0.00    +0.000 A 
ATOM      5 CL   UNL     1       2.181   3.744  21.084  0.00  0.00    +0.000 Cl
ATOM      6  N   UNL     1       1.968   6.181  20.287  0.00  0.00    +0.000 NA
ATOM      7  C   UNL     1       2.339   7.158  19.479  0.00  0.00    +0.000 A 
ATOM      8  N   UNL     1       1.763   8.416  19.604  0.00  0.00    +0.000 N 
ATOM      9  N   UNL     1       3.283   7.034  18.556  0.00  0.00    +0.000 NA
ATOM     10  H   UNL     1       1.281   8.623  18.736  0.00  0.00    +0.000 HD
ENDROOT
BRANCH   1  11
ATOM     11  C   UNL     1       5.677   4.466  17.497  0.00  0.00    +0.000 C 
BRANCH  11  13
ATOM     12  C   UNL     1       6.396   4.093  15.072  0.00  0.00    +0.000 C 
ATOM     13  C   UNL     1       5.370   3.787  16.154  0.00  0.00    +0.000 C 
ENDBRANCH  11  13
ENDBRANCH   1  11
BRANCH   1  14
ATOM     14  C   UNL     1       5.693   6.973  17.172  0.00  0.00    +0.000 C 
BRANCH  14  15
ATOM     15  C   UNL     1       7.214   6.963  17.392  0.00  0.00    +0.000 C 
ATOM     16  C   UNL     1       7.822   8.332  17.665  0.00  0.00    +0.000 C 
ENDBRANCH  14  15
ENDBRANCH   1  14
BRANCH   8  17
ATOM     17  C   UNL     1       0.986   8.657  20.817  0.00  0.00    +0.000 C 
BRANCH  17  18
ATOM     18  C   UNL     1      -0.183   9.634  20.515  0.00  0.00    +0.000 C 
BRANCH  18  19
ATOM     19  N   UNL     1       0.073  10.633  19.460  0.00  0.00    +0.000 NA
ATOM     20  C   UNL     1      -0.281  11.994  19.937  0.00  0.00    +0.000 C 
ATOM     21  C   UNL     1      -1.794  12.296  19.977  0.00  0.00    +0.000 C 
ATOM     22  O   UNL     1      -2.433  12.007  18.727  0.00  0.00    +0.000 OA
ATOM     23  C   UNL     1      -2.193  10.650  18.337  0.00  0.00    +0.000 C 
ATOM     24  C   UNL     1      -0.686  10.380  18.216  0.00  0.00    +0.000 C 
ENDBRANCH  18  19
ENDBRANCH  17  18
ENDBRANCH   8  17
TORSDOF 7
ENDMDL
MODEL 6
REMARK VINA RESULT:      -6.3      4.432      7.035
REMARK  Name = 
REMARK  9 active torsions:
REMARK  status: ('A' for Active; 'I' for Inactive)
REMARK    1  A    between atoms: C_1  and  C_2
REMARK    2  A    between atoms: C_2  and  C_3
REMARK    3  A    between atoms: C_3  and  N_4
REMARK    4  A    between atoms: N_4  and  C_5
REMARK    5  A    between atoms: C_5  and  C_6
REMARK    6  A    between atoms: C_6  and  C_7
REMARK    7  A    between atoms: N_14  and  C_15
REMARK    8  A    between atoms: C_15  and  C_16
REMARK    9  A    between atoms: C_16  and  N_17
REMARK                            x       y       z     vdW  Elec       q    Type
REMARK                         _______ _______ _______ _____ _____    ______ ____
ROOT
ATOM      1  N   UNL     1       5.089   5.638  16.813  0.00  0.00    +0.000 N 
ATOM      2  C   UNL     1       4.032   5.588  17.704  0.00  0.00    +0.000 A 
ATOM      3  N   UNL     1       3.594   4.402  18.101  0.00  0.00    +0.000 NA
ATOM      4  C   UNL     1       2.635   4.451  19.005  0.00  0.00    +0.000 A 
ATOM      5 CL   UNL     1       2.043   2.944  19.555  0.00  0.00    +0.000 Cl
ATOM      6  N   UNL     1       2.093   5.517  19.559  0.00  0.00    +0.000 NA
ATOM      7  C   UNL     1       2.569   6.653  19.084  0.00  0.00    +0.000 A 
ATOM      8  N   UNL     1       2.128   7.861  19.609  0.00  0.00    +0.000 N 
ATOM      9  N   UNL     1       3.499   6.728  18.142  0.00  0.00    +0.000 NA
ATOM     10  H   UNL     1       1.675   8.377  18.862  0.00  0.00    +0.000 HD
ENDROOT
BRANCH   1  11
ATOM     11  C   UNL     1       5.614   4.386  16.272  0.00  0.00    +0.000 C 
BRANCH  11  13
ATOM     12  C   UNL     1       6.770   4.430  13.992  0.00  0.00    +0.000 C 
ATOM     13  C   UNL     1       5.454   4.303  14.747  0.00  0.00    +0.000 C 
ENDBRANCH  11  13
ENDBRANCH   1  11
BRANCH   1  14
ATOM     14  C   UNL     1       5.897   6.855  16.740  0.00  0.00    +0.000 C 
BRANCH  14  15
ATOM     15  C   UNL     1       7.197   6.800  17.557  0.00  0.00    +0.000 C 
ATOM     16  C   UNL     1       7.934   8.128  17.660  0.00  0.00    +0.000 C 
ENDBRANCH  14  15
ENDBRANCH   1  14
BRANCH   8  17
ATOM     17  C   UNL     1       1.375   7.790  20.858  0.00  0.00    +0.000 C 
BRANCH  17  18
ATOM     18  C   UNL     1       1.114   9.222  21.405  0.00  0.00    +0.000 C 
BRANCH  18  19
ATOM     19  N   UNL     1      -0.268   9.719  21.265  0.00  0.00    +0.000 NA
ATOM     20  C   UNL     1      -0.572  10.014  19.841  0.00  0.00    +0.000 C 
ATOM     21  C   UNL     1       0.046  11.322  19.302  0.00  0.00    +0.000 C 
ATOM     22  O   UNL     1      -0.260  12.445  20.138  0.00  0.00    +0.000 OA
ATOM     23  C   UNL     1       0.154  12.202  21.487  0.00  0.00    +0.000 C 
ATOM     24  C   UNL     1      -0.531  10.947  22.046  0.00  0.00    +0.000 C 
ENDBRANCH  18  19
ENDBRANCH  17  18
ENDBRANCH   8  17
TORSDOF 7
ENDMDL
MODEL 7
REMARK VINA RESULT:      -6.2      4.928      7.183
REMARK  Name = 
REMARK  9 active torsions:
REMARK  status: ('A' for Active; 'I' for Inactive)
REMARK    1  A    between atoms: C_1  and  C_2
REMARK    2  A    between atoms: C_2  and  C_3
REMARK    3  A    between atoms: C_3  and  N_4
REMARK    4  A    between atoms: N_4  and  C_5
REMARK    5  A    between atoms: C_5  and  C_6
REMARK    6  A    between atoms: C_6  and  C_7
REMARK    7  A    between atoms: N_14  and  C_15
REMARK    8  A    between atoms: C_15  and  C_16
REMARK    9  A    between atoms: C_16  and  N_17
REMARK                            x       y       z     vdW  Elec       q    Type
REMARK                         _______ _______ _______ _____ _____    ______ ____
ROOT
ATOM      1  N   UNL     1       4.444   5.571  17.418  0.00  0.00    +0.000 N 
ATOM      2  C   UNL     1       3.453   5.687  18.376  0.00  0.00    +0.000 A 
ATOM      3  N   UNL     1       2.977   4.584  18.933  0.00  0.00    +0.000 NA
ATOM      4  C   UNL     1       2.089   4.793  19.885  0.00  0.00    +0.000 A 
ATOM      5 CL   UNL     1       1.454   3.398  20.641  0.00  0.00    +0.000 Cl
ATOM      6  N   UNL     1       1.651   5.947  20.349  0.00  0.00    +0.000 NA
ATOM      7  C   UNL     1       2.155   6.991  19.717  0.00  0.00    +0.000 A 
ATOM      8  N   UNL     1       1.824   8.275  20.129  0.00  0.00    +0.000 N 
ATOM      9  N   UNL     1       3.018   6.901  18.714  0.00  0.00    +0.000 NA
ATOM     10  H   UNL     1       1.348   8.734  19.359  0.00  0.00    +0.000 HD
ENDROOT
BRANCH   1  11
ATOM     11  C   UNL     1       4.856   4.236  16.990  0.00  0.00    +0.000 C 
BRANCH  11  13
ATOM     12  C   UNL     1       6.589   4.052  15.119  0.00  0.00    +0.000 C 
ATOM     13  C   UNL     1       5.114   4.167  15.478  0.00  0.00    +0.000 C 
ENDBRANCH  11  13
ENDBRANCH   1  11
BRANCH   1  14
ATOM     14  C   UNL     1       5.313   6.718  17.154  0.00  0.00    +0.000 C 
BRANCH  14  15
ATOM     15  C   UNL     1       6.711   6.608  17.782  0.00  0.00    +0.000 C 
ATOM     16  C   UNL     1       7.641   7.769  17.458  0.00  0.00    +0.000 C 
ENDBRANCH  14  15
ENDBRANCH   1  14
BRANCH   8  17
ATOM     17  C   UNL     1       1.159   8.391  21.424  0.00  0.00    +0.000 C 
BRANCH  17  18
ATOM     18  C   UNL     1       0.062   9.490  21.363  0.00  0.00    +0.000 C 
BRANCH  18  19
ATOM     19  N   UNL     1       0.469  10.829  21.831  0.00  0.00    +0.000 NA
ATOM     20  C   UNL     1      -0.680  11.530  22.459  0.00  0.00    +0.000 C 
ATOM     21  C   UNL     1      -1.717  12.097  21.467  0.00  0.00    +0.000 C 
ATOM     22  O   UNL     1      -1.107  12.910  20.457  0.00  0.00    +0.000 OA
ATOM     23  C   UNL     1      -0.085  12.181  19.767  0.00  0.00    +0.000 C 
ATOM     24  C   UNL     1       0.989  11.694  20.750  0.00  0.00    +0.000 C 
ENDBRANCH  18  19
ENDBRANCH  17  18
ENDBRANCH   8  17
TORSDOF 7
ENDMDL
MODEL 8
REMARK VINA RESULT:      -6.2      4.310      7.089
REMARK  Name = 
REMARK  9 active torsions:
REMARK  status: ('A' for Active; 'I' for Inactive)
REMARK    1  A    between atoms: C_1  and  C_2
REMARK    2  A    between atoms: C_2  and  C_3
REMARK    3  A    between atoms: C_3  and  N_4
REMARK    4  A    between atoms: N_4  and  C_5
REMARK    5  A    between atoms: C_5  and  C_6
REMARK    6  A    between atoms: C_6  and  C_7
REMARK    7  A    between atoms: N_14  and  C_15
REMARK    8  A    between atoms: C_15  and  C_16
REMARK    9  A    between atoms: C_16  and  N_17
REMARK                            x       y       z     vdW  Elec       q    Type
REMARK                         _______ _______ _______ _____ _____    ______ ____
ROOT
ATOM      1  N   UNL     1       5.465   5.209  17.476  0.00  0.00    +0.000 N 
ATOM      2  C   UNL     1       4.204   5.180  18.042  0.00  0.00    +0.000 A 
ATOM      3  N   UNL     1       3.454   4.103  17.863  0.00  0.00    +0.000 NA
ATOM      4  C   UNL     1       2.298   4.132  18.496  0.00  0.00    +0.000 A 
ATOM      5 CL   UNL     1       1.299   2.759  18.302  0.00  0.00    +0.000 Cl
ATOM      6  N   UNL     1       1.827   5.078  19.286  0.00  0.00    +0.000 NA
ATOM      7  C   UNL     1       2.626   6.124  19.384  0.00  0.00    +0.000 A 
ATOM      8  N   UNL     1       2.285   7.178  20.222  0.00  0.00    +0.000 N 
ATOM      9  N   UNL     1       3.789   6.227  18.755  0.00  0.00    +0.000 NA
ATOM     10  H   UNL     1       2.178   8.008  19.647  0.00  0.00    +0.000 HD
ENDROOT
BRANCH   1  11
ATOM     11  C   UNL     1       5.882   4.097  16.626  0.00  0.00    +0.000 C 
BRANCH  11  13
ATOM     12  C   UNL     1       6.932   4.700  14.374  0.00  0.00    +0.000 C 
ATOM     13  C   UNL     1       5.651   4.389  15.136  0.00  0.00    +0.000 C 
ENDBRANCH  11  13
ENDBRANCH   1  11
BRANCH   1  14
ATOM     14  C   UNL     1       6.473   6.110  18.038  0.00  0.00    +0.000 C 
BRANCH  14  15
ATOM     15  C   UNL     1       6.819   7.308  17.139  0.00  0.00    +0.000 C 
ATOM     16  C   UNL     1       7.941   8.190  17.670  0.00  0.00    +0.000 C 
ENDBRANCH  14  15
ENDBRANCH   1  14
BRANCH   8  17
ATOM     17  C   UNL     1       1.198   6.933  21.166  0.00  0.00    +0.000 C 
BRANCH  17  18
ATOM     18  C   UNL     1       0.312   8.202  21.298  0.00  0.00    +0.000 C 
BRANCH  18  19
ATOM     19  N   UNL     1       0.956   9.371  21.930  0.00  0.00    +0.000 NA
ATOM     20  C   UNL     1       0.318   9.670  23.237  0.00  0.00    +0.000 C 
ATOM     21  C   UNL     1      -1.056  10.367  23.146  0.00  0.00    +0.000 C 
ATOM     22  O   UNL     1      -1.013  11.534  22.315  0.00  0.00    +0.000 OA
ATOM     23  C   UNL     1      -0.517  11.210  21.011  0.00  0.00    +0.000 C 
ATOM     24  C   UNL     1       0.888  10.595  21.104  0.00  0.00    +0.000 C 
ENDBRANCH  18  19
ENDBRANCH  17  18
ENDBRANCH   8  17
TORSDOF 7
ENDMDL
MODEL 9
REMARK VINA RESULT:      -6.1      4.481      6.760
REMARK  Name = 
REMARK  9 active torsions:
REMARK  status: ('A' for Active; 'I' for Inactive)
REMARK    1  A    between atoms: C_1  and  C_2
REMARK    2  A    between atoms: C_2  and  C_3
REMARK    3  A    between atoms: C_3  and  N_4
REMARK    4  A    between atoms: N_4  and  C_5
REMARK    5  A    between atoms: C_5  and  C_6
REMARK    6  A    between atoms: C_6  and  C_7
REMARK    7  A    between atoms: N_14  and  C_15
REMARK    8  A    between atoms: C_15  and  C_16
REMARK    9  A    between atoms: C_16  and  N_17
REMARK                            x       y       z     vdW  Elec       q    Type
REMARK                         _______ _______ _______ _____ _____    ______ ____
ROOT
ATOM      1  N   UNL     1       5.433   5.509  16.655  0.00  0.00    +0.000 N 
ATOM      2  C   UNL     1       4.216   5.594  17.306  0.00  0.00    +0.000 A 
ATOM      3  N   UNL     1       3.468   4.505  17.395  0.00  0.00    +0.000 NA
ATOM      4  C   UNL     1       2.360   4.660  18.093  0.00  0.00    +0.000 A 
ATOM      5 CL   UNL     1       1.366   3.277  18.244  0.00  0.00    +0.000 Cl
ATOM      6  N   UNL     1       1.936   5.742  18.715  0.00  0.00    +0.000 NA
ATOM      7  C   UNL     1       2.728   6.786  18.549  0.00  0.00    +0.000 A 
ATOM      8  N   UNL     1       2.436   7.984  19.188  0.00  0.00    +0.000 N 
ATOM      9  N   UNL     1       3.841   6.760  17.830  0.00  0.00    +0.000 NA
ATOM     10  H   UNL     1       2.277   8.685  18.472  0.00  0.00    +0.000 HD
ENDROOT
BRANCH   1  11
ATOM     11  C   UNL     1       5.801   4.251  16.010  0.00  0.00    +0.000 C 
BRANCH  11  13
ATOM     12  C   UNL     1       6.034   3.804  13.503  0.00  0.00    +0.000 C 
ATOM     13  C   UNL     1       6.627   4.474  14.734  0.00  0.00    +0.000 C 
ENDBRANCH  11  13
ENDBRANCH   1  11
BRANCH   1  14
ATOM     14  C   UNL     1       6.467   6.500  16.955  0.00  0.00    +0.000 C 
BRANCH  14  15
ATOM     15  C   UNL     1       7.597   5.980  17.858  0.00  0.00    +0.000 C 
ATOM     16  C   UNL     1       7.164   5.641  19.278  0.00  0.00    +0.000 C 
ENDBRANCH  14  15
ENDBRANCH   1  14
BRANCH   8  17
ATOM     17  C   UNL     1       1.422   7.931  20.238  0.00  0.00    +0.000 C 
BRANCH  17  18
ATOM     18  C   UNL     1       0.729   9.314  20.380  0.00  0.00    +0.000 C 
BRANCH  18  19
ATOM     19  N   UNL     1       0.469  10.033  19.118  0.00  0.00    +0.000 NA
ATOM     20  C   UNL     1       1.281  11.276  19.052  0.00  0.00    +0.000 C 
ATOM     21  C   UNL     1       0.761  12.438  19.923  0.00  0.00    +0.000 C 
ATOM     22  O   UNL     1      -0.624  12.715  19.680  0.00  0.00    +0.000 OA
ATOM     23  C   UNL     1      -1.418  11.538  19.871  0.00  0.00    +0.000 C 
ATOM     24  C   UNL     1      -0.949  10.411  18.939  0.00  0.00    +0.000 C 
ENDBRANCH  18  19
ENDBRANCH  17  18
ENDBRANCH   8  17
TORSDOF 7
ENDMDL
