MODEL 1
REMARK VINA RESULT:      -9.6      0.000      0.000
REMARK  Name = 
REMARK  0 active torsions:
REMARK  status: ('A' for Active; 'I' for Inactive)
REMARK                            x       y       z     vdW  Elec       q    Type
REMARK                         _______ _______ _______ _____ _____    ______ ____
ROOT
ATOM      1  O   UNL     1      -2.710  14.646  20.350  0.00  0.00    +0.000 OA
ATOM      2  C   UNL     1      -3.177  13.967  21.262  0.00  0.00    +0.000 A 
ATOM      3  C   UNL     1      -4.603  13.904  21.521  0.00  0.00    +0.000 A 
ATOM      4  C   UNL     1      -5.497  14.506  20.616  0.00  0.00    +0.000 A 
ATOM      5  C   UNL     1      -6.850  14.566  20.922  0.00  0.00    +0.000 A 
ATOM      6  C   UNL     1      -7.310  14.049  22.138  0.00  0.00    +0.000 A 
ATOM      7  C   UNL     1      -6.435  13.393  23.000  0.00  0.00    +0.000 A 
ATOM      8  C   UNL     1      -5.083  13.274  22.659  0.00  0.00    +0.000 A 
ATOM      9  C   UNL     1      -4.175  12.422  23.469  0.00  0.00    +0.000 A 
ATOM     10  O   UNL     1      -4.592  11.837  24.469  0.00  0.00    +0.000 OA
ATOM     11  C   UNL     1      -2.785  12.264  23.002  0.00  0.00    +0.000 A 
ATOM     12  O   UNL     1      -2.001  11.201  23.495  0.00  0.00    +0.000 OA
ATOM     13  C   UNL     1      -0.912  10.850  22.703  0.00  0.00    +0.000 A 
ATOM     14  C   UNL     1      -0.467   9.530  22.703  0.00  0.00    +0.000 A 
ATOM     15  C   UNL     1       0.488   9.167  21.752  0.00  0.00    +0.000 A 
ATOM     16  O   UNL     1       0.837   7.826  21.638  0.00  0.00    +0.000 OA
ATOM     17  C   UNL     1       1.530   7.458  20.479  0.00  0.00    +0.000 A 
ATOM     18  C   UNL     1       2.042   6.072  20.361  0.00  0.00    +0.000 A 
ATOM     19  O   UNL     1       1.706   5.158  21.089  0.00  0.00    +0.000 OA
ATOM     20  C   UNL     1       3.075   5.889  19.327  0.00  0.00    +0.000 A 
ATOM     21  C   UNL     1       4.304   5.308  19.604  0.00  0.00    +0.000 A 
ATOM     22  C   UNL     1       5.259   5.228  18.584  0.00  0.00    +0.000 A 
ATOM     23  C   UNL     1       4.926   5.585  17.272  0.00  0.00    +0.000 A 
ATOM     24  C   UNL     1       3.722   6.225  17.016  0.00  0.00    +0.000 A 
ATOM     25  C   UNL     1       2.913   6.535  18.107  0.00  0.00    +0.000 A 
ATOM     26  C   UNL     1       2.444   7.927  18.216  0.00  0.00    +0.000 A 
ATOM     27  O   UNL     1       2.645   8.745  17.325  0.00  0.00    +0.000 OA
ATOM     28  C   UNL     1       1.882   8.347  19.533  0.00  0.00    +0.000 A 
ATOM     29  N   UNL     1       1.748   9.691  19.747  0.00  0.00    +0.000 N 
ATOM     30  C   UNL     1       1.041  10.126  20.866  0.00  0.00    +0.000 A 
ATOM     31  C   UNL     1       0.687  11.459  20.965  0.00  0.00    +0.000 A 
ATOM     32  C   UNL     1      -0.359  11.796  21.805  0.00  0.00    +0.000 A 
ATOM     33  N   UNL     1      -0.957  13.060  21.692  0.00  0.00    +0.000 N 
ATOM     34  C   UNL     1      -2.284  13.106  22.076  0.00  0.00    +0.000 A 
ATOM     35  H   UNL     1       2.261  10.322  19.141  0.00  0.00    +0.000 HD
ATOM     36  H   UNL     1      -0.769  13.577  20.834  0.00  0.00    +0.000 HD
ENDROOT
TORSDOF 0
ENDMDL
MODEL 2
REMARK VINA RESULT:      -9.1      2.395      3.132
REMARK  Name = 
REMARK  0 active torsions:
REMARK  status: ('A' for Active; 'I' for Inactive)
REMARK                            x       y       z     vdW  Elec       q    Type
REMARK                         _______ _______ _______ _____ _____    ______ ____
ROOT
ATOM      1  O   UNL     1      -2.037  11.895  17.693  0.00  0.00    +0.000 OA
ATOM      2  C   UNL     1      -2.062  11.956  18.922  0.00  0.00    +0.000 A 
ATOM      3  C   UNL     1      -3.246  12.380  19.646  0.00  0.00    +0.000 A 
ATOM      4  C   UNL     1      -4.450  12.580  18.944  0.00  0.00    +0.000 A 
ATOM      5  C   UNL     1      -5.550  13.111  19.605  0.00  0.00    +0.000 A 
ATOM      6  C   UNL     1      -5.446  13.467  20.953  0.00  0.00    +0.000 A 
ATOM      7  C   UNL     1      -4.275  13.206  21.662  0.00  0.00    +0.000 A 
ATOM      8  C   UNL     1      -3.189  12.607  21.012  0.00  0.00    +0.000 A 
ATOM      9  C   UNL     1      -2.007  12.152  21.787  0.00  0.00    +0.000 A 
ATOM     10  O   UNL     1      -1.952  12.325  23.005  0.00  0.00    +0.000 OA
ATOM     11  C   UNL     1      -0.938  11.445  21.056  0.00  0.00    +0.000 A 
ATOM     12  O   UNL     1       0.003  10.676  21.770  0.00  0.00    +0.000 OA
ATOM     13  C   UNL     1       0.666   9.706  21.024  0.00  0.00    +0.000 A 
ATOM     14  C   UNL     1       1.098   8.541  21.652  0.00  0.00    +0.000 A 
ATOM     15  C   UNL     1       1.572   7.506  20.844  0.00  0.00    +0.000 A 
ATOM     16  O   UNL     1       1.870   6.284  21.435  0.00  0.00    +0.000 OA
ATOM     17  C   UNL     1       2.019   5.193  20.572  0.00  0.00    +0.000 A 
ATOM     18  C   UNL     1       2.464   3.894  21.130  0.00  0.00    +0.000 A 
ATOM     19  O   UNL     1       2.486   3.635  22.318  0.00  0.00    +0.000 OA
ATOM     20  C   UNL     1       2.971   2.940  20.128  0.00  0.00    +0.000 A 
ATOM     21  C   UNL     1       4.215   2.337  20.244  0.00  0.00    +0.000 A 
ATOM     22  C   UNL     1       4.654   1.492  19.218  0.00  0.00    +0.000 A 
ATOM     23  C   UNL     1       3.794   1.140  18.172  0.00  0.00    +0.000 A 
ATOM     24  C   UNL     1       2.580   1.797  18.028  0.00  0.00    +0.000 A 
ATOM     25  C   UNL     1       2.298   2.831  18.918  0.00  0.00    +0.000 A 
ATOM     26  C   UNL     1       1.888   4.120  18.334  0.00  0.00    +0.000 A 
ATOM     27  O   UNL     1       1.678   4.244  17.132  0.00  0.00    +0.000 OA
ATOM     28  C   UNL     1       1.922   5.308  19.236  0.00  0.00    +0.000 A 
ATOM     29  N   UNL     1       1.862   6.538  18.640  0.00  0.00    +0.000 N 
ATOM     30  C   UNL     1       1.680   7.664  19.439  0.00  0.00    +0.000 A 
ATOM     31  C   UNL     1       1.372   8.873  18.844  0.00  0.00    +0.000 A 
ATOM     32  C   UNL     1       0.769   9.848  19.618  0.00  0.00    +0.000 A 
ATOM     33  N   UNL     1       0.152  10.942  18.995  0.00  0.00    +0.000 N 
ATOM     34  C   UNL     1      -0.892  11.500  19.709  0.00  0.00    +0.000 A 
ATOM     35  H   UNL     1       2.059   6.594  17.646  0.00  0.00    +0.000 HD
ATOM     36  H   UNL     1      -0.049  10.845  18.000  0.00  0.00    +0.000 HD
ENDROOT
TORSDOF 0
ENDMDL
MODEL 3
REMARK VINA RESULT:      -8.8      4.164      6.007
REMARK  Name = 
REMARK  0 active torsions:
REMARK  status: ('A' for Active; 'I' for Inactive)
REMARK                            x       y       z     vdW  Elec       q    Type
REMARK                         _______ _______ _______ _____ _____    ______ ____
ROOT
ATOM      1  O   UNL     1       0.848  13.775  22.340  0.00  0.00    +0.000 OA
ATOM      2  C   UNL     1       1.474  14.148  21.349  0.00  0.00    +0.000 A 
ATOM      3  C   UNL     1       2.430  15.238  21.410  0.00  0.00    +0.000 A 
ATOM      4  C   UNL     1       2.772  15.788  22.659  0.00  0.00    +0.000 A 
ATOM      5  C   UNL     1       3.582  16.915  22.715  0.00  0.00    +0.000 A 
ATOM      6  C   UNL     1       4.030  17.508  21.530  0.00  0.00    +0.000 A 
ATOM      7  C   UNL     1       3.746  16.922  20.299  0.00  0.00    +0.000 A 
ATOM      8  C   UNL     1       2.986  15.748  20.247  0.00  0.00    +0.000 A 
ATOM      9  C   UNL     1       2.831  15.009  18.968  0.00  0.00    +0.000 A 
ATOM     10  O   UNL     1       3.339  15.437  17.932  0.00  0.00    +0.000 OA
ATOM     11  C   UNL     1       2.096  13.730  19.000  0.00  0.00    +0.000 A 
ATOM     12  O   UNL     1       2.235  12.820  17.932  0.00  0.00    +0.000 OA
ATOM     13  C   UNL     1       1.904  11.501  18.229  0.00  0.00    +0.000 A 
ATOM     14  C   UNL     1       2.548  10.468  17.553  0.00  0.00    +0.000 A 
ATOM     15  C   UNL     1       2.347   9.166  18.013  0.00  0.00    +0.000 A 
ATOM     16  O   UNL     1       3.092   8.138  17.448  0.00  0.00    +0.000 OA
ATOM     17  C   UNL     1       3.110   6.924  18.144  0.00  0.00    +0.000 A 
ATOM     18  C   UNL     1       3.778   5.754  17.527  0.00  0.00    +0.000 A 
ATOM     19  O   UNL     1       4.519   5.823  16.565  0.00  0.00    +0.000 OA
ATOM     20  C   UNL     1       3.411   4.457  18.121  0.00  0.00    +0.000 A 
ATOM     21  C   UNL     1       2.947   3.398  17.355  0.00  0.00    +0.000 A 
ATOM     22  C   UNL     1       2.556   2.218  17.999  0.00  0.00    +0.000 A 
ATOM     23  C   UNL     1       2.774   2.055  19.371  0.00  0.00    +0.000 A 
ATOM     24  C   UNL     1       3.175   3.138  20.139  0.00  0.00    +0.000 A 
ATOM     25  C   UNL     1       3.290   4.372  19.502  0.00  0.00    +0.000 A 
ATOM     26  C   UNL     1       2.590   5.510  20.121  0.00  0.00    +0.000 A 
ATOM     27  O   UNL     1       2.039   5.411  21.213  0.00  0.00    +0.000 OA
ATOM     28  C   UNL     1       2.417   6.732  19.281  0.00  0.00    +0.000 A 
ATOM     29  N   UNL     1       1.506   7.655  19.713  0.00  0.00    +0.000 N 
ATOM     30  C   UNL     1       1.458   8.897  19.085  0.00  0.00    +0.000 A 
ATOM     31  C   UNL     1       0.724   9.918  19.660  0.00  0.00    +0.000 A 
ATOM     32  C   UNL     1       1.027  11.220  19.306  0.00  0.00    +0.000 A 
ATOM     33  N   UNL     1       0.547  12.279  20.089  0.00  0.00    +0.000 N 
ATOM     34  C   UNL     1       1.334  13.416  20.067  0.00  0.00    +0.000 A 
ATOM     35  H   UNL     1       0.825   7.362  20.405  0.00  0.00    +0.000 HD
ATOM     36  H   UNL     1       0.214  12.040  21.023  0.00  0.00    +0.000 HD
ENDROOT
TORSDOF 0
ENDMDL
MODEL 4
REMARK VINA RESULT:      -8.5      4.203      6.340
REMARK  Name = 
REMARK  0 active torsions:
REMARK  status: ('A' for Active; 'I' for Inactive)
REMARK                            x       y       z     vdW  Elec       q    Type
REMARK                         _______ _______ _______ _____ _____    ______ ____
ROOT
ATOM      1  O   UNL     1       1.145  15.160  22.410  0.00  0.00    +0.000 OA
ATOM      2  C   UNL     1       1.855  15.419  21.440  0.00  0.00    +0.000 A 
ATOM      3  C   UNL     1       2.954  16.363  21.522  0.00  0.00    +0.000 A 
ATOM      4  C   UNL     1       3.324  16.885  22.776  0.00  0.00    +0.000 A 
ATOM      5  C   UNL     1       4.284  17.886  22.848  0.00  0.00    +0.000 A 
ATOM      6  C   UNL     1       4.856  18.384  21.674  0.00  0.00    +0.000 A 
ATOM      7  C   UNL     1       4.539  17.820  20.440  0.00  0.00    +0.000 A 
ATOM      8  C   UNL     1       3.621  16.765  20.376  0.00  0.00    +0.000 A 
ATOM      9  C   UNL     1       3.410  16.029  19.103  0.00  0.00    +0.000 A 
ATOM     10  O   UNL     1       4.014  16.359  18.082  0.00  0.00    +0.000 OA
ATOM     11  C   UNL     1       2.500  14.868  19.124  0.00  0.00    +0.000 A 
ATOM     12  O   UNL     1       2.548  13.926  18.077  0.00  0.00    +0.000 OA
ATOM     13  C   UNL     1       2.021  12.674  18.380  0.00  0.00    +0.000 A 
ATOM     14  C   UNL     1       2.536  11.547  17.746  0.00  0.00    +0.000 A 
ATOM     15  C   UNL     1       2.132  10.297  18.217  0.00  0.00    +0.000 A 
ATOM     16  O   UNL     1       2.744   9.161  17.698  0.00  0.00    +0.000 OA
ATOM     17  C   UNL     1       2.561   7.972  18.413  0.00  0.00    +0.000 A 
ATOM     18  C   UNL     1       3.079   6.706  17.841  0.00  0.00    +0.000 A 
ATOM     19  O   UNL     1       3.858   6.649  16.909  0.00  0.00    +0.000 OA
ATOM     20  C   UNL     1       2.507   5.487  18.439  0.00  0.00    +0.000 A 
ATOM     21  C   UNL     1       1.926   4.489  17.670  0.00  0.00    +0.000 A 
ATOM     22  C   UNL     1       1.346   3.391  18.316  0.00  0.00    +0.000 A 
ATOM     23  C   UNL     1       1.486   3.226  19.699  0.00  0.00    +0.000 A 
ATOM     24  C   UNL     1       2.008   4.257  20.466  0.00  0.00    +0.000 A 
ATOM     25  C   UNL     1       2.323   5.448  19.815  0.00  0.00    +0.000 A 
ATOM     26  C   UNL     1       1.770   6.687  20.387  0.00  0.00    +0.000 A 
ATOM     27  O   UNL     1       1.169   6.690  21.458  0.00  0.00    +0.000 OA
ATOM     28  C   UNL     1       1.806   7.903  19.523  0.00  0.00    +0.000 A 
ATOM     29  N   UNL     1       1.020   8.956  19.904  0.00  0.00    +0.000 N 
ATOM     30  C   UNL     1       1.174  10.179  19.256  0.00  0.00    +0.000 A 
ATOM     31  C   UNL     1       0.572  11.305  19.785  0.00  0.00    +0.000 A 
ATOM     32  C   UNL     1       1.072  12.544  19.424  0.00  0.00    +0.000 A 
ATOM     33  N   UNL     1       0.719  13.676  20.171  0.00  0.00    +0.000 N 
ATOM     34  C   UNL     1       1.660  14.688  20.164  0.00  0.00    +0.000 A 
ATOM     35  H   UNL     1       0.278   8.777  20.572  0.00  0.00    +0.000 HD
ATOM     36  H   UNL     1       0.320  13.506  21.095  0.00  0.00    +0.000 HD
ENDROOT
TORSDOF 0
ENDMDL
MODEL 5
REMARK VINA RESULT:      -8.4      7.258      8.926
REMARK  Name = 
REMARK  0 active torsions:
REMARK  status: ('A' for Active; 'I' for Inactive)
REMARK                            x       y       z     vdW  Elec       q    Type
REMARK                         _______ _______ _______ _____ _____    ______ ____
ROOT
ATOM      1  O   UNL     1       1.499  10.603  18.717  0.00  0.00    +0.000 OA
ATOM      2  C   UNL     1       1.161  11.425  19.567  0.00  0.00    +0.000 A 
ATOM      3  C   UNL     1       0.484  11.033  20.789  0.00  0.00    +0.000 A 
ATOM      4  C   UNL     1       0.344   9.665  21.093  0.00  0.00    +0.000 A 
ATOM      5  C   UNL     1      -0.415   9.279  22.189  0.00  0.00    +0.000 A 
ATOM      6  C   UNL     1      -1.054  10.249  22.968  0.00  0.00    +0.000 A 
ATOM      7  C   UNL     1      -0.859  11.603  22.706  0.00  0.00    +0.000 A 
ATOM      8  C   UNL     1      -0.038  11.993  21.641  0.00  0.00    +0.000 A 
ATOM      9  C   UNL     1       0.331  13.420  21.460  0.00  0.00    +0.000 A 
ATOM     10  O   UNL     1      -0.106  14.282  22.224  0.00  0.00    +0.000 OA
ATOM     11  C   UNL     1       1.274  13.752  20.375  0.00  0.00    +0.000 A 
ATOM     12  O   UNL     1       1.941  14.994  20.388  0.00  0.00    +0.000 OA
ATOM     13  C   UNL     1       3.108  15.049  19.631  0.00  0.00    +0.000 A 
ATOM     14  C   UNL     1       4.135  15.903  20.023  0.00  0.00    +0.000 A 
ATOM     15  C   UNL     1       5.362  15.786  19.368  0.00  0.00    +0.000 A 
ATOM     16  O   UNL     1       6.441  16.524  19.840  0.00  0.00    +0.000 OA
ATOM     17  C   UNL     1       7.707  16.141  19.383  0.00  0.00    +0.000 A 
ATOM     18  C   UNL     1       8.881  16.970  19.748  0.00  0.00    +0.000 A 
ATOM     19  O   UNL     1       8.867  17.828  20.609  0.00  0.00    +0.000 OA
ATOM     20  C   UNL     1      10.075  16.734  18.918  0.00  0.00    +0.000 A 
ATOM     21  C   UNL     1      10.742  17.766  18.273  0.00  0.00    +0.000 A 
ATOM     22  C   UNL     1      11.831  17.456  17.450  0.00  0.00    +0.000 A 
ATOM     23  C   UNL     1      12.333  16.151  17.401  0.00  0.00    +0.000 A 
ATOM     24  C   UNL     1      11.623  15.117  17.994  0.00  0.00    +0.000 A 
ATOM     25  C   UNL     1      10.395  15.428  18.573  0.00  0.00    +0.000 A 
ATOM     26  C   UNL     1       9.240  14.608  18.169  0.00  0.00    +0.000 A 
ATOM     27  O   UNL     1       9.372  13.617  17.458  0.00  0.00    +0.000 OA
ATOM     28  C   UNL     1       7.887  15.140  18.504  0.00  0.00    +0.000 A 
ATOM     29  N   UNL     1       6.822  14.568  17.863  0.00  0.00    +0.000 N 
ATOM     30  C   UNL     1       5.533  14.881  18.290  0.00  0.00    +0.000 A 
ATOM     31  C   UNL     1       4.467  14.134  17.825  0.00  0.00    +0.000 A 
ATOM     32  C   UNL     1       3.295  14.141  18.559  0.00  0.00    +0.000 A 
ATOM     33  N   UNL     1       2.320  13.164  18.314  0.00  0.00    +0.000 N 
ATOM     34  C   UNL     1       1.528  12.853  19.403  0.00  0.00    +0.000 A 
ATOM     35  H   UNL     1       7.008  14.021  17.030  0.00  0.00    +0.000 HD
ATOM     36  H   UNL     1       2.620  12.343  17.788  0.00  0.00    +0.000 HD
ENDROOT
TORSDOF 0
ENDMDL
MODEL 6
REMARK VINA RESULT:      -8.4      8.989     10.943
REMARK  Name = 
REMARK  0 active torsions:
REMARK  status: ('A' for Active; 'I' for Inactive)
REMARK                            x       y       z     vdW  Elec       q    Type
REMARK                         _______ _______ _______ _____ _____    ______ ____
ROOT
ATOM      1  O   UNL     1       5.469   3.139  20.948  0.00  0.00    +0.000 OA
ATOM      2  C   UNL     1       4.751   3.420  19.989  0.00  0.00    +0.000 A 
ATOM      3  C   UNL     1       3.319   3.192  20.008  0.00  0.00    +0.000 A 
ATOM      4  C   UNL     1       2.699   2.786  21.205  0.00  0.00    +0.000 A 
ATOM      5  C   UNL     1       1.355   2.439  21.200  0.00  0.00    +0.000 A 
ATOM      6  C   UNL     1       0.634   2.473  20.002  0.00  0.00    +0.000 A 
ATOM      7  C   UNL     1       1.231   2.939  18.833  0.00  0.00    +0.000 A 
ATOM      8  C   UNL     1       2.568   3.353  18.854  0.00  0.00    +0.000 A 
ATOM      9  C   UNL     1       3.165   4.025  17.672  0.00  0.00    +0.000 A 
ATOM     10  O   UNL     1       2.503   4.197  16.648  0.00  0.00    +0.000 OA
ATOM     11  C   UNL     1       4.550   4.520  17.791  0.00  0.00    +0.000 A 
ATOM     12  O   UNL     1       5.031   5.473  16.870  0.00  0.00    +0.000 OA
ATOM     13  C   UNL     1       6.131   6.209  17.299  0.00  0.00    +0.000 A 
ATOM     14  C   UNL     1       6.304   7.510  16.833  0.00  0.00    +0.000 A 
ATOM     15  C   UNL     1       7.294   8.289  17.433  0.00  0.00    +0.000 A 
ATOM     16  O   UNL     1       7.385   9.632  17.087  0.00  0.00    +0.000 OA
ATOM     17  C   UNL     1       8.150  10.444  17.932  0.00  0.00    +0.000 A 
ATOM     18  C   UNL     1       8.391  11.854  17.544  0.00  0.00    +0.000 A 
ATOM     19  O   UNL     1       7.782  12.432  16.664  0.00  0.00    +0.000 OA
ATOM     20  C   UNL     1       9.505  12.502  18.259  0.00  0.00    +0.000 A 
ATOM     21  C   UNL     1      10.543  13.135  17.591  0.00  0.00    +0.000 A 
ATOM     22  C   UNL     1      11.599  13.671  18.337  0.00  0.00    +0.000 A 
ATOM     23  C   UNL     1      11.534  13.705  19.735  0.00  0.00    +0.000 A 
ATOM     24  C   UNL     1      10.528  13.013  20.394  0.00  0.00    +0.000 A 
ATOM     25  C   UNL     1       9.649  12.261  19.619  0.00  0.00    +0.000 A 
ATOM     26  C   UNL     1       9.452  10.854  20.008  0.00  0.00    +0.000 A 
ATOM     27  O   UNL     1       9.935  10.398  21.040  0.00  0.00    +0.000 OA
ATOM     28  C   UNL     1       8.801   9.962  19.005  0.00  0.00    +0.000 A 
ATOM     29  N   UNL     1       8.905   8.615  19.216  0.00  0.00    +0.000 N 
ATOM     30  C   UNL     1       8.145   7.750  18.431  0.00  0.00    +0.000 A 
ATOM     31  C   UNL     1       8.050   6.419  18.790  0.00  0.00    +0.000 A 
ATOM     32  C   UNL     1       6.982   5.686  18.304  0.00  0.00    +0.000 A 
ATOM     33  N   UNL     1       6.666   4.452  18.890  0.00  0.00    +0.000 N 
ATOM     34  C   UNL     1       5.333   4.096  18.804  0.00  0.00    +0.000 A 
ATOM     35  H   UNL     1       9.613   8.289  19.865  0.00  0.00    +0.000 HD
ATOM     36  H   UNL     1       7.073   4.266  19.807  0.00  0.00    +0.000 HD
ENDROOT
TORSDOF 0
ENDMDL
MODEL 7
REMARK VINA RESULT:      -8.2      7.060      8.606
REMARK  Name = 
REMARK  0 active torsions:
REMARK  status: ('A' for Active; 'I' for Inactive)
REMARK                            x       y       z     vdW  Elec       q    Type
REMARK                         _______ _______ _______ _____ _____    ______ ____
ROOT
ATOM      1  O   UNL     1       0.690  11.167  19.721  0.00  0.00    +0.000 OA
ATOM      2  C   UNL     1       0.275  12.277  20.050  0.00  0.00    +0.000 A 
ATOM      3  C   UNL     1      -0.585  12.465  21.203  0.00  0.00    +0.000 A 
ATOM      4  C   UNL     1      -0.830  11.380  22.066  0.00  0.00    +0.000 A 
ATOM      5  C   UNL     1      -1.753  11.514  23.095  0.00  0.00    +0.000 A 
ATOM      6  C   UNL     1      -2.450  12.717  23.250  0.00  0.00    +0.000 A 
ATOM      7  C   UNL     1      -2.157  13.810  22.438  0.00  0.00    +0.000 A 
ATOM      8  C   UNL     1      -1.177  13.695  21.445  0.00  0.00    +0.000 A 
ATOM      9  C   UNL     1      -0.720  14.893  20.697  0.00  0.00    +0.000 A 
ATOM     10  O   UNL     1      -1.219  15.997  20.917  0.00  0.00    +0.000 OA
ATOM     11  C   UNL     1       0.381  14.720  19.730  0.00  0.00    +0.000 A 
ATOM     12  O   UNL     1       1.097  15.848  19.280  0.00  0.00    +0.000 OA
ATOM     13  C   UNL     1       2.360  15.580  18.759  0.00  0.00    +0.000 A 
ATOM     14  C   UNL     1       3.360  16.543  18.871  0.00  0.00    +0.000 A 
ATOM     15  C   UNL     1       4.660  16.170  18.526  0.00  0.00    +0.000 A 
ATOM     16  O   UNL     1       5.695  17.066  18.768  0.00  0.00    +0.000 OA
ATOM     17  C   UNL     1       6.994  16.546  18.724  0.00  0.00    +0.000 A 
ATOM     18  C   UNL     1       8.142  17.476  18.844  0.00  0.00    +0.000 A 
ATOM     19  O   UNL     1       8.046  18.631  19.214  0.00  0.00    +0.000 OA
ATOM     20  C   UNL     1       9.429  16.918  18.395  0.00  0.00    +0.000 A 
ATOM     21  C   UNL     1      10.227  17.561  17.460  0.00  0.00    +0.000 A 
ATOM     22  C   UNL     1      11.406  16.937  17.035  0.00  0.00    +0.000 A 
ATOM     23  C   UNL     1      11.849  15.762  17.653  0.00  0.00    +0.000 A 
ATOM     24  C   UNL     1      11.015  15.092  18.537  0.00  0.00    +0.000 A 
ATOM     25  C   UNL     1       9.733  15.604  18.726  0.00  0.00    +0.000 A 
ATOM     26  C   UNL     1       8.610  14.665  18.570  0.00  0.00    +0.000 A 
ATOM     27  O   UNL     1       8.794  13.462  18.410  0.00  0.00    +0.000 OA
ATOM     28  C   UNL     1       7.249  15.260  18.427  0.00  0.00    +0.000 A 
ATOM     29  N   UNL     1       6.260  14.436  17.964  0.00  0.00    +0.000 N 
ATOM     30  C   UNL     1       4.940  14.879  18.010  0.00  0.00    +0.000 A 
ATOM     31  C   UNL     1       3.916  13.979  17.780  0.00  0.00    +0.000 A 
ATOM     32  C   UNL     1       2.654  14.291  18.252  0.00  0.00    +0.000 A 
ATOM     33  N   UNL     1       1.678  13.287  18.333  0.00  0.00    +0.000 N 
ATOM     34  C   UNL     1       0.728  13.484  19.316  0.00  0.00    +0.000 A 
ATOM     35  H   UNL     1       6.536  13.575  17.504  0.00  0.00    +0.000 HD
ATOM     36  H   UNL     1       2.011  12.324  18.284  0.00  0.00    +0.000 HD
ENDROOT
TORSDOF 0
ENDMDL
MODEL 8
REMARK VINA RESULT:      -8.1      9.300     11.945
REMARK  Name = 
REMARK  0 active torsions:
REMARK  status: ('A' for Active; 'I' for Inactive)
REMARK                            x       y       z     vdW  Elec       q    Type
REMARK                         _______ _______ _______ _____ _____    ______ ____
ROOT
ATOM      1  O   UNL     1       7.104   5.173  20.297  0.00  0.00    +0.000 OA
ATOM      2  C   UNL     1       6.655   5.525  19.207  0.00  0.00    +0.000 A 
ATOM      3  C   UNL     1       5.378   5.047  18.711  0.00  0.00    +0.000 A 
ATOM      4  C   UNL     1       4.551   4.285  19.557  0.00  0.00    +0.000 A 
ATOM      5  C   UNL     1       3.391   3.713  19.050  0.00  0.00    +0.000 A 
ATOM      6  C   UNL     1       3.067   3.879  17.700  0.00  0.00    +0.000 A 
ATOM      7  C   UNL     1       3.852   4.689  16.882  0.00  0.00    +0.000 A 
ATOM      8  C   UNL     1       4.984   5.320  17.410  0.00  0.00    +0.000 A 
ATOM      9  C   UNL     1       5.723   6.330  16.612  0.00  0.00    +0.000 A 
ATOM     10  O   UNL     1       5.370   6.601  15.464  0.00  0.00    +0.000 OA
ATOM     11  C   UNL     1       6.851   7.026  17.260  0.00  0.00    +0.000 A 
ATOM     12  O   UNL     1       7.339   8.228  16.708  0.00  0.00    +0.000 OA
ATOM     13  C   UNL     1       8.055   9.037  17.585  0.00  0.00    +0.000 A 
ATOM     14  C   UNL     1       8.040  10.418  17.404  0.00  0.00    +0.000 A 
ATOM     15  C   UNL     1       8.594  11.210  18.411  0.00  0.00    +0.000 A 
ATOM     16  O   UNL     1       8.459  12.590  18.322  0.00  0.00    +0.000 OA
ATOM     17  C   UNL     1       8.724  13.321  19.486  0.00  0.00    +0.000 A 
ATOM     18  C   UNL     1       8.724  14.801  19.418  0.00  0.00    +0.000 A 
ATOM     19  O   UNL     1       8.280  15.440  18.482  0.00  0.00    +0.000 OA
ATOM     20  C   UNL     1       9.389  15.464  20.552  0.00  0.00    +0.000 A 
ATOM     21  C   UNL     1      10.395  16.403  20.373  0.00  0.00    +0.000 A 
ATOM     22  C   UNL     1      11.024  16.942  21.501  0.00  0.00    +0.000 A 
ATOM     23  C   UNL     1      10.545  16.656  22.785  0.00  0.00    +0.000 A 
ATOM     24  C   UNL     1       9.586  15.669  22.958  0.00  0.00    +0.000 A 
ATOM     25  C   UNL     1       9.180  14.960  21.829  0.00  0.00    +0.000 A 
ATOM     26  C   UNL     1       9.220  13.491  21.914  0.00  0.00    +0.000 A 
ATOM     27  O   UNL     1       9.473  12.913  22.967  0.00  0.00    +0.000 OA
ATOM     28  C   UNL     1       9.126  12.739  20.629  0.00  0.00    +0.000 A 
ATOM     29  N   UNL     1       9.483  11.419  20.658  0.00  0.00    +0.000 N 
ATOM     30  C   UNL     1       9.217  10.626  19.543  0.00  0.00    +0.000 A 
ATOM     31  C   UNL     1       9.342   9.253  19.645  0.00  0.00    +0.000 A 
ATOM     32  C   UNL     1       8.672   8.466  18.726  0.00  0.00    +0.000 A 
ATOM     33  N   UNL     1       8.503   7.098  18.980  0.00  0.00    +0.000 N 
ATOM     34  C   UNL     1       7.380   6.538  18.401  0.00  0.00    +0.000 A 
ATOM     35  H   UNL     1      10.026  11.091  21.449  0.00  0.00    +0.000 HD
ATOM     36  H   UNL     1       8.654   6.791  19.941  0.00  0.00    +0.000 HD
ENDROOT
TORSDOF 0
ENDMDL
MODEL 9
REMARK VINA RESULT:      -8.1      5.720     10.675
REMARK  Name = 
REMARK  0 active torsions:
REMARK  status: ('A' for Active; 'I' for Inactive)
REMARK                            x       y       z     vdW  Elec       q    Type
REMARK                         _______ _______ _______ _____ _____    ______ ____
ROOT
ATOM      1  O   UNL     1       7.801  15.032  21.856  0.00  0.00    +0.000 OA
ATOM      2  C   UNL     1       7.810  14.602  20.703  0.00  0.00    +0.000 A 
ATOM      3  C   UNL     1       8.861  13.729  20.216  0.00  0.00    +0.000 A 
ATOM      4  C   UNL     1       9.816  13.228  21.121  0.00  0.00    +0.000 A 
ATOM      5  C   UNL     1      10.900  12.501  20.644  0.00  0.00    +0.000 A 
ATOM      6  C   UNL     1      11.046  12.295  19.268  0.00  0.00    +0.000 A 
ATOM      7  C   UNL     1      10.065  12.733  18.382  0.00  0.00    +0.000 A 
ATOM      8  C   UNL     1       8.939  13.407  18.870  0.00  0.00    +0.000 A 
ATOM      9  C   UNL     1       7.799  13.716  17.971  0.00  0.00    +0.000 A 
ATOM     10  O   UNL     1       7.843  13.414  16.778  0.00  0.00    +0.000 OA
ATOM     11  C   UNL     1       6.604  14.343  18.567  0.00  0.00    +0.000 A 
ATOM     12  O   UNL     1       5.380  14.316  17.868  0.00  0.00    +0.000 OA
ATOM     13  C   UNL     1       4.245  14.500  18.652  0.00  0.00    +0.000 A 
ATOM     14  C   UNL     1       3.047  13.904  18.267  0.00  0.00    +0.000 A 
ATOM     15  C   UNL     1       1.986  13.936  19.173  0.00  0.00    +0.000 A 
ATOM     16  O   UNL     1       0.832  13.222  18.871  0.00  0.00    +0.000 OA
ATOM     17  C   UNL     1      -0.062  13.006  19.925  0.00  0.00    +0.000 A 
ATOM     18  C   UNL     1      -1.368  12.366  19.637  0.00  0.00    +0.000 A 
ATOM     19  O   UNL     1      -1.632  11.798  18.595  0.00  0.00    +0.000 OA
ATOM     20  C   UNL     1      -2.379  12.539  20.694  0.00  0.00    +0.000 A 
ATOM     21  C   UNL     1      -3.644  13.046  20.431  0.00  0.00    +0.000 A 
ATOM     22  C   UNL     1      -4.528  13.243  21.498  0.00  0.00    +0.000 A 
ATOM     23  C   UNL     1      -4.201  12.794  22.782  0.00  0.00    +0.000 A 
ATOM     24  C   UNL     1      -2.913  12.350  23.050  0.00  0.00    +0.000 A 
ATOM     25  C   UNL     1      -1.979  12.427  22.019  0.00  0.00    +0.000 A 
ATOM     26  C   UNL     1      -0.703  13.096  22.325  0.00  0.00    +0.000 A 
ATOM     27  O   UNL     1      -0.420  13.454  23.464  0.00  0.00    +0.000 OA
ATOM     28  C   UNL     1       0.147  13.488  21.162  0.00  0.00    +0.000 A 
ATOM     29  N   UNL     1       1.155  14.380  21.407  0.00  0.00    +0.000 N 
ATOM     30  C   UNL     1       2.099  14.618  20.411  0.00  0.00    +0.000 A 
ATOM     31  C   UNL     1       3.250  15.318  20.723  0.00  0.00    +0.000 A 
ATOM     32  C   UNL     1       4.349  15.169  19.897  0.00  0.00    +0.000 A 
ATOM     33  N   UNL     1       5.611  15.589  20.343  0.00  0.00    +0.000 N 
ATOM     34  C   UNL     1       6.675  14.898  19.795  0.00  0.00    +0.000 A 
ATOM     35  H   UNL     1       1.115  14.918  22.267  0.00  0.00    +0.000 HD
ATOM     36  H   UNL     1       5.709  15.748  21.346  0.00  0.00    +0.000 HD
ENDROOT
TORSDOF 0
ENDMDL
