MODEL 1
REMARK VINA RESULT:      -8.8      0.000      0.000
REMARK  Name = 
REMARK  6 active torsions:
REMARK  status: ('A' for Active; 'I' for Inactive)
REMARK    1  A    between atoms: C_5  and  C_6
REMARK    2  A    between atoms: C_9  and  N_10
REMARK    3  A    between atoms: C_11  and  C_13
REMARK    4  A    between atoms: C_13  and  C_14
REMARK    5  A    between atoms: C_14  and  N_15
REMARK    6  A    between atoms: C_18  and  C_19
REMARK                            x       y       z     vdW  Elec       q    Type
REMARK                         _______ _______ _______ _____ _____    ______ ____
ROOT
ATOM      1  N   UNL     1       8.745   8.475  19.071  0.00  0.00    +0.000 N 
ATOM      2  C   UNL     1       8.009   7.721  18.175  0.00  0.00    +0.000 C 
ATOM      3  O   UNL     1       7.584   8.096  17.086  0.00  0.00    +0.000 OA
ATOM      4  H   UNL     1       9.211   7.979  19.821  0.00  0.00    +0.000 HD
ENDROOT
BRANCH   1   8
ATOM      5  C   UNL     1       9.776  12.537  18.702  0.00  0.00    +0.000 A 
ATOM      6  C   UNL     1       8.925  11.958  17.762  0.00  0.00    +0.000 A 
ATOM      7  C   UNL     1       8.563  10.619  17.883  0.00  0.00    +0.000 A 
ATOM      8  C   UNL     1       9.045   9.842  18.937  0.00  0.00    +0.000 A 
ATOM      9  C   UNL     1       9.865  10.436  19.903  0.00  0.00    +0.000 A 
ATOM     10  C   UNL     1      10.249  11.775  19.775  0.00  0.00    +0.000 A 
BRANCH   5  15
ATOM     11  O   UNL     1      11.388  17.769  18.166  0.00  0.00    +0.000 OA
ATOM     12  C   UNL     1      10.967  16.616  18.193  0.00  0.00    +0.000 C 
ATOM     13  C   UNL     1      10.919  15.750  16.970  0.00  0.00    +0.000 C 
ATOM     14  C   UNL     1      11.028  14.284  17.312  0.00  0.00    +0.000 C 
ATOM     15  C   UNL     1      10.216  13.946  18.537  0.00  0.00    +0.000 C 
ATOM     16  N   UNL     1       9.953  14.805  19.473  0.00  0.00    +0.000 NA
ATOM     17  N   UNL     1      10.421  16.074  19.329  0.00  0.00    +0.000 N 
ATOM     18  H   UNL     1      10.366  16.672  20.147  0.00  0.00    +0.000 HD
ENDBRANCH   5  15
ENDBRANCH   1   8
BRANCH   2  19
ATOM     19  C   UNL     1       7.761   6.307  18.637  0.00  0.00    +0.000 C 
BRANCH  19  20
ATOM     20  C   UNL     1       7.332   5.440  17.457  0.00  0.00    +0.000 C 
BRANCH  20  21
ATOM     21  N   UNL     1       6.105   4.652  17.700  0.00  0.00    +0.000 NA
ATOM     22  C   UNL     1       5.732   4.807  19.117  0.00  0.00    +0.000 C 
ATOM     23  C   UNL     1       4.382   4.176  19.467  0.00  0.00    +0.000 C 
ATOM     24  C   UNL     1       3.243   4.679  18.564  0.00  0.00    +0.000 C 
ATOM     25  C   UNL     1       3.681   4.429  17.113  0.00  0.00    +0.000 C 
ATOM     26  C   UNL     1       5.022   5.087  16.799  0.00  0.00    +0.000 C 
BRANCH  24  27
ATOM     27  C   UNL     1       2.747   6.106  18.817  0.00  0.00    +0.000 A 
ATOM     28  C   UNL     1       2.200   6.526  20.040  0.00  0.00    +0.000 A 
ATOM     29  C   UNL     1       1.733   7.831  20.222  0.00  0.00    +0.000 A 
ATOM     30  C   UNL     1       1.775   8.740  19.171  0.00  0.00    +0.000 A 
ATOM     31  C   UNL     1       2.289   8.343  17.942  0.00  0.00    +0.000 A 
ATOM     32  C   UNL     1       2.768   7.041  17.766  0.00  0.00    +0.000 A 
ENDBRANCH  24  27
ENDBRANCH  20  21
ENDBRANCH  19  20
ENDBRANCH   2  19
TORSDOF 6
ENDMDL
MODEL 2
REMARK VINA RESULT:      -8.8      0.876      1.099
REMARK  Name = 
REMARK  6 active torsions:
REMARK  status: ('A' for Active; 'I' for Inactive)
REMARK    1  A    between atoms: C_5  and  C_6
REMARK    2  A    between atoms: C_9  and  N_10
REMARK    3  A    between atoms: C_11  and  C_13
REMARK    4  A    between atoms: C_13  and  C_14
REMARK    5  A    between atoms: C_14  and  N_15
REMARK    6  A    between atoms: C_18  and  C_19
REMARK                            x       y       z     vdW  Elec       q    Type
REMARK                         _______ _______ _______ _____ _____    ______ ____
ROOT
ATOM      1  N   UNL     1       8.883   8.631  19.139  0.00  0.00    +0.000 N 
ATOM      2  C   UNL     1       8.087   7.987  18.208  0.00  0.00    +0.000 C 
ATOM      3  O   UNL     1       7.619   8.480  17.185  0.00  0.00    +0.000 OA
ATOM      4  H   UNL     1       9.371   8.052  19.811  0.00  0.00    +0.000 HD
ENDROOT
BRANCH   1   8
ATOM      5  C   UNL     1       9.963  12.697  19.201  0.00  0.00    +0.000 A 
ATOM      6  C   UNL     1       9.701  12.077  17.981  0.00  0.00    +0.000 A 
ATOM      7  C   UNL     1       9.325  10.736  17.948  0.00  0.00    +0.000 A 
ATOM      8  C   UNL     1       9.211   9.999  19.128  0.00  0.00    +0.000 A 
ATOM      9  C   UNL     1       9.434  10.634  20.354  0.00  0.00    +0.000 A 
ATOM     10  C   UNL     1       9.831  11.975  20.391  0.00  0.00    +0.000 A 
BRANCH   5  15
ATOM     11  O   UNL     1      11.676  17.924  19.241  0.00  0.00    +0.000 OA
ATOM     12  C   UNL     1      11.384  16.732  19.293  0.00  0.00    +0.000 C 
ATOM     13  C   UNL     1      11.449  15.945  20.568  0.00  0.00    +0.000 C 
ATOM     14  C   UNL     1      10.469  14.798  20.573  0.00  0.00    +0.000 C 
ATOM     15  C   UNL     1      10.427  14.107  19.233  0.00  0.00    +0.000 C 
ATOM     16  N   UNL     1      10.707  14.707  18.116  0.00  0.00    +0.000 NA
ATOM     17  N   UNL     1      11.069  16.017  18.165  0.00  0.00    +0.000 N 
ATOM     18  H   UNL     1      11.101  16.511  17.280  0.00  0.00    +0.000 HD
ENDBRANCH   5  15
ENDBRANCH   1   8
BRANCH   2  19
ATOM     19  C   UNL     1       7.825   6.539  18.538  0.00  0.00    +0.000 C 
BRANCH  19  20
ATOM     20  C   UNL     1       7.203   5.835  17.335  0.00  0.00    +0.000 C 
BRANCH  20  21
ATOM     21  N   UNL     1       6.026   5.002  17.665  0.00  0.00    +0.000 NA
ATOM     22  C   UNL     1       5.710   5.195  19.091  0.00  0.00    +0.000 C 
ATOM     23  C   UNL     1       4.409   4.518  19.527  0.00  0.00    +0.000 C 
ATOM     24  C   UNL     1       3.208   4.933  18.660  0.00  0.00    +0.000 C 
ATOM     25  C   UNL     1       3.592   4.647  17.200  0.00  0.00    +0.000 C 
ATOM     26  C   UNL     1       4.886   5.352  16.800  0.00  0.00    +0.000 C 
BRANCH  24  27
ATOM     27  C   UNL     1       2.658   6.344  18.882  0.00  0.00    +0.000 A 
ATOM     28  C   UNL     1       2.190   6.802  20.125  0.00  0.00    +0.000 A 
ATOM     29  C   UNL     1       1.669   8.089  20.281  0.00  0.00    +0.000 A 
ATOM     30  C   UNL     1       1.575   8.942  19.186  0.00  0.00    +0.000 A 
ATOM     31  C   UNL     1       2.008   8.506  17.940  0.00  0.00    +0.000 A 
ATOM     32  C   UNL     1       2.541   7.221  17.789  0.00  0.00    +0.000 A 
ENDBRANCH  24  27
ENDBRANCH  20  21
ENDBRANCH  19  20
ENDBRANCH   2  19
TORSDOF 6
ENDMDL
MODEL 3
REMARK VINA RESULT:      -8.6      1.337      2.290
REMARK  Name = 
REMARK  6 active torsions:
REMARK  status: ('A' for Active; 'I' for Inactive)
REMARK    1  A    between atoms: C_5  and  C_6
REMARK    2  A    between atoms: C_9  and  N_10
REMARK    3  A    between atoms: C_11  and  C_13
REMARK    4  A    between atoms: C_13  and  C_14
REMARK    5  A    between atoms: C_14  and  N_15
REMARK    6  A    between atoms: C_18  and  C_19
REMARK                            x       y       z     vdW  Elec       q    Type
REMARK                         _______ _______ _______ _____ _____    ______ ____
ROOT
ATOM      1  N   UNL     1       8.626   8.639  19.107  0.00  0.00    +0.000 N 
ATOM      2  C   UNL     1       8.109   7.754  18.178  0.00  0.00    +0.000 C 
ATOM      3  O   UNL     1       7.962   7.965  16.977  0.00  0.00    +0.000 OA
ATOM      4  H   UNL     1       8.892   8.261  20.009  0.00  0.00    +0.000 HD
ENDROOT
BRANCH   1   8
ATOM      5  C   UNL     1       9.812  12.606  18.361  0.00  0.00    +0.000 A 
ATOM      6  C   UNL     1       8.746  12.063  17.645  0.00  0.00    +0.000 A 
ATOM      7  C   UNL     1       8.333  10.757  17.895  0.00  0.00    +0.000 A 
ATOM      8  C   UNL     1       8.978   9.977  18.856  0.00  0.00    +0.000 A 
ATOM      9  C   UNL     1      10.020  10.537  19.603  0.00  0.00    +0.000 A 
ATOM     10  C   UNL     1      10.452  11.842  19.342  0.00  0.00    +0.000 A 
BRANCH   5  15
ATOM     11  O   UNL     1      11.533  17.703  17.216  0.00  0.00    +0.000 OA
ATOM     12  C   UNL     1      11.200  16.532  17.378  0.00  0.00    +0.000 C 
ATOM     13  C   UNL     1      12.158  15.393  17.199  0.00  0.00    +0.000 C 
ATOM     14  C   UNL     1      11.787  14.204  18.050  0.00  0.00    +0.000 C 
ATOM     15  C   UNL     1      10.296  13.974  18.050  0.00  0.00    +0.000 C 
ATOM     16  N   UNL     1       9.432  14.924  17.862  0.00  0.00    +0.000 NA
ATOM     17  N   UNL     1       9.899  16.182  17.641  0.00  0.00    +0.000 N 
ATOM     18  H   UNL     1       9.217  16.932  17.683  0.00  0.00    +0.000 HD
ENDBRANCH   5  15
ENDBRANCH   1   8
BRANCH   2  19
ATOM     19  C   UNL     1       7.729   6.417  18.763  0.00  0.00    +0.000 C 
BRANCH  19  20
ATOM     20  C   UNL     1       7.406   5.431  17.644  0.00  0.00    +0.000 C 
BRANCH  20  21
ATOM     21  N   UNL     1       6.020   5.524  17.138  0.00  0.00    +0.000 NA
ATOM     22  C   UNL     1       5.502   4.157  16.959  0.00  0.00    +0.000 C 
ATOM     23  C   UNL     1       4.016   4.107  16.597  0.00  0.00    +0.000 C 
ATOM     24  C   UNL     1       3.138   4.876  17.600  0.00  0.00    +0.000 C 
ATOM     25  C   UNL     1       3.704   6.302  17.685  0.00  0.00    +0.000 C 
ATOM     26  C   UNL     1       5.183   6.309  18.063  0.00  0.00    +0.000 C 
BRANCH  24  27
ATOM     27  C   UNL     1       2.923   4.220  18.966  0.00  0.00    +0.000 A 
ATOM     28  C   UNL     1       2.344   4.887  20.059  0.00  0.00    +0.000 A 
ATOM     29  C   UNL     1       2.191   4.262  21.299  0.00  0.00    +0.000 A 
ATOM     30  C   UNL     1       2.642   2.960  21.485  0.00  0.00    +0.000 A 
ATOM     31  C   UNL     1       3.241   2.285  20.428  0.00  0.00    +0.000 A 
ATOM     32  C   UNL     1       3.382   2.908  19.184  0.00  0.00    +0.000 A 
ENDBRANCH  24  27
ENDBRANCH  20  21
ENDBRANCH  19  20
ENDBRANCH   2  19
TORSDOF 6
ENDMDL
MODEL 4
REMARK VINA RESULT:      -8.5      7.116     11.192
REMARK  Name = 
REMARK  6 active torsions:
REMARK  status: ('A' for Active; 'I' for Inactive)
REMARK    1  A    between atoms: C_5  and  C_6
REMARK    2  A    between atoms: C_9  and  N_10
REMARK    3  A    between atoms: C_11  and  C_13
REMARK    4  A    between atoms: C_13  and  C_14
REMARK    5  A    between atoms: C_14  and  N_15
REMARK    6  A    between atoms: C_18  and  C_19
REMARK                            x       y       z     vdW  Elec       q    Type
REMARK                         _______ _______ _______ _____ _____    ______ ____
ROOT
ATOM      1  N   UNL     1       0.708  10.688  19.097  0.00  0.00    +0.000 N 
ATOM      2  C   UNL     1      -0.484  11.005  18.469  0.00  0.00    +0.000 C 
ATOM      3  O   UNL     1      -1.319  10.208  18.050  0.00  0.00    +0.000 OA
ATOM      4  H   UNL     1       1.190  11.436  19.581  0.00  0.00    +0.000 HD
ENDROOT
BRANCH   1   8
ATOM      5  C   UNL     1       2.357   6.844  19.551  0.00  0.00    +0.000 A 
ATOM      6  C   UNL     1       1.699   7.439  20.627  0.00  0.00    +0.000 A 
ATOM      7  C   UNL     1       1.134   8.703  20.484  0.00  0.00    +0.000 A 
ATOM      8  C   UNL     1       1.221   9.390  19.272  0.00  0.00    +0.000 A 
ATOM      9  C   UNL     1       1.844   8.774  18.182  0.00  0.00    +0.000 A 
ATOM     10  C   UNL     1       2.431   7.512  18.326  0.00  0.00    +0.000 A 
BRANCH   5  15
ATOM     11  O   UNL     1       4.865   1.985  20.147  0.00  0.00    +0.000 OA
ATOM     12  C   UNL     1       4.218   3.014  19.971  0.00  0.00    +0.000 C 
ATOM     13  C   UNL     1       2.773   3.128  20.355  0.00  0.00    +0.000 C 
ATOM     14  C   UNL     1       2.388   4.549  20.685  0.00  0.00    +0.000 C 
ATOM     15  C   UNL     1       3.017   5.525  19.722  0.00  0.00    +0.000 C 
ATOM     16  N   UNL     1       4.132   5.290  19.102  0.00  0.00    +0.000 NA
ATOM     17  N   UNL     1       4.751   4.099  19.323  0.00  0.00    +0.000 N 
ATOM     18  H   UNL     1       5.702   4.013  18.980  0.00  0.00    +0.000 HD
ENDBRANCH   5  15
ENDBRANCH   1   8
BRANCH   2  19
ATOM     19  C   UNL     1      -0.721  12.488  18.339  0.00  0.00    +0.000 C 
BRANCH  19  20
ATOM     20  C   UNL     1      -0.741  13.136  19.720  0.00  0.00    +0.000 C 
BRANCH  20  21
ATOM     21  N   UNL     1      -1.609  12.445  20.699  0.00  0.00    +0.000 NA
ATOM     22  C   UNL     1      -0.858  12.298  21.958  0.00  0.00    +0.000 C 
ATOM     23  C   UNL     1      -1.698  11.747  23.112  0.00  0.00    +0.000 C 
ATOM     24  C   UNL     1      -2.978  12.565  23.354  0.00  0.00    +0.000 C 
ATOM     25  C   UNL     1      -3.730  12.621  22.016  0.00  0.00    +0.000 C 
ATOM     26  C   UNL     1      -2.865  13.191  20.896  0.00  0.00    +0.000 C 
BRANCH  24  27
ATOM     27  C   UNL     1      -2.800  13.935  24.015  0.00  0.00    +0.000 A 
ATOM     28  C   UNL     1      -3.876  14.771  24.356  0.00  0.00    +0.000 A 
ATOM     29  C   UNL     1      -3.671  16.028  24.932  0.00  0.00    +0.000 A 
ATOM     30  C   UNL     1      -2.379  16.492  25.153  0.00  0.00    +0.000 A 
ATOM     31  C   UNL     1      -1.295  15.695  24.802  0.00  0.00    +0.000 A 
ATOM     32  C   UNL     1      -1.503  14.432  24.238  0.00  0.00    +0.000 A 
ENDBRANCH  24  27
ENDBRANCH  20  21
ENDBRANCH  19  20
ENDBRANCH   2  19
TORSDOF 6
ENDMDL
MODEL 5
REMARK VINA RESULT:      -8.5      1.554      2.455
REMARK  Name = 
REMARK  6 active torsions:
REMARK  status: ('A' for Active; 'I' for Inactive)
REMARK    1  A    between atoms: C_5  and  C_6
REMARK    2  A    between atoms: C_9  and  N_10
REMARK    3  A    between atoms: C_11  and  C_13
REMARK    4  A    between atoms: C_13  and  C_14
REMARK    5  A    between atoms: C_14  and  N_15
REMARK    6  A    between atoms: C_18  and  C_19
REMARK                            x       y       z     vdW  Elec       q    Type
REMARK                         _______ _______ _______ _____ _____    ______ ____
ROOT
ATOM      1  N   UNL     1       8.935   8.552  19.029  0.00  0.00    +0.000 N 
ATOM      2  C   UNL     1       8.119   7.805  18.199  0.00  0.00    +0.000 C 
ATOM      3  O   UNL     1       7.437   8.234  17.272  0.00  0.00    +0.000 OA
ATOM      4  H   UNL     1       9.599   8.046  19.603  0.00  0.00    +0.000 HD
ENDROOT
BRANCH   1   8
ATOM      5  C   UNL     1       9.387  12.734  19.083  0.00  0.00    +0.000 A 
ATOM      6  C   UNL     1       9.019  12.100  17.897  0.00  0.00    +0.000 A 
ATOM      7  C   UNL     1       8.849  10.718  17.871  0.00  0.00    +0.000 A 
ATOM      8  C   UNL     1       9.048   9.954  19.022  0.00  0.00    +0.000 A 
ATOM      9  C   UNL     1       9.377  10.596  20.220  0.00  0.00    +0.000 A 
ATOM     10  C   UNL     1       9.568  11.982  20.247  0.00  0.00    +0.000 A 
BRANCH   5  15
ATOM     11  O   UNL     1      10.295  18.159  19.055  0.00  0.00    +0.000 OA
ATOM     12  C   UNL     1      10.181  16.939  19.130  0.00  0.00    +0.000 C 
ATOM     13  C   UNL     1      10.270  16.202  20.432  0.00  0.00    +0.000 C 
ATOM     14  C   UNL     1       9.474  14.920  20.412  0.00  0.00    +0.000 C 
ATOM     15  C   UNL     1       9.633  14.199  19.097  0.00  0.00    +0.000 C 
ATOM     16  N   UNL     1       9.899  14.806  17.981  0.00  0.00    +0.000 NA
ATOM     17  N   UNL     1      10.058  16.157  18.009  0.00  0.00    +0.000 N 
ATOM     18  H   UNL     1      10.079  16.628  17.111  0.00  0.00    +0.000 HD
ENDBRANCH   5  15
ENDBRANCH   1   8
BRANCH   2  19
ATOM     19  C   UNL     1       8.130   6.329  18.510  0.00  0.00    +0.000 C 
BRANCH  19  20
ATOM     20  C   UNL     1       6.772   5.902  19.059  0.00  0.00    +0.000 C 
BRANCH  20  21
ATOM     21  N   UNL     1       5.750   5.655  18.019  0.00  0.00    +0.000 NA
ATOM     22  C   UNL     1       5.553   4.200  17.903  0.00  0.00    +0.000 C 
ATOM     23  C   UNL     1       4.398   3.810  16.977  0.00  0.00    +0.000 C 
ATOM     24  C   UNL     1       3.075   4.492  17.364  0.00  0.00    +0.000 C 
ATOM     25  C   UNL     1       3.348   6.003  17.405  0.00  0.00    +0.000 C 
ATOM     26  C   UNL     1       4.495   6.353  18.350  0.00  0.00    +0.000 C 
BRANCH  24  27
ATOM     27  C   UNL     1       2.372   3.963  18.617  0.00  0.00    +0.000 A 
ATOM     28  C   UNL     1       1.784   4.799  19.581  0.00  0.00    +0.000 A 
ATOM     29  C   UNL     1       1.176   4.277  20.727  0.00  0.00    +0.000 A 
ATOM     30  C   UNL     1       1.168   2.905  20.950  0.00  0.00    +0.000 A 
ATOM     31  C   UNL     1       1.764   2.057  20.024  0.00  0.00    +0.000 A 
ATOM     32  C   UNL     1       2.361   2.580  18.872  0.00  0.00    +0.000 A 
ENDBRANCH  24  27
ENDBRANCH  20  21
ENDBRANCH  19  20
ENDBRANCH   2  19
TORSDOF 6
ENDMDL
MODEL 6
REMARK VINA RESULT:      -8.4      6.537      9.002
REMARK  Name = 
REMARK  6 active torsions:
REMARK  status: ('A' for Active; 'I' for Inactive)
REMARK    1  A    between atoms: C_5  and  C_6
REMARK    2  A    between atoms: C_9  and  N_10
REMARK    3  A    between atoms: C_11  and  C_13
REMARK    4  A    between atoms: C_13  and  C_14
REMARK    5  A    between atoms: C_14  and  N_15
REMARK    6  A    between atoms: C_18  and  C_19
REMARK                            x       y       z     vdW  Elec       q    Type
REMARK                         _______ _______ _______ _____ _____    ______ ____
ROOT
ATOM      1  N   UNL     1       1.482   8.202  21.518  0.00  0.00    +0.000 N 
ATOM      2  C   UNL     1       1.867   7.726  20.277  0.00  0.00    +0.000 C 
ATOM      3  O   UNL     1       1.699   8.290  19.199  0.00  0.00    +0.000 OA
ATOM      4  H   UNL     1       1.874   7.743  22.332  0.00  0.00    +0.000 HD
ENDROOT
BRANCH   1   8
ATOM      5  C   UNL     1      -0.721  11.688  22.352  0.00  0.00    +0.000 A 
ATOM      6  C   UNL     1       0.111  11.654  21.234  0.00  0.00    +0.000 A 
ATOM      7  C   UNL     1       0.832  10.500  20.937  0.00  0.00    +0.000 A 
ATOM      8  C   UNL     1       0.736   9.371  21.752  0.00  0.00    +0.000 A 
ATOM      9  C   UNL     1      -0.130   9.392  22.850  0.00  0.00    +0.000 A 
ATOM     10  C   UNL     1      -0.841  10.556  23.164  0.00  0.00    +0.000 A 
BRANCH   5  15
ATOM     11  O   UNL     1      -3.324  16.337  23.718  0.00  0.00    +0.000 OA
ATOM     12  C   UNL     1      -2.840  15.246  23.426  0.00  0.00    +0.000 C 
ATOM     13  C   UNL     1      -3.510  14.301  22.473  0.00  0.00    +0.000 C 
ATOM     14  C   UNL     1      -2.515  13.416  21.764  0.00  0.00    +0.000 C 
ATOM     15  C   UNL     1      -1.438  12.938  22.706  0.00  0.00    +0.000 C 
ATOM     16  N   UNL     1      -1.069  13.603  23.758  0.00  0.00    +0.000 NA
ATOM     17  N   UNL     1      -1.699  14.778  24.027  0.00  0.00    +0.000 N 
ATOM     18  H   UNL     1      -1.276  15.367  24.737  0.00  0.00    +0.000 HD
ENDBRANCH   5  15
ENDBRANCH   1   8
BRANCH   2  19
ATOM     19  C   UNL     1       2.569   6.393  20.332  0.00  0.00    +0.000 C 
BRANCH  19  20
ATOM     20  C   UNL     1       1.543   5.264  20.344  0.00  0.00    +0.000 C 
BRANCH  20  21
ATOM     21  N   UNL     1       1.951   4.069  19.573  0.00  0.00    +0.000 NA
ATOM     22  C   UNL     1       1.876   4.398  18.139  0.00  0.00    +0.000 C 
ATOM     23  C   UNL     1       2.432   3.300  17.229  0.00  0.00    +0.000 C 
ATOM     24  C   UNL     1       3.869   2.896  17.602  0.00  0.00    +0.000 C 
ATOM     25  C   UNL     1       3.851   2.512  19.090  0.00  0.00    +0.000 C 
ATOM     26  C   UNL     1       3.305   3.637  19.965  0.00  0.00    +0.000 C 
BRANCH  24  27
ATOM     27  C   UNL     1       4.976   3.888  17.240  0.00  0.00    +0.000 A 
ATOM     28  C   UNL     1       5.927   4.353  18.163  0.00  0.00    +0.000 A 
ATOM     29  C   UNL     1       6.906   5.282  17.799  0.00  0.00    +0.000 A 
ATOM     30  C   UNL     1       6.938   5.791  16.506  0.00  0.00    +0.000 A 
ATOM     31  C   UNL     1       5.994   5.367  15.578  0.00  0.00    +0.000 A 
ATOM     32  C   UNL     1       5.023   4.428  15.941  0.00  0.00    +0.000 A 
ENDBRANCH  24  27
ENDBRANCH  20  21
ENDBRANCH  19  20
ENDBRANCH   2  19
TORSDOF 6
ENDMDL
MODEL 7
REMARK VINA RESULT:      -8.4      5.955      7.420
REMARK  Name = 
REMARK  6 active torsions:
REMARK  status: ('A' for Active; 'I' for Inactive)
REMARK    1  A    between atoms: C_5  and  C_6
REMARK    2  A    between atoms: C_9  and  N_10
REMARK    3  A    between atoms: C_11  and  C_13
REMARK    4  A    between atoms: C_13  and  C_14
REMARK    5  A    between atoms: C_14  and  N_15
REMARK    6  A    between atoms: C_18  and  C_19
REMARK                            x       y       z     vdW  Elec       q    Type
REMARK                         _______ _______ _______ _____ _____    ______ ____
ROOT
ATOM      1  N   UNL     1       1.241   7.523  21.045  0.00  0.00    +0.000 N 
ATOM      2  C   UNL     1       2.036   6.590  20.402  0.00  0.00    +0.000 C 
ATOM      3  O   UNL     1       2.748   6.793  19.423  0.00  0.00    +0.000 OA
ATOM      4  H   UNL     1       0.882   7.274  21.959  0.00  0.00    +0.000 HD
ENDROOT
BRANCH   1   8
ATOM      5  C   UNL     1       0.683  11.531  19.896  0.00  0.00    +0.000 A 
ATOM      6  C   UNL     1       1.005  10.580  18.930  0.00  0.00    +0.000 A 
ATOM      7  C   UNL     1       1.175   9.247  19.294  0.00  0.00    +0.000 A 
ATOM      8  C   UNL     1       1.031   8.848  20.624  0.00  0.00    +0.000 A 
ATOM      9  C   UNL     1       0.667   9.796  21.586  0.00  0.00    +0.000 A 
ATOM     10  C   UNL     1       0.514  11.140  21.228  0.00  0.00    +0.000 A 
BRANCH   5  15
ATOM     11  O   UNL     1       0.176  16.823  18.484  0.00  0.00    +0.000 OA
ATOM     12  C   UNL     1       0.379  15.637  18.732  0.00  0.00    +0.000 C 
ATOM     13  C   UNL     1       1.745  15.107  19.050  0.00  0.00    +0.000 C 
ATOM     14  C   UNL     1       1.683  13.887  19.937  0.00  0.00    +0.000 C 
ATOM     15  C   UNL     1       0.566  12.963  19.520  0.00  0.00    +0.000 C 
ATOM     16  N   UNL     1      -0.508  13.374  18.920  0.00  0.00    +0.000 NA
ATOM     17  N   UNL     1      -0.619  14.701  18.641  0.00  0.00    +0.000 N 
ATOM     18  H   UNL     1      -1.534  15.025  18.345  0.00  0.00    +0.000 HD
ENDBRANCH   5  15
ENDBRANCH   1   8
BRANCH   2  19
ATOM     19  C   UNL     1       1.985   5.219  21.029  0.00  0.00    +0.000 C 
BRANCH  19  20
ATOM     20  C   UNL     1       1.029   4.323  20.248  0.00  0.00    +0.000 C 
BRANCH  20  21
ATOM     21  N   UNL     1       1.702   3.353  19.357  0.00  0.00    +0.000 NA
ATOM     22  C   UNL     1       1.714   3.912  17.993  0.00  0.00    +0.000 C 
ATOM     23  C   UNL     1       2.530   3.083  16.999  0.00  0.00    +0.000 C 
ATOM     24  C   UNL     1       3.970   2.834  17.479  0.00  0.00    +0.000 C 
ATOM     25  C   UNL     1       3.871   2.200  18.875  0.00  0.00    +0.000 C 
ATOM     26  C   UNL     1       3.064   3.064  19.841  0.00  0.00    +0.000 C 
BRANCH  24  27
ATOM     27  C   UNL     1       4.929   4.026  17.416  0.00  0.00    +0.000 A 
ATOM     28  C   UNL     1       5.630   4.512  18.532  0.00  0.00    +0.000 A 
ATOM     29  C   UNL     1       6.474   5.621  18.438  0.00  0.00    +0.000 A 
ATOM     30  C   UNL     1       6.615   6.291  17.228  0.00  0.00    +0.000 A 
ATOM     31  C   UNL     1       5.915   5.847  16.113  0.00  0.00    +0.000 A 
ATOM     32  C   UNL     1       5.079   4.729  16.206  0.00  0.00    +0.000 A 
ENDBRANCH  24  27
ENDBRANCH  20  21
ENDBRANCH  19  20
ENDBRANCH   2  19
TORSDOF 6
ENDMDL
MODEL 8
REMARK VINA RESULT:      -8.3      6.942     11.300
REMARK  Name = 
REMARK  6 active torsions:
REMARK  status: ('A' for Active; 'I' for Inactive)
REMARK    1  A    between atoms: C_5  and  C_6
REMARK    2  A    between atoms: C_9  and  N_10
REMARK    3  A    between atoms: C_11  and  C_13
REMARK    4  A    between atoms: C_13  and  C_14
REMARK    5  A    between atoms: C_14  and  N_15
REMARK    6  A    between atoms: C_18  and  C_19
REMARK                            x       y       z     vdW  Elec       q    Type
REMARK                         _______ _______ _______ _____ _____    ______ ____
ROOT
ATOM      1  N   UNL     1       0.341  10.753  19.429  0.00  0.00    +0.000 N 
ATOM      2  C   UNL     1       0.546  11.807  20.302  0.00  0.00    +0.000 C 
ATOM      3  O   UNL     1       1.340  11.831  21.239  0.00  0.00    +0.000 OA
ATOM      4  H   UNL     1      -0.179  10.948  18.582  0.00  0.00    +0.000 HD
ENDROOT
BRANCH   1   8
ATOM      5  C   UNL     1       2.231   7.002  19.662  0.00  0.00    +0.000 A 
ATOM      6  C   UNL     1       1.486   7.462  20.747  0.00  0.00    +0.000 A 
ATOM      7  C   UNL     1       0.842   8.694  20.676  0.00  0.00    +0.000 A 
ATOM      8  C   UNL     1       0.935   9.482  19.527  0.00  0.00    +0.000 A 
ATOM      9  C   UNL     1       1.647   9.000  18.424  0.00  0.00    +0.000 A 
ATOM     10  C   UNL     1       2.313   7.772  18.498  0.00  0.00    +0.000 A 
BRANCH   5  15
ATOM     11  O   UNL     1       5.041   2.285  19.995  0.00  0.00    +0.000 OA
ATOM     12  C   UNL     1       4.330   3.279  19.874  0.00  0.00    +0.000 C 
ATOM     13  C   UNL     1       2.877   3.277  20.243  0.00  0.00    +0.000 C 
ATOM     14  C   UNL     1       2.398   4.648  20.653  0.00  0.00    +0.000 C 
ATOM     15  C   UNL     1       2.973   5.719  19.761  0.00  0.00    +0.000 C 
ATOM     16  N   UNL     1       4.107   5.595  19.144  0.00  0.00    +0.000 NA
ATOM     17  N   UNL     1       4.799   4.434  19.300  0.00  0.00    +0.000 N 
ATOM     18  H   UNL     1       5.757   4.430  18.966  0.00  0.00    +0.000 HD
ENDBRANCH   5  15
ENDBRANCH   1   8
BRANCH   2  19
ATOM     19  C   UNL     1      -0.308  13.013  20.003  0.00  0.00    +0.000 C 
BRANCH  19  20
ATOM     20  C   UNL     1      -1.271  12.700  18.862  0.00  0.00    +0.000 C 
BRANCH  20  21
ATOM     21  N   UNL     1      -2.525  12.044  19.292  0.00  0.00    +0.000 NA
ATOM     22  C   UNL     1      -3.227  12.952  20.215  0.00  0.00    +0.000 C 
ATOM     23  C   UNL     1      -4.624  12.466  20.608  0.00  0.00    +0.000 C 
ATOM     24  C   UNL     1      -5.510  12.167  19.387  0.00  0.00    +0.000 C 
ATOM     25  C   UNL     1      -4.737  11.172  18.508  0.00  0.00    +0.000 C 
ATOM     26  C   UNL     1      -3.356  11.700  18.125  0.00  0.00    +0.000 C 
BRANCH  24  27
ATOM     27  C   UNL     1      -6.046  13.377  18.616  0.00  0.00    +0.000 A 
ATOM     28  C   UNL     1      -6.236  14.640  19.200  0.00  0.00    +0.000 A 
ATOM     29  C   UNL     1      -6.754  15.713  18.469  0.00  0.00    +0.000 A 
ATOM     30  C   UNL     1      -7.123  15.538  17.140  0.00  0.00    +0.000 A 
ATOM     31  C   UNL     1      -6.968  14.292  16.544  0.00  0.00    +0.000 A 
ATOM     32  C   UNL     1      -6.438  13.223  17.274  0.00  0.00    +0.000 A 
ENDBRANCH  24  27
ENDBRANCH  20  21
ENDBRANCH  19  20
ENDBRANCH   2  19
TORSDOF 6
ENDMDL
MODEL 9
REMARK VINA RESULT:      -8.3      6.605      8.795
REMARK  Name = 
REMARK  6 active torsions:
REMARK  status: ('A' for Active; 'I' for Inactive)
REMARK    1  A    between atoms: C_5  and  C_6
REMARK    2  A    between atoms: C_9  and  N_10
REMARK    3  A    between atoms: C_11  and  C_13
REMARK    4  A    between atoms: C_13  and  C_14
REMARK    5  A    between atoms: C_14  and  N_15
REMARK    6  A    between atoms: C_18  and  C_19
REMARK                            x       y       z     vdW  Elec       q    Type
REMARK                         _______ _______ _______ _____ _____    ______ ____
ROOT
ATOM      1  N   UNL     1       2.788   6.314  20.154  0.00  0.00    +0.000 N 
ATOM      2  C   UNL     1       2.359   5.031  19.863  0.00  0.00    +0.000 C 
ATOM      3  O   UNL     1       1.216   4.697  19.565  0.00  0.00    +0.000 OA
ATOM      4  H   UNL     1       3.787   6.477  20.168  0.00  0.00    +0.000 HD
ENDROOT
BRANCH   1   8
ATOM      5  C   UNL     1       0.275   9.683  20.342  0.00  0.00    +0.000 A 
ATOM      6  C   UNL     1       0.369   8.836  21.446  0.00  0.00    +0.000 A 
ATOM      7  C   UNL     1       1.210   7.728  21.402  0.00  0.00    +0.000 A 
ATOM      8  C   UNL     1       1.963   7.448  20.260  0.00  0.00    +0.000 A 
ATOM      9  C   UNL     1       1.899   8.322  19.170  0.00  0.00    +0.000 A 
ATOM     10  C   UNL     1       1.040   9.426  19.201  0.00  0.00    +0.000 A 
BRANCH   5  15
ATOM     11  O   UNL     1      -3.209  13.937  20.493  0.00  0.00    +0.000 OA
ATOM     12  C   UNL     1      -2.517  12.925  20.423  0.00  0.00    +0.000 C 
ATOM     13  C   UNL     1      -2.553  12.008  19.237  0.00  0.00    +0.000 C 
ATOM     14  C   UNL     1      -1.245  11.283  19.044  0.00  0.00    +0.000 C 
ATOM     15  C   UNL     1      -0.671  10.827  20.363  0.00  0.00    +0.000 C 
ATOM     16  N   UNL     1      -0.911  11.430  21.487  0.00  0.00    +0.000 NA
ATOM     17  N   UNL     1      -1.732  12.514  21.471  0.00  0.00    +0.000 N 
ATOM     18  H   UNL     1      -1.757  13.075  22.316  0.00  0.00    +0.000 HD
ENDBRANCH   5  15
ENDBRANCH   1   8
BRANCH   2  19
ATOM     19  C   UNL     1       3.459   4.000  19.921  0.00  0.00    +0.000 C 
BRANCH  19  20
ATOM     20  C   UNL     1       4.046   3.787  18.528  0.00  0.00    +0.000 C 
BRANCH  20  21
ATOM     21  N   UNL     1       4.999   4.836  18.107  0.00  0.00    +0.000 NA
ATOM     22  C   UNL     1       6.274   4.187  17.756  0.00  0.00    +0.000 C 
ATOM     23  C   UNL     1       7.300   5.142  17.143  0.00  0.00    +0.000 C 
ATOM     24  C   UNL     1       6.744   5.904  15.928  0.00  0.00    +0.000 C 
ATOM     25  C   UNL     1       5.454   6.599  16.389  0.00  0.00    +0.000 C 
ATOM     26  C   UNL     1       4.451   5.611  16.979  0.00  0.00    +0.000 C 
BRANCH  24  27
ATOM     27  C   UNL     1       6.579   5.103  14.634  0.00  0.00    +0.000 A 
ATOM     28  C   UNL     1       5.520   4.206  14.413  0.00  0.00    +0.000 A 
ATOM     29  C   UNL     1       5.420   3.471  13.228  0.00  0.00    +0.000 A 
ATOM     30  C   UNL     1       6.396   3.595  12.246  0.00  0.00    +0.000 A 
ATOM     31  C   UNL     1       7.467   4.457  12.448  0.00  0.00    +0.000 A 
ATOM     32  C   UNL     1       7.559   5.201  13.629  0.00  0.00    +0.000 A 
ENDBRANCH  24  27
ENDBRANCH  20  21
ENDBRANCH  19  20
ENDBRANCH   2  19
TORSDOF 6
ENDMDL
