MODEL 1
REMARK VINA RESULT:      -6.1      0.000      0.000
REMARK  Name = 
REMARK  11 active torsions:
REMARK  status: ('A' for Active; 'I' for Inactive)
REMARK    1  A    between atoms: C_1  and  O_2
REMARK    2  A    between atoms: O_2  and  C_3
REMARK    3  A    between atoms: C_3  and  C_4
REMARK    4  A    between atoms: C_4  and  N_5
REMARK    5  A    between atoms: C_9  and  C_10
REMARK    6  A    between atoms: C_10  and  N_11
REMARK    7  A    between atoms: N_11  and  C_12
REMARK    8  A    between atoms: N_11  and  C_13
REMARK    9  A    between atoms: C_13  and  C_14
REMARK   10  A    between atoms: C_14  and  C_15
REMARK   11  A    between atoms: N_18  and  C_19
REMARK                            x       y       z     vdW  Elec       q    Type
REMARK                         _______ _______ _______ _____ _____    ______ ____
ROOT
ATOM      1  C   UNL     1       2.326   2.060  17.951  0.00  0.00    +0.000 C 
ENDROOT
BRANCH   1   6
ATOM      2  N   UNL     1       3.199   2.546  20.323  0.00  0.00    +0.000 N 
ATOM      3  C   UNL     1       2.604   2.837  21.526  0.00  0.00    +0.000 A 
ATOM      4  N   UNL     1       1.295   2.870  21.436  0.00  0.00    +0.000 NA
ATOM      5  C   UNL     1       1.030   2.593  20.126  0.00  0.00    +0.000 A 
ATOM      6  C   UNL     1       2.190   2.371  19.405  0.00  0.00    +0.000 A 
BRANCH   2   7
ATOM      7  C   UNL     1       4.633   2.364  20.176  0.00  0.00    +0.000 C 
BRANCH   7   8
ATOM      8  C   UNL     1       5.152   1.010  20.647  0.00  0.00    +0.000 C 
BRANCH   8  10
ATOM      9  C   UNL     1       6.400  -0.100  22.304  0.00  0.00    +0.000 C 
ATOM     10  O   UNL     1       5.717   1.101  21.959  0.00  0.00    +0.000 OA
ENDBRANCH   8  10
ENDBRANCH   7   8
ENDBRANCH   2   7
ENDBRANCH   1   6
BRANCH   1  11
ATOM     11  N   UNL     1       2.298   3.243  17.080  0.00  0.00    +0.000 NA
ATOM     12  C   UNL     1       1.400   4.291  17.590  0.00  0.00    +0.000 C 
BRANCH  11  13
ATOM     13  C   UNL     1       3.653   3.833  16.928  0.00  0.00    +0.000 C 
BRANCH  13  14
ATOM     14  C   UNL     1       3.851   5.266  17.458  0.00  0.00    +0.000 C 
BRANCH  14  15
ATOM     15  C   UNL     1       5.198   5.856  17.214  0.00  0.00    +0.000 A 
ATOM     16  C   UNL     1       6.241   5.386  16.380  0.00  0.00    +0.000 A 
ATOM     17  N   UNL     1       7.335   6.147  16.446  0.00  0.00    +0.000 NA
ATOM     18  N   UNL     1       6.986   7.134  17.284  0.00  0.00    +0.000 N 
ATOM     19  C   UNL     1       7.924   8.184  17.600  0.00  0.00    +0.000 C 
ATOM     20  C   UNL     1       5.721   7.003  17.779  0.00  0.00    +0.000 A 
ENDBRANCH  14  15
ENDBRANCH  13  14
ENDBRANCH  11  13
ENDBRANCH   1  11
TORSDOF 8
ENDMDL
MODEL 2
REMARK VINA RESULT:      -5.9      2.706      6.138
REMARK  Name = 
REMARK  11 active torsions:
REMARK  status: ('A' for Active; 'I' for Inactive)
REMARK    1  A    between atoms: C_1  and  O_2
REMARK    2  A    between atoms: O_2  and  C_3
REMARK    3  A    between atoms: C_3  and  C_4
REMARK    4  A    between atoms: C_4  and  N_5
REMARK    5  A    between atoms: C_9  and  C_10
REMARK    6  A    between atoms: C_10  and  N_11
REMARK    7  A    between atoms: N_11  and  C_12
REMARK    8  A    between atoms: N_11  and  C_13
REMARK    9  A    between atoms: C_13  and  C_14
REMARK   10  A    between atoms: C_14  and  C_15
REMARK   11  A    between atoms: N_18  and  C_19
REMARK                            x       y       z     vdW  Elec       q    Type
REMARK                         _______ _______ _______ _____ _____    ______ ____
ROOT
ATOM      1  C   UNL     1       4.285   6.618  18.052  0.00  0.00    +0.000 C 
ENDROOT
BRANCH   1   6
ATOM      2  N   UNL     1       6.038   5.189  16.825  0.00  0.00    +0.000 N 
ATOM      3  C   UNL     1       7.161   4.500  17.213  0.00  0.00    +0.000 A 
ATOM      4  N   UNL     1       7.380   4.598  18.504  0.00  0.00    +0.000 NA
ATOM      5  C   UNL     1       6.363   5.380  18.970  0.00  0.00    +0.000 A 
ATOM      6  C   UNL     1       5.499   5.755  17.956  0.00  0.00    +0.000 A 
BRANCH   2   7
ATOM      7  C   UNL     1       5.531   5.165  15.464  0.00  0.00    +0.000 C 
BRANCH   7   8
ATOM      8  C   UNL     1       6.556   4.757  14.411  0.00  0.00    +0.000 C 
BRANCH   8  10
ATOM      9  C   UNL     1       6.424   3.592  12.372  0.00  0.00    +0.000 C 
ATOM     10  O   UNL     1       6.182   3.532  13.773  0.00  0.00    +0.000 OA
ENDBRANCH   8  10
ENDBRANCH   7   8
ENDBRANCH   2   7
ENDBRANCH   1   6
BRANCH   1  11
ATOM     11  N   UNL     1       3.161   5.996  18.765  0.00  0.00    +0.000 NA
ATOM     12  C   UNL     1       2.444   6.954  19.620  0.00  0.00    +0.000 C 
BRANCH  11  13
ATOM     13  C   UNL     1       2.182   5.405  17.816  0.00  0.00    +0.000 C 
BRANCH  13  14
ATOM     14  C   UNL     1       1.880   3.903  17.975  0.00  0.00    +0.000 C 
BRANCH  14  15
ATOM     15  C   UNL     1       2.558   3.234  19.122  0.00  0.00    +0.000 A 
ATOM     16  C   UNL     1       2.123   3.098  20.462  0.00  0.00    +0.000 A 
ATOM     17  N   UNL     1       3.017   2.478  21.234  0.00  0.00    +0.000 NA
ATOM     18  N   UNL     1       4.010   2.171  20.386  0.00  0.00    +0.000 N 
ATOM     19  C   UNL     1       5.176   1.466  20.859  0.00  0.00    +0.000 C 
ATOM     20  C   UNL     1       3.790   2.607  19.112  0.00  0.00    +0.000 A 
ENDBRANCH  14  15
ENDBRANCH  13  14
ENDBRANCH  11  13
ENDBRANCH   1  11
TORSDOF 8
ENDMDL
MODEL 3
REMARK VINA RESULT:      -5.9      4.978      6.418
REMARK  Name = 
REMARK  11 active torsions:
REMARK  status: ('A' for Active; 'I' for Inactive)
REMARK    1  A    between atoms: C_1  and  O_2
REMARK    2  A    between atoms: O_2  and  C_3
REMARK    3  A    between atoms: C_3  and  C_4
REMARK    4  A    between atoms: C_4  and  N_5
REMARK    5  A    between atoms: C_9  and  C_10
REMARK    6  A    between atoms: C_10  and  N_11
REMARK    7  A    between atoms: N_11  and  C_12
REMARK    8  A    between atoms: N_11  and  C_13
REMARK    9  A    between atoms: C_13  and  C_14
REMARK   10  A    between atoms: C_14  and  C_15
REMARK   11  A    between atoms: N_18  and  C_19
REMARK                            x       y       z     vdW  Elec       q    Type
REMARK                         _______ _______ _______ _____ _____    ______ ____
ROOT
ATOM      1  C   UNL     1       2.328   5.932  18.578  0.00  0.00    +0.000 C 
ENDROOT
BRANCH   1   6
ATOM      2  N   UNL     1       3.430   3.607  18.516  0.00  0.00    +0.000 N 
ATOM      3  C   UNL     1       4.691   3.133  18.783  0.00  0.00    +0.000 A 
ATOM      4  N   UNL     1       5.511   4.089  19.155  0.00  0.00    +0.000 NA
ATOM      5  C   UNL     1       4.755   5.225  19.126  0.00  0.00    +0.000 A 
ATOM      6  C   UNL     1       3.451   4.963  18.748  0.00  0.00    +0.000 A 
BRANCH   2   7
ATOM      7  C   UNL     1       2.318   2.739  18.173  0.00  0.00    +0.000 C 
BRANCH   7   8
ATOM      8  C   UNL     1       1.708   1.990  19.354  0.00  0.00    +0.000 C 
BRANCH   8  10
ATOM      9  C   UNL     1       1.412   2.837  21.528  0.00  0.00    +0.000 C 
ATOM     10  O   UNL     1       0.944   2.870  20.184  0.00  0.00    +0.000 OA
ENDBRANCH   8  10
ENDBRANCH   7   8
ENDBRANCH   2   7
ENDBRANCH   1   6
BRANCH   1  11
ATOM     11  N   UNL     1       2.669   7.315  18.938  0.00  0.00    +0.000 NA
ATOM     12  C   UNL     1       2.446   8.252  17.826  0.00  0.00    +0.000 C 
BRANCH  11  13
ATOM     13  C   UNL     1       1.869   7.782  20.100  0.00  0.00    +0.000 C 
BRANCH  13  14
ATOM     14  C   UNL     1       1.360   9.235  20.055  0.00  0.00    +0.000 C 
BRANCH  14  15
ATOM     15  C   UNL     1       0.641   9.698  21.277  0.00  0.00    +0.000 A 
ATOM     16  C   UNL     1       0.868   9.353  22.631  0.00  0.00    +0.000 A 
ATOM     17  N   UNL     1      -0.007   9.922  23.461  0.00  0.00    +0.000 NA
ATOM     18  N   UNL     1      -0.771  10.672  22.652  0.00  0.00    +0.000 N 
ATOM     19  C   UNL     1      -1.845  11.465  23.198  0.00  0.00    +0.000 C 
ATOM     20  C   UNL     1      -0.431  10.566  21.335  0.00  0.00    +0.000 A 
ENDBRANCH  14  15
ENDBRANCH  13  14
ENDBRANCH  11  13
ENDBRANCH   1  11
TORSDOF 8
ENDMDL
MODEL 4
REMARK VINA RESULT:      -5.8      3.643      6.042
REMARK  Name = 
REMARK  11 active torsions:
REMARK  status: ('A' for Active; 'I' for Inactive)
REMARK    1  A    between atoms: C_1  and  O_2
REMARK    2  A    between atoms: O_2  and  C_3
REMARK    3  A    between atoms: C_3  and  C_4
REMARK    4  A    between atoms: C_4  and  N_5
REMARK    5  A    between atoms: C_9  and  C_10
REMARK    6  A    between atoms: C_10  and  N_11
REMARK    7  A    between atoms: N_11  and  C_12
REMARK    8  A    between atoms: N_11  and  C_13
REMARK    9  A    between atoms: C_13  and  C_14
REMARK   10  A    between atoms: C_14  and  C_15
REMARK   11  A    between atoms: N_18  and  C_19
REMARK                            x       y       z     vdW  Elec       q    Type
REMARK                         _______ _______ _______ _____ _____    ______ ____
ROOT
ATOM      1  C   UNL     1       4.527   4.068  17.773  0.00  0.00    +0.000 C 
ENDROOT
BRANCH   1   6
ATOM      2  N   UNL     1       6.384   5.353  16.539  0.00  0.00    +0.000 N 
ATOM      3  C   UNL     1       7.052   5.175  15.352  0.00  0.00    +0.000 A 
ATOM      4  N   UNL     1       6.640   4.108  14.708  0.00  0.00    +0.000 NA
ATOM      5  C   UNL     1       5.672   3.571  15.507  0.00  0.00    +0.000 A 
ATOM      6  C   UNL     1       5.474   4.327  16.649  0.00  0.00    +0.000 A 
BRANCH   2   7
ATOM      7  C   UNL     1       6.592   6.508  17.395  0.00  0.00    +0.000 C 
BRANCH   7   8
ATOM      8  C   UNL     1       7.726   6.355  18.404  0.00  0.00    +0.000 C 
BRANCH   8  10
ATOM      9  C   UNL     1       7.973   8.585  17.702  0.00  0.00    +0.000 C 
ATOM     10  O   UNL     1       8.357   7.611  18.666  0.00  0.00    +0.000 OA
ENDBRANCH   8  10
ENDBRANCH   7   8
ENDBRANCH   2   7
ENDBRANCH   1   6
BRANCH   1  11
ATOM     11  N   UNL     1       3.110   4.181  17.402  0.00  0.00    +0.000 NA
ATOM     12  C   UNL     1       2.369   2.933  17.641  0.00  0.00    +0.000 C 
BRANCH  11  13
ATOM     13  C   UNL     1       2.439   5.267  18.163  0.00  0.00    +0.000 C 
BRANCH  13  14
ATOM     14  C   UNL     1       3.088   6.663  18.101  0.00  0.00    +0.000 C 
BRANCH  14  15
ATOM     15  C   UNL     1       2.283   7.768  18.695  0.00  0.00    +0.000 A 
ATOM     16  C   UNL     1       1.868   7.949  20.037  0.00  0.00    +0.000 A 
ATOM     17  N   UNL     1       1.111   9.035  20.199  0.00  0.00    +0.000 NA
ATOM     18  N   UNL     1       1.072   9.582  18.975  0.00  0.00    +0.000 N 
ATOM     19  C   UNL     1       0.343  10.806  18.749  0.00  0.00    +0.000 C 
ATOM     20  C   UNL     1       1.750   8.859  18.037  0.00  0.00    +0.000 A 
ENDBRANCH  14  15
ENDBRANCH  13  14
ENDBRANCH  11  13
ENDBRANCH   1  11
TORSDOF 8
ENDMDL
MODEL 5
REMARK VINA RESULT:      -5.7      2.914      6.017
REMARK  Name = 
REMARK  11 active torsions:
REMARK  status: ('A' for Active; 'I' for Inactive)
REMARK    1  A    between atoms: C_1  and  O_2
REMARK    2  A    between atoms: O_2  and  C_3
REMARK    3  A    between atoms: C_3  and  C_4
REMARK    4  A    between atoms: C_4  and  N_5
REMARK    5  A    between atoms: C_9  and  C_10
REMARK    6  A    between atoms: C_10  and  N_11
REMARK    7  A    between atoms: N_11  and  C_12
REMARK    8  A    between atoms: N_11  and  C_13
REMARK    9  A    between atoms: C_13  and  C_14
REMARK   10  A    between atoms: C_14  and  C_15
REMARK   11  A    between atoms: N_18  and  C_19
REMARK                            x       y       z     vdW  Elec       q    Type
REMARK                         _______ _______ _______ _____ _____    ______ ____
ROOT
ATOM      1  C   UNL     1       4.239   6.908  17.361  0.00  0.00    +0.000 C 
ENDROOT
BRANCH   1   6
ATOM      2  N   UNL     1       6.054   5.257  16.587  0.00  0.00    +0.000 N 
ATOM      3  C   UNL     1       6.962   4.453  17.232  0.00  0.00    +0.000 A 
ATOM      4  N   UNL     1       6.874   4.556  18.537  0.00  0.00    +0.000 NA
ATOM      5  C   UNL     1       5.874   5.462  18.748  0.00  0.00    +0.000 A 
ATOM      6  C   UNL     1       5.329   5.909  17.557  0.00  0.00    +0.000 A 
BRANCH   2   7
ATOM      7  C   UNL     1       5.888   5.258  15.143  0.00  0.00    +0.000 C 
BRANCH   7   8
ATOM      8  C   UNL     1       6.370   3.989  14.448  0.00  0.00    +0.000 C 
BRANCH   8  10
ATOM      9  C   UNL     1       6.467   3.428  12.166  0.00  0.00    +0.000 C 
ATOM     10  O   UNL     1       5.611   3.729  13.263  0.00  0.00    +0.000 OA
ENDBRANCH   8  10
ENDBRANCH   7   8
ENDBRANCH   2   7
ENDBRANCH   1   6
BRANCH   1  11
ATOM     11  N   UNL     1       3.122   6.771  18.305  0.00  0.00    +0.000 NA
ATOM     12  C   UNL     1       2.352   8.017  18.444  0.00  0.00    +0.000 C 
BRANCH  11  13
ATOM     13  C   UNL     1       2.186   5.698  17.880  0.00  0.00    +0.000 C 
BRANCH  13  14
ATOM     14  C   UNL     1       1.822   4.635  18.934  0.00  0.00    +0.000 C 
BRANCH  14  15
ATOM     15  C   UNL     1       2.813   3.533  19.097  0.00  0.00    +0.000 A 
ATOM     16  C   UNL     1       3.329   2.644  18.123  0.00  0.00    +0.000 A 
ATOM     17  N   UNL     1       4.167   1.744  18.640  0.00  0.00    +0.000 NA
ATOM     18  N   UNL     1       4.231   2.077  19.938  0.00  0.00    +0.000 N 
ATOM     19  C   UNL     1       5.068   1.325  20.840  0.00  0.00    +0.000 C 
ATOM     20  C   UNL     1       3.433   3.135  20.265  0.00  0.00    +0.000 A 
ENDBRANCH  14  15
ENDBRANCH  13  14
ENDBRANCH  11  13
ENDBRANCH   1  11
TORSDOF 8
ENDMDL
MODEL 6
REMARK VINA RESULT:      -5.7      3.443      5.775
REMARK  Name = 
REMARK  11 active torsions:
REMARK  status: ('A' for Active; 'I' for Inactive)
REMARK    1  A    between atoms: C_1  and  O_2
REMARK    2  A    between atoms: O_2  and  C_3
REMARK    3  A    between atoms: C_3  and  C_4
REMARK    4  A    between atoms: C_4  and  N_5
REMARK    5  A    between atoms: C_9  and  C_10
REMARK    6  A    between atoms: C_10  and  N_11
REMARK    7  A    between atoms: N_11  and  C_12
REMARK    8  A    between atoms: N_11  and  C_13
REMARK    9  A    between atoms: C_13  and  C_14
REMARK   10  A    between atoms: C_14  and  C_15
REMARK   11  A    between atoms: N_18  and  C_19
REMARK                            x       y       z     vdW  Elec       q    Type
REMARK                         _______ _______ _______ _____ _____    ______ ____
ROOT
ATOM      1  C   UNL     1       4.979   4.201  18.918  0.00  0.00    +0.000 C 
ENDROOT
BRANCH   1   6
ATOM      2  N   UNL     1       6.592   4.842  17.018  0.00  0.00    +0.000 N 
ATOM      3  C   UNL     1       6.566   4.716  15.650  0.00  0.00    +0.000 A 
ATOM      4  N   UNL     1       5.465   4.139  15.227  0.00  0.00    +0.000 NA
ATOM      5  C   UNL     1       4.751   3.879  16.361  0.00  0.00    +0.000 A 
ATOM      6  C   UNL     1       5.413   4.316  17.494  0.00  0.00    +0.000 A 
BRANCH   2   7
ATOM      7  C   UNL     1       7.659   5.526  17.726  0.00  0.00    +0.000 C 
BRANCH   7   8
ATOM      8  C   UNL     1       7.333   6.959  18.135  0.00  0.00    +0.000 C 
BRANCH   8  10
ATOM      9  C   UNL     1       8.150   9.144  17.832  0.00  0.00    +0.000 C 
ATOM     10  O   UNL     1       7.871   7.899  17.200  0.00  0.00    +0.000 OA
ENDBRANCH   8  10
ENDBRANCH   7   8
ENDBRANCH   2   7
ENDBRANCH   1   6
BRANCH   1  11
ATOM     11  N   UNL     1       3.834   3.304  19.125  0.00  0.00    +0.000 NA
ATOM     12  C   UNL     1       4.046   2.378  20.248  0.00  0.00    +0.000 C 
BRANCH  11  13
ATOM     13  C   UNL     1       2.590   4.072  19.392  0.00  0.00    +0.000 C 
BRANCH  13  14
ATOM     14  C   UNL     1       2.728   5.341  20.255  0.00  0.00    +0.000 C 
BRANCH  14  15
ATOM     15  C   UNL     1       2.380   6.619  19.570  0.00  0.00    +0.000 A 
ATOM     16  C   UNL     1       2.570   6.988  18.217  0.00  0.00    +0.000 A 
ATOM     17  N   UNL     1       2.182   8.239  17.965  0.00  0.00    +0.000 NA
ATOM     18  N   UNL     1       1.699   8.665  19.141  0.00  0.00    +0.000 N 
ATOM     19  C   UNL     1       1.162   9.998  19.266  0.00  0.00    +0.000 C 
ATOM     20  C   UNL     1       1.802   7.738  20.137  0.00  0.00    +0.000 A 
ENDBRANCH  14  15
ENDBRANCH  13  14
ENDBRANCH  11  13
ENDBRANCH   1  11
TORSDOF 8
ENDMDL
MODEL 7
REMARK VINA RESULT:      -5.7      3.886      6.137
REMARK  Name = 
REMARK  11 active torsions:
REMARK  status: ('A' for Active; 'I' for Inactive)
REMARK    1  A    between atoms: C_1  and  O_2
REMARK    2  A    between atoms: O_2  and  C_3
REMARK    3  A    between atoms: C_3  and  C_4
REMARK    4  A    between atoms: C_4  and  N_5
REMARK    5  A    between atoms: C_9  and  C_10
REMARK    6  A    between atoms: C_10  and  N_11
REMARK    7  A    between atoms: N_11  and  C_12
REMARK    8  A    between atoms: N_11  and  C_13
REMARK    9  A    between atoms: C_13  and  C_14
REMARK   10  A    between atoms: C_14  and  C_15
REMARK   11  A    between atoms: N_18  and  C_19
REMARK                            x       y       z     vdW  Elec       q    Type
REMARK                         _______ _______ _______ _____ _____    ______ ____
ROOT
ATOM      1  C   UNL     1       4.709   3.906  17.706  0.00  0.00    +0.000 C 
ENDROOT
BRANCH   1   6
ATOM      2  N   UNL     1       6.316   5.634  16.680  0.00  0.00    +0.000 N 
ATOM      3  C   UNL     1       7.356   6.388  17.166  0.00  0.00    +0.000 A 
ATOM      4  N   UNL     1       7.573   6.168  18.442  0.00  0.00    +0.000 NA
ATOM      5  C   UNL     1       6.638   5.240  18.798  0.00  0.00    +0.000 A 
ATOM      6  C   UNL     1       5.847   4.871  17.724  0.00  0.00    +0.000 A 
BRANCH   2   7
ATOM      7  C   UNL     1       5.935   5.627  15.278  0.00  0.00    +0.000 C 
BRANCH   7   8
ATOM      8  C   UNL     1       6.810   4.751  14.386  0.00  0.00    +0.000 C 
BRANCH   8  10
ATOM      9  C   UNL     1       6.256   3.505  12.471  0.00  0.00    +0.000 C 
ATOM     10  O   UNL     1       6.074   3.636  13.877  0.00  0.00    +0.000 OA
ENDBRANCH   8  10
ENDBRANCH   7   8
ENDBRANCH   2   7
ENDBRANCH   1   6
BRANCH   1  11
ATOM     11  N   UNL     1       3.405   4.520  17.420  0.00  0.00    +0.000 NA
ATOM     12  C   UNL     1       2.300   3.554  17.520  0.00  0.00    +0.000 C 
BRANCH  11  13
ATOM     13  C   UNL     1       3.122   5.640  18.355  0.00  0.00    +0.000 C 
BRANCH  13  14
ATOM     14  C   UNL     1       3.060   7.054  17.746  0.00  0.00    +0.000 C 
BRANCH  14  15
ATOM     15  C   UNL     1       2.269   8.050  18.525  0.00  0.00    +0.000 A 
ATOM     16  C   UNL     1       1.801   7.972  19.858  0.00  0.00    +0.000 A 
ATOM     17  N   UNL     1       1.077   9.035  20.212  0.00  0.00    +0.000 NA
ATOM     18  N   UNL     1       1.115   9.822  19.127  0.00  0.00    +0.000 N 
ATOM     19  C   UNL     1       0.442  11.098  19.130  0.00  0.00    +0.000 C 
ATOM     20  C   UNL     1       1.808   9.276  18.086  0.00  0.00    +0.000 A 
ENDBRANCH  14  15
ENDBRANCH  13  14
ENDBRANCH  11  13
ENDBRANCH   1  11
TORSDOF 8
ENDMDL
MODEL 8
REMARK VINA RESULT:      -5.6      3.078      6.676
REMARK  Name = 
REMARK  11 active torsions:
REMARK  status: ('A' for Active; 'I' for Inactive)
REMARK    1  A    between atoms: C_1  and  O_2
REMARK    2  A    between atoms: O_2  and  C_3
REMARK    3  A    between atoms: C_3  and  C_4
REMARK    4  A    between atoms: C_4  and  N_5
REMARK    5  A    between atoms: C_9  and  C_10
REMARK    6  A    between atoms: C_10  and  N_11
REMARK    7  A    between atoms: N_11  and  C_12
REMARK    8  A    between atoms: N_11  and  C_13
REMARK    9  A    between atoms: C_13  and  C_14
REMARK   10  A    between atoms: C_14  and  C_15
REMARK   11  A    between atoms: N_18  and  C_19
REMARK                            x       y       z     vdW  Elec       q    Type
REMARK                         _______ _______ _______ _____ _____    ______ ____
ROOT
ATOM      1  C   UNL     1       5.320   6.250  16.920  0.00  0.00    +0.000 C 
ENDROOT
BRANCH   1   6
ATOM      2  N   UNL     1       7.467   6.716  18.259  0.00  0.00    +0.000 N 
ATOM      3  C   UNL     1       8.022   6.191  19.402  0.00  0.00    +0.000 A 
ATOM      4  N   UNL     1       7.283   5.236  19.917  0.00  0.00    +0.000 NA
ATOM      5  C   UNL     1       6.209   5.138  19.080  0.00  0.00    +0.000 A 
ATOM      6  C   UNL     1       6.295   6.033  18.029  0.00  0.00    +0.000 A 
BRANCH   2   7
ATOM      7  C   UNL     1       8.132   7.723  17.451  0.00  0.00    +0.000 C 
BRANCH   7   8
ATOM      8  C   UNL     1       7.735   9.160  17.775  0.00  0.00    +0.000 C 
BRANCH   8  10
ATOM      9  C   UNL     1       9.221  10.066  19.357  0.00  0.00    +0.000 C 
ATOM     10  O   UNL     1       8.889   9.982  17.975  0.00  0.00    +0.000 OA
ENDBRANCH   8  10
ENDBRANCH   7   8
ENDBRANCH   2   7
ENDBRANCH   1   6
BRANCH   1  11
ATOM     11  N   UNL     1       5.197   5.112  15.998  0.00  0.00    +0.000 NA
ATOM     12  C   UNL     1       6.495   4.476  15.720  0.00  0.00    +0.000 C 
BRANCH  11  13
ATOM     13  C   UNL     1       4.284   4.074  16.542  0.00  0.00    +0.000 C 
BRANCH  13  14
ATOM     14  C   UNL     1       3.036   4.572  17.295  0.00  0.00    +0.000 C 
BRANCH  14  15
ATOM     15  C   UNL     1       2.525   3.659  18.358  0.00  0.00    +0.000 A 
ATOM     16  C   UNL     1       2.036   2.336  18.239  0.00  0.00    +0.000 A 
ATOM     17  N   UNL     1       1.613   1.837  19.402  0.00  0.00    +0.000 NA
ATOM     18  N   UNL     1       1.871   2.817  20.281  0.00  0.00    +0.000 N 
ATOM     19  C   UNL     1       1.557   2.640  21.678  0.00  0.00    +0.000 C 
ATOM     20  C   UNL     1       2.409   3.932  19.707  0.00  0.00    +0.000 A 
ENDBRANCH  14  15
ENDBRANCH  13  14
ENDBRANCH  11  13
ENDBRANCH   1  11
TORSDOF 8
ENDMDL
MODEL 9
REMARK VINA RESULT:      -5.6      4.594      6.250
REMARK  Name = 
REMARK  11 active torsions:
REMARK  status: ('A' for Active; 'I' for Inactive)
REMARK    1  A    between atoms: C_1  and  O_2
REMARK    2  A    between atoms: O_2  and  C_3
REMARK    3  A    between atoms: C_3  and  C_4
REMARK    4  A    between atoms: C_4  and  N_5
REMARK    5  A    between atoms: C_9  and  C_10
REMARK    6  A    between atoms: C_10  and  N_11
REMARK    7  A    between atoms: N_11  and  C_12
REMARK    8  A    between atoms: N_11  and  C_13
REMARK    9  A    between atoms: C_13  and  C_14
REMARK   10  A    between atoms: C_14  and  C_15
REMARK   11  A    between atoms: N_18  and  C_19
REMARK                            x       y       z     vdW  Elec       q    Type
REMARK                         _______ _______ _______ _____ _____    ______ ____
ROOT
ATOM      1  C   UNL     1       2.571   6.213  18.958  0.00  0.00    +0.000 C 
ENDROOT
BRANCH   1   6
ATOM      2  N   UNL     1       1.693   8.549  19.582  0.00  0.00    +0.000 N 
ATOM      3  C   UNL     1       1.534   9.731  18.901  0.00  0.00    +0.000 A 
ATOM      4  N   UNL     1       1.917   9.636  17.649  0.00  0.00    +0.000 NA
ATOM      5  C   UNL     1       2.342   8.346  17.513  0.00  0.00    +0.000 A 
ATOM      6  C   UNL     1       2.204   7.635  18.691  0.00  0.00    +0.000 A 
BRANCH   2   7
ATOM      7  C   UNL     1       1.261   8.368  20.958  0.00  0.00    +0.000 C 
BRANCH   7   8
ATOM      8  C   UNL     1       0.082   9.242  21.373  0.00  0.00    +0.000 C 
BRANCH   8  10
ATOM      9  C   UNL     1      -0.401  11.417  22.124  0.00  0.00    +0.000 C 
ATOM     10  O   UNL     1       0.509  10.325  22.204  0.00  0.00    +0.000 OA
ENDBRANCH   8  10
ENDBRANCH   7   8
ENDBRANCH   2   7
ENDBRANCH   1   6
BRANCH   1  11
ATOM     11  N   UNL     1       3.844   5.797  18.351  0.00  0.00    +0.000 NA
ATOM     12  C   UNL     1       4.769   5.218  19.337  0.00  0.00    +0.000 C 
BRANCH  11  13
ATOM     13  C   UNL     1       3.626   4.792  17.279  0.00  0.00    +0.000 C 
BRANCH  13  14
ATOM     14  C   UNL     1       4.789   3.823  16.988  0.00  0.00    +0.000 C 
BRANCH  14  15
ATOM     15  C   UNL     1       5.804   4.320  16.015  0.00  0.00    +0.000 A 
ATOM     16  C   UNL     1       6.954   5.110  16.249  0.00  0.00    +0.000 A 
ATOM     17  N   UNL     1       7.610   5.410  15.128  0.00  0.00    +0.000 NA
ATOM     18  N   UNL     1       6.913   4.777  14.172  0.00  0.00    +0.000 N 
ATOM     19  C   UNL     1       7.333   4.855  12.795  0.00  0.00    +0.000 C 
ATOM     20  C   UNL     1       5.818   4.117  14.648  0.00  0.00    +0.000 A 
ENDBRANCH  14  15
ENDBRANCH  13  14
ENDBRANCH  11  13
ENDBRANCH   1  11
TORSDOF 8
ENDMDL
