MODEL 1
REMARK VINA RESULT:      -8.2      0.000      0.000
REMARK  Name = 
REMARK  6 active torsions:
REMARK  status: ('A' for Active; 'I' for Inactive)
REMARK    1  A    between atoms: C_1  and  O_2
REMARK    2  A    between atoms: O_2  and  C_3
REMARK    3  A    between atoms: N_12  and  C_13
REMARK    4  A    between atoms: C_13  and  C_14
REMARK    5  A    between atoms: C_14  and  C_15
REMARK    6  A    between atoms: C_15  and  N_16
REMARK                            x       y       z     vdW  Elec       q    Type
REMARK                         _______ _______ _______ _____ _____    ______ ____
ROOT
ATOM      1  C   UNL     1       6.514   4.493  17.693  0.00  0.00    +0.000 A 
ATOM      2  C   UNL     1       7.099   4.878  16.479  0.00  0.00    +0.000 A 
ATOM      3  C   UNL     1       6.336   4.956  15.298  0.00  0.00    +0.000 A 
ATOM      4  C   UNL     1       4.978   4.637  15.297  0.00  0.00    +0.000 A 
ATOM      5  C   UNL     1       4.404   4.244  16.489  0.00  0.00    +0.000 A 
ATOM      6  C   UNL     1       5.164   4.186  17.678  0.00  0.00    +0.000 A 
ATOM      7  C   UNL     1       4.230   3.974  18.826  0.00  0.00    +0.000 C 
ATOM      8  C   UNL     1       4.591   3.180  20.071  0.00  0.00    +0.000 C 
ATOM      9  C   UNL     1       3.309   2.763  20.831  0.00  0.00    +0.000 C 
ATOM     10  N   UNL     1       2.050   3.447  20.446  0.00  0.00    +0.000 NA
ATOM     11  C   UNL     1       1.799   3.350  18.993  0.00  0.00    +0.000 C 
ATOM     12  C   UNL     1       3.057   3.274  18.131  0.00  0.00    +0.000 C 
ATOM     13  C   UNL     1       2.956   3.935  16.751  0.00  0.00    +0.000 C 
ENDROOT
BRANCH   1  15
ATOM     14  C   UNL     1       7.592   5.663  19.453  0.00  0.00    +0.000 C 
ATOM     15  O   UNL     1       7.142   4.435  18.900  0.00  0.00    +0.000 OA
ENDBRANCH   1  15
BRANCH  10  16
ATOM     16  C   UNL     1       1.949   4.808  21.003  0.00  0.00    +0.000 C 
BRANCH  16  17
ATOM     17  C   UNL     1       1.472   5.903  20.032  0.00  0.00    +0.000 C 
BRANCH  17  18
ATOM     18  C   UNL     1       2.377   7.135  19.990  0.00  0.00    +0.000 C 
BRANCH  18  19
ATOM     19  N   UNL     1       1.561   8.356  19.934  0.00  0.00    +0.000 N 
ATOM     20  C   UNL     1       1.304   9.174  18.812  0.00  0.00    +0.000 C 
ATOM     21  O   UNL     1       1.766   9.022  17.689  0.00  0.00    +0.000 OA
ATOM     22  C   UNL     1       0.362  10.241  19.194  0.00  0.00    +0.000 A 
ATOM     23  C   UNL     1      -0.157  11.236  18.372  0.00  0.00    +0.000 A 
ATOM     24  C   UNL     1      -1.052  12.159  18.930  0.00  0.00    +0.000 A 
ATOM     25  C   UNL     1      -1.411  12.086  20.288  0.00  0.00    +0.000 A 
ATOM     26  C   UNL     1      -0.892  11.090  21.112  0.00  0.00    +0.000 A 
ATOM     27  C   UNL     1      -0.012  10.185  20.531  0.00  0.00    +0.000 A 
ATOM     28  S   UNL     1       0.763   8.847  21.333  0.00  0.00    +0.000 S 
ATOM     29  O   UNL     1       1.723   9.373  22.271  0.00  0.00    +0.000 OA
ATOM     30  O   UNL     1      -0.246   7.877  21.674  0.00  0.00    +0.000 OA
ENDBRANCH  18  19
ENDBRANCH  17  18
ENDBRANCH  16  17
ENDBRANCH  10  16
TORSDOF 5
ENDMDL
MODEL 2
REMARK VINA RESULT:      -7.8      0.965      1.978
REMARK  Name = 
REMARK  6 active torsions:
REMARK  status: ('A' for Active; 'I' for Inactive)
REMARK    1  A    between atoms: C_1  and  O_2
REMARK    2  A    between atoms: O_2  and  C_3
REMARK    3  A    between atoms: N_12  and  C_13
REMARK    4  A    between atoms: C_13  and  C_14
REMARK    5  A    between atoms: C_14  and  C_15
REMARK    6  A    between atoms: C_15  and  N_16
REMARK                            x       y       z     vdW  Elec       q    Type
REMARK                         _______ _______ _______ _____ _____    ______ ____
ROOT
ATOM      1  C   UNL     1       6.718   4.509  17.596  0.00  0.00    +0.000 A 
ATOM      2  C   UNL     1       7.436   4.743  16.417  0.00  0.00    +0.000 A 
ATOM      3  C   UNL     1       6.806   4.687  15.159  0.00  0.00    +0.000 A 
ATOM      4  C   UNL     1       5.450   4.380  15.048  0.00  0.00    +0.000 A 
ATOM      5  C   UNL     1       4.745   4.134  16.208  0.00  0.00    +0.000 A 
ATOM      6  C   UNL     1       5.371   4.211  17.471  0.00  0.00    +0.000 A 
ATOM      7  C   UNL     1       4.316   4.142  18.527  0.00  0.00    +0.000 C 
ATOM      8  C   UNL     1       4.525   3.499  19.888  0.00  0.00    +0.000 C 
ATOM      9  C   UNL     1       3.162   3.184  20.548  0.00  0.00    +0.000 C 
ATOM     10  N   UNL     1       1.964   3.825  19.951  0.00  0.00    +0.000 NA
ATOM     11  C   UNL     1       1.869   3.559  18.500  0.00  0.00    +0.000 C 
ATOM     12  C   UNL     1       3.210   3.374  17.796  0.00  0.00    +0.000 C 
ATOM     13  C   UNL     1       3.271   3.868  16.345  0.00  0.00    +0.000 C 
ENDROOT
BRANCH   1  15
ATOM     14  C   UNL     1       7.863   5.798  19.226  0.00  0.00    +0.000 C 
ATOM     15  O   UNL     1       7.211   4.590  18.863  0.00  0.00    +0.000 OA
ENDBRANCH   1  15
BRANCH  10  16
ATOM     16  C   UNL     1       1.831   5.244  20.331  0.00  0.00    +0.000 C 
BRANCH  16  17
ATOM     17  C   UNL     1       1.629   6.239  19.174  0.00  0.00    +0.000 C 
BRANCH  17  18
ATOM     18  C   UNL     1       2.435   7.531  19.317  0.00  0.00    +0.000 C 
BRANCH  18  19
ATOM     19  N   UNL     1       1.539   8.645  19.656  0.00  0.00    +0.000 N 
ATOM     20  C   UNL     1       1.014   8.980  20.924  0.00  0.00    +0.000 C 
ATOM     21  O   UNL     1       1.186   8.354  21.962  0.00  0.00    +0.000 OA
ATOM     22  C   UNL     1       0.236  10.226  20.814  0.00  0.00    +0.000 A 
ATOM     23  C   UNL     1      -0.422  10.897  21.839  0.00  0.00    +0.000 A 
ATOM     24  C   UNL     1      -1.105  12.080  21.528  0.00  0.00    +0.000 A 
ATOM     25  C   UNL     1      -1.132  12.574  20.211  0.00  0.00    +0.000 A 
ATOM     26  C   UNL     1      -0.473  11.902  19.183  0.00  0.00    +0.000 A 
ATOM     27  C   UNL     1       0.201  10.735  19.521  0.00  0.00    +0.000 A 
ATOM     28  S   UNL     1       1.107   9.721  18.434  0.00  0.00    +0.000 S 
ATOM     29  O   UNL     1       0.182   9.077  17.535  0.00  0.00    +0.000 OA
ATOM     30  O   UNL     1       2.274  10.448  18.003  0.00  0.00    +0.000 OA
ENDBRANCH  18  19
ENDBRANCH  17  18
ENDBRANCH  16  17
ENDBRANCH  10  16
TORSDOF 5
ENDMDL
MODEL 3
REMARK VINA RESULT:      -7.7      1.184      1.439
REMARK  Name = 
REMARK  6 active torsions:
REMARK  status: ('A' for Active; 'I' for Inactive)
REMARK    1  A    between atoms: C_1  and  O_2
REMARK    2  A    between atoms: O_2  and  C_3
REMARK    3  A    between atoms: N_12  and  C_13
REMARK    4  A    between atoms: C_13  and  C_14
REMARK    5  A    between atoms: C_14  and  C_15
REMARK    6  A    between atoms: C_15  and  N_16
REMARK                            x       y       z     vdW  Elec       q    Type
REMARK                         _______ _______ _______ _____ _____    ______ ____
ROOT
ATOM      1  C   UNL     1       7.017   5.789  19.068  0.00  0.00    +0.000 A 
ATOM      2  C   UNL     1       7.832   6.717  18.406  0.00  0.00    +0.000 A 
ATOM      3  C   UNL     1       7.381   7.388  17.254  0.00  0.00    +0.000 A 
ATOM      4  C   UNL     1       6.114   7.138  16.725  0.00  0.00    +0.000 A 
ATOM      5  C   UNL     1       5.316   6.212  17.367  0.00  0.00    +0.000 A 
ATOM      6  C   UNL     1       5.760   5.555  18.535  0.00  0.00    +0.000 A 
ATOM      7  C   UNL     1       4.605   4.815  19.129  0.00  0.00    +0.000 C 
ATOM      8  C   UNL     1       4.740   3.500  19.878  0.00  0.00    +0.000 C 
ATOM      9  C   UNL     1       3.371   2.783  19.955  0.00  0.00    +0.000 C 
ATOM     10  N   UNL     1       2.172   3.591  19.621  0.00  0.00    +0.000 NA
ATOM     11  C   UNL     1       2.302   4.237  18.298  0.00  0.00    +0.000 C 
ATOM     12  C   UNL     1       3.733   4.577  17.891  0.00  0.00    +0.000 C 
ATOM     13  C   UNL     1       3.897   5.841  17.037  0.00  0.00    +0.000 C 
ENDROOT
BRANCH   1  15
ATOM     14  C   UNL     1       8.702   5.064  20.572  0.00  0.00    +0.000 C 
ATOM     15  O   UNL     1       7.329   5.124  20.215  0.00  0.00    +0.000 OA
ENDBRANCH   1  15
BRANCH  10  16
ATOM     16  C   UNL     1       1.772   4.494  20.715  0.00  0.00    +0.000 C 
BRANCH  16  17
ATOM     17  C   UNL     1       1.273   5.888  20.294  0.00  0.00    +0.000 C 
BRANCH  17  18
ATOM     18  C   UNL     1       1.986   7.043  20.998  0.00  0.00    +0.000 C 
BRANCH  18  19
ATOM     19  N   UNL     1       1.321   8.313  20.680  0.00  0.00    +0.000 N 
ATOM     20  C   UNL     1       1.332   9.013  19.453  0.00  0.00    +0.000 C 
ATOM     21  O   UNL     1       1.950   8.691  18.447  0.00  0.00    +0.000 OA
ATOM     22  C   UNL     1       0.456  10.193  19.558  0.00  0.00    +0.000 A 
ATOM     23  C   UNL     1       0.181  11.126  18.563  0.00  0.00    +0.000 A 
ATOM     24  C   UNL     1      -0.691  12.180  18.864  0.00  0.00    +0.000 A 
ATOM     25  C   UNL     1      -1.270  12.298  20.140  0.00  0.00    +0.000 A 
ATOM     26  C   UNL     1      -0.995  11.365  21.138  0.00  0.00    +0.000 A 
ATOM     27  C   UNL     1      -0.130  10.327  20.811  0.00  0.00    +0.000 A 
ATOM     28  S   UNL     1       0.363   9.031  21.865  0.00  0.00    +0.000 S 
ATOM     29  O   UNL     1       1.210   9.580  22.895  0.00  0.00    +0.000 OA
ATOM     30  O   UNL     1      -0.782   8.197  22.125  0.00  0.00    +0.000 OA
ENDBRANCH  18  19
ENDBRANCH  17  18
ENDBRANCH  16  17
ENDBRANCH  10  16
TORSDOF 5
ENDMDL
MODEL 4
REMARK VINA RESULT:      -7.7      2.484      4.640
REMARK  Name = 
REMARK  6 active torsions:
REMARK  status: ('A' for Active; 'I' for Inactive)
REMARK    1  A    between atoms: C_1  and  O_2
REMARK    2  A    between atoms: O_2  and  C_3
REMARK    3  A    between atoms: N_12  and  C_13
REMARK    4  A    between atoms: C_13  and  C_14
REMARK    5  A    between atoms: C_14  and  C_15
REMARK    6  A    between atoms: C_15  and  N_16
REMARK                            x       y       z     vdW  Elec       q    Type
REMARK                         _______ _______ _______ _____ _____    ______ ____
ROOT
ATOM      1  C   UNL     1       2.385   3.457  18.092  0.00  0.00    +0.000 A 
ATOM      2  C   UNL     1       1.990   2.208  18.587  0.00  0.00    +0.000 A 
ATOM      3  C   UNL     1       1.372   2.087  19.846  0.00  0.00    +0.000 A 
ATOM      4  C   UNL     1       1.148   3.208  20.646  0.00  0.00    +0.000 A 
ATOM      5  C   UNL     1       1.550   4.438  20.166  0.00  0.00    +0.000 A 
ATOM      6  C   UNL     1       2.151   4.561  18.895  0.00  0.00    +0.000 A 
ATOM      7  C   UNL     1       2.245   6.014  18.555  0.00  0.00    +0.000 C 
ATOM      8  C   UNL     1       3.370   6.616  17.730  0.00  0.00    +0.000 C 
ATOM      9  C   UNL     1       3.431   8.147  17.944  0.00  0.00    +0.000 C 
ATOM     10  N   UNL     1       2.258   8.781  18.594  0.00  0.00    +0.000 NA
ATOM     11  C   UNL     1       1.929   8.130  19.880  0.00  0.00    +0.000 C 
ATOM     12  C   UNL     1       2.280   6.646  19.951  0.00  0.00    +0.000 C 
ATOM     13  C   UNL     1       1.342   5.783  20.805  0.00  0.00    +0.000 C 
ENDROOT
BRANCH   1  15
ATOM     14  C   UNL     1       4.341   3.493  16.749  0.00  0.00    +0.000 C 
ATOM     15  O   UNL     1       2.940   3.696  16.871  0.00  0.00    +0.000 OA
ENDBRANCH   1  15
BRANCH  10  16
ATOM     16  C   UNL     1       1.118   8.946  17.674  0.00  0.00    +0.000 C 
BRANCH  16  17
ATOM     17  C   UNL     1      -0.074   9.758  18.211  0.00  0.00    +0.000 C 
BRANCH  17  18
ATOM     18  C   UNL     1       0.300  11.155  18.711  0.00  0.00    +0.000 C 
BRANCH  18  19
ATOM     19  N   UNL     1      -0.689  11.617  19.694  0.00  0.00    +0.000 N 
ATOM     20  C   UNL     1      -2.020  12.025  19.457  0.00  0.00    +0.000 C 
ATOM     21  O   UNL     1      -2.564  12.107  18.363  0.00  0.00    +0.000 OA
ATOM     22  C   UNL     1      -2.675  12.321  20.744  0.00  0.00    +0.000 A 
ATOM     23  C   UNL     1      -3.989  12.732  20.942  0.00  0.00    +0.000 A 
ATOM     24  C   UNL     1      -4.424  12.955  22.255  0.00  0.00    +0.000 A 
ATOM     25  C   UNL     1      -3.554  12.775  23.344  0.00  0.00    +0.000 A 
ATOM     26  C   UNL     1      -2.237  12.364  23.147  0.00  0.00    +0.000 A 
ATOM     27  C   UNL     1      -1.834  12.145  21.836  0.00  0.00    +0.000 A 
ATOM     28  S   UNL     1      -0.256  11.618  21.321  0.00  0.00    +0.000 S 
ATOM     29  O   UNL     1       0.682  12.686  21.565  0.00  0.00    +0.000 OA
ATOM     30  O   UNL     1      -0.064  10.261  21.766  0.00  0.00    +0.000 OA
ENDBRANCH  18  19
ENDBRANCH  17  18
ENDBRANCH  16  17
ENDBRANCH  10  16
TORSDOF 5
ENDMDL
MODEL 5
REMARK VINA RESULT:      -7.5      2.547      4.785
REMARK  Name = 
REMARK  6 active torsions:
REMARK  status: ('A' for Active; 'I' for Inactive)
REMARK    1  A    between atoms: C_1  and  O_2
REMARK    2  A    between atoms: O_2  and  C_3
REMARK    3  A    between atoms: N_12  and  C_13
REMARK    4  A    between atoms: C_13  and  C_14
REMARK    5  A    between atoms: C_14  and  C_15
REMARK    6  A    between atoms: C_15  and  N_16
REMARK                            x       y       z     vdW  Elec       q    Type
REMARK                         _______ _______ _______ _____ _____    ______ ____
ROOT
ATOM      1  C   UNL     1       2.581   3.347  17.977  0.00  0.00    +0.000 A 
ATOM      2  C   UNL     1       2.226   2.073  18.438  0.00  0.00    +0.000 A 
ATOM      3  C   UNL     1       1.600   1.900  19.687  0.00  0.00    +0.000 A 
ATOM      4  C   UNL     1       1.328   2.992  20.511  0.00  0.00    +0.000 A 
ATOM      5  C   UNL     1       1.691   4.247  20.065  0.00  0.00    +0.000 A 
ATOM      6  C   UNL     1       2.300   4.422  18.803  0.00  0.00    +0.000 A 
ATOM      7  C   UNL     1       2.346   5.885  18.499  0.00  0.00    +0.000 C 
ATOM      8  C   UNL     1       3.457   6.546  17.701  0.00  0.00    +0.000 C 
ATOM      9  C   UNL     1       3.461   8.073  17.951  0.00  0.00    +0.000 C 
ATOM     10  N   UNL     1       2.259   8.649  18.604  0.00  0.00    +0.000 NA
ATOM     11  C   UNL     1       1.942   7.956  19.870  0.00  0.00    +0.000 C 
ATOM     12  C   UNL     1       2.344   6.484  19.910  0.00  0.00    +0.000 C 
ATOM     13  C   UNL     1       1.428   5.568  20.733  0.00  0.00    +0.000 C 
ENDROOT
BRANCH   1  15
ATOM     14  C   UNL     1       4.547   3.476  16.655  0.00  0.00    +0.000 C 
ATOM     15  O   UNL     1       3.140   3.634  16.768  0.00  0.00    +0.000 OA
ENDBRANCH   1  15
BRANCH  10  16
ATOM     16  C   UNL     1       1.124   8.796  17.675  0.00  0.00    +0.000 C 
BRANCH  16  17
ATOM     17  C   UNL     1       0.102   9.893  18.023  0.00  0.00    +0.000 C 
BRANCH  17  18
ATOM     18  C   UNL     1       0.657  10.996  18.925  0.00  0.00    +0.000 C 
BRANCH  18  19
ATOM     19  N   UNL     1      -0.361  11.405  19.902  0.00  0.00    +0.000 N 
ATOM     20  C   UNL     1      -0.464  11.023  21.257  0.00  0.00    +0.000 C 
ATOM     21  O   UNL     1       0.268  10.233  21.840  0.00  0.00    +0.000 OA
ATOM     22  C   UNL     1      -1.587  11.744  21.882  0.00  0.00    +0.000 A 
ATOM     23  C   UNL     1      -2.004  11.661  23.206  0.00  0.00    +0.000 A 
ATOM     24  C   UNL     1      -3.097  12.440  23.608  0.00  0.00    +0.000 A 
ATOM     25  C   UNL     1      -3.761  13.279  22.696  0.00  0.00    +0.000 A 
ATOM     26  C   UNL     1      -3.345  13.362  21.368  0.00  0.00    +0.000 A 
ATOM     27  C   UNL     1      -2.255  12.583  20.998  0.00  0.00    +0.000 A 
ATOM     28  S   UNL     1      -1.533  12.513  19.416  0.00  0.00    +0.000 S 
ATOM     29  O   UNL     1      -2.460  11.866  18.520  0.00  0.00    +0.000 OA
ATOM     30  O   UNL     1      -0.908  13.783  19.146  0.00  0.00    +0.000 OA
ENDBRANCH  18  19
ENDBRANCH  17  18
ENDBRANCH  16  17
ENDBRANCH  10  16
TORSDOF 5
ENDMDL
MODEL 6
REMARK VINA RESULT:      -7.5      6.725      9.788
REMARK  Name = 
REMARK  6 active torsions:
REMARK  status: ('A' for Active; 'I' for Inactive)
REMARK    1  A    between atoms: C_1  and  O_2
REMARK    2  A    between atoms: O_2  and  C_3
REMARK    3  A    between atoms: N_12  and  C_13
REMARK    4  A    between atoms: C_13  and  C_14
REMARK    5  A    between atoms: C_14  and  C_15
REMARK    6  A    between atoms: C_15  and  N_16
REMARK                            x       y       z     vdW  Elec       q    Type
REMARK                         _______ _______ _______ _____ _____    ______ ____
ROOT
ATOM      1  C   UNL     1       8.790  15.554  18.697  0.00  0.00    +0.000 A 
ATOM      2  C   UNL     1       9.044  16.815  18.143  0.00  0.00    +0.000 A 
ATOM      3  C   UNL     1      10.083  17.004  17.211  0.00  0.00    +0.000 A 
ATOM      4  C   UNL     1      10.902  15.943  16.824  0.00  0.00    +0.000 A 
ATOM      5  C   UNL     1      10.662  14.703  17.381  0.00  0.00    +0.000 A 
ATOM      6  C   UNL     1       9.606  14.509  18.299  0.00  0.00    +0.000 A 
ATOM      7  C   UNL     1       9.443  13.041  18.529  0.00  0.00    +0.000 C 
ATOM      8  C   UNL     1       8.998  12.439  19.852  0.00  0.00    +0.000 C 
ATOM      9  C   UNL     1       9.366  10.937  19.908  0.00  0.00    +0.000 C 
ATOM     10  N   UNL     1       9.748  10.293  18.627  0.00  0.00    +0.000 NA
ATOM     11  C   UNL     1      10.837  11.028  17.950  0.00  0.00    +0.000 C 
ATOM     12  C   UNL     1      10.854  12.531  18.218  0.00  0.00    +0.000 C 
ATOM     13  C   UNL     1      11.350  13.405  17.058  0.00  0.00    +0.000 C 
ENDROOT
BRANCH   1  15
ATOM     14  C   UNL     1       6.466  15.610  19.172  0.00  0.00    +0.000 C 
ATOM     15  O   UNL     1       7.783  15.248  19.562  0.00  0.00    +0.000 OA
ENDBRANCH   1  15
BRANCH  10  16
ATOM     16  C   UNL     1       8.584   9.985  17.776  0.00  0.00    +0.000 C 
BRANCH  16  17
ATOM     17  C   UNL     1       7.697   8.816  18.239  0.00  0.00    +0.000 C 
BRANCH  17  18
ATOM     18  C   UNL     1       7.812   7.564  17.368  0.00  0.00    +0.000 C 
BRANCH  18  19
ATOM     19  N   UNL     1       6.737   6.620  17.702  0.00  0.00    +0.000 N 
ATOM     20  C   UNL     1       5.386   6.668  17.295  0.00  0.00    +0.000 C 
ATOM     21  O   UNL     1       4.867   7.549  16.622  0.00  0.00    +0.000 OA
ATOM     22  C   UNL     1       4.686   5.469  17.790  0.00  0.00    +0.000 A 
ATOM     23  C   UNL     1       3.352   5.131  17.586  0.00  0.00    +0.000 A 
ATOM     24  C   UNL     1       2.878   3.934  18.139  0.00  0.00    +0.000 A 
ATOM     25  C   UNL     1       3.726   3.098  18.886  0.00  0.00    +0.000 A 
ATOM     26  C   UNL     1       5.063   3.435  19.092  0.00  0.00    +0.000 A 
ATOM     27  C   UNL     1       5.508   4.625  18.528  0.00  0.00    +0.000 A 
ATOM     28  S   UNL     1       7.124   5.266  18.625  0.00  0.00    +0.000 S 
ATOM     29  O   UNL     1       7.372   5.670  19.987  0.00  0.00    +0.000 OA
ATOM     30  O   UNL     1       7.998   4.406  17.869  0.00  0.00    +0.000 OA
ENDBRANCH  18  19
ENDBRANCH  17  18
ENDBRANCH  16  17
ENDBRANCH  10  16
TORSDOF 5
ENDMDL
MODEL 7
REMARK VINA RESULT:      -7.5      2.725      8.928
REMARK  Name = 
REMARK  6 active torsions:
REMARK  status: ('A' for Active; 'I' for Inactive)
REMARK    1  A    between atoms: C_1  and  O_2
REMARK    2  A    between atoms: O_2  and  C_3
REMARK    3  A    between atoms: N_12  and  C_13
REMARK    4  A    between atoms: C_13  and  C_14
REMARK    5  A    between atoms: C_14  and  C_15
REMARK    6  A    between atoms: C_15  and  N_16
REMARK                            x       y       z     vdW  Elec       q    Type
REMARK                         _______ _______ _______ _____ _____    ______ ____
ROOT
ATOM      1  C   UNL     1      -3.962  12.153  19.323  0.00  0.00    +0.000 A 
ATOM      2  C   UNL     1      -5.152  12.016  18.597  0.00  0.00    +0.000 A 
ATOM      3  C   UNL     1      -5.196  11.266  17.406  0.00  0.00    +0.000 A 
ATOM      4  C   UNL     1      -4.050  10.649  16.904  0.00  0.00    +0.000 A 
ATOM      5  C   UNL     1      -2.873  10.795  17.610  0.00  0.00    +0.000 A 
ATOM      6  C   UNL     1      -2.834  11.530  18.816  0.00  0.00    +0.000 A 
ATOM      7  C   UNL     1      -1.506  11.304  19.464  0.00  0.00    +0.000 C 
ATOM      8  C   UNL     1      -0.785  12.352  20.296  0.00  0.00    +0.000 C 
ATOM      9  C   UNL     1       0.714  11.991  20.429  0.00  0.00    +0.000 C 
ATOM     10  N   UNL     1       1.108  10.612  20.051  0.00  0.00    +0.000 NA
ATOM     11  C   UNL     1       0.651  10.269  18.688  0.00  0.00    +0.000 C 
ATOM     12  C   UNL     1      -0.634  10.968  18.250  0.00  0.00    +0.000 C 
ATOM     13  C   UNL     1      -1.542  10.160  17.315  0.00  0.00    +0.000 C 
ENDROOT
BRANCH   1  15
ATOM     14  C   UNL     1      -4.907  12.740  21.419  0.00  0.00    +0.000 C 
ATOM     15  O   UNL     1      -3.818  12.807  20.509  0.00  0.00    +0.000 OA
ENDBRANCH   1  15
BRANCH  10  16
ATOM     16  C   UNL     1       0.768   9.619  21.087  0.00  0.00    +0.000 C 
BRANCH  16  17
ATOM     17  C   UNL     1       0.578   8.171  20.601  0.00  0.00    +0.000 C 
BRANCH  17  18
ATOM     18  C   UNL     1       1.511   7.162  21.271  0.00  0.00    +0.000 C 
BRANCH  18  19
ATOM     19  N   UNL     1       2.041   6.227  20.270  0.00  0.00    +0.000 N 
ATOM     20  C   UNL     1       2.775   6.532  19.103  0.00  0.00    +0.000 C 
ATOM     21  O   UNL     1       3.056   7.653  18.702  0.00  0.00    +0.000 OA
ATOM     22  C   UNL     1       3.180   5.278  18.442  0.00  0.00    +0.000 A 
ATOM     23  C   UNL     1       3.932   5.148  17.279  0.00  0.00    +0.000 A 
ATOM     24  C   UNL     1       4.218   3.858  16.814  0.00  0.00    +0.000 A 
ATOM     25  C   UNL     1       3.751   2.723  17.500  0.00  0.00    +0.000 A 
ATOM     26  C   UNL     1       2.997   2.852  18.665  0.00  0.00    +0.000 A 
ATOM     27  C   UNL     1       2.733   4.143  19.106  0.00  0.00    +0.000 A 
ATOM     28  S   UNL     1       1.830   4.576  20.531  0.00  0.00    +0.000 S 
ATOM     29  O   UNL     1       0.447   4.231  20.316  0.00  0.00    +0.000 OA
ATOM     30  O   UNL     1       2.589   4.174  21.688  0.00  0.00    +0.000 OA
ENDBRANCH  18  19
ENDBRANCH  17  18
ENDBRANCH  16  17
ENDBRANCH  10  16
TORSDOF 5
ENDMDL
MODEL 8
REMARK VINA RESULT:      -7.4      6.725      9.969
REMARK  Name = 
REMARK  6 active torsions:
REMARK  status: ('A' for Active; 'I' for Inactive)
REMARK    1  A    between atoms: C_1  and  O_2
REMARK    2  A    between atoms: O_2  and  C_3
REMARK    3  A    between atoms: N_12  and  C_13
REMARK    4  A    between atoms: C_13  and  C_14
REMARK    5  A    between atoms: C_14  and  C_15
REMARK    6  A    between atoms: C_15  and  N_16
REMARK                            x       y       z     vdW  Elec       q    Type
REMARK                         _______ _______ _______ _____ _____    ______ ____
ROOT
ATOM      1  C   UNL     1       9.114  15.553  18.567  0.00  0.00    +0.000 A 
ATOM      2  C   UNL     1       9.515  16.758  17.976  0.00  0.00    +0.000 A 
ATOM      3  C   UNL     1      10.600  16.801  17.080  0.00  0.00    +0.000 A 
ATOM      4  C   UNL     1      11.320  15.648  16.766  0.00  0.00    +0.000 A 
ATOM      5  C   UNL     1      10.935  14.463  17.360  0.00  0.00    +0.000 A 
ATOM      6  C   UNL     1       9.833  14.415  18.242  0.00  0.00    +0.000 A 
ATOM      7  C   UNL     1       9.514  12.982  18.522  0.00  0.00    +0.000 C 
ATOM      8  C   UNL     1       8.963  12.484  19.848  0.00  0.00    +0.000 C 
ATOM      9  C   UNL     1       9.173  10.957  19.976  0.00  0.00    +0.000 C 
ATOM     10  N   UNL     1       9.533  10.223  18.737  0.00  0.00    +0.000 NA
ATOM     11  C   UNL     1      10.714  10.817  18.076  0.00  0.00    +0.000 C 
ATOM     12  C   UNL     1      10.875  12.320  18.286  0.00  0.00    +0.000 C 
ATOM     13  C   UNL     1      11.498  13.091  17.115  0.00  0.00    +0.000 C 
ENDROOT
BRANCH   1  15
ATOM     14  C   UNL     1       6.759  15.392  18.812  0.00  0.00    +0.000 C 
ATOM     15  O   UNL     1       8.051  15.386  19.403  0.00  0.00    +0.000 OA
ENDBRANCH   1  15
BRANCH  10  16
ATOM     16  C   UNL     1       8.374   9.999  17.853  0.00  0.00    +0.000 C 
BRANCH  16  17
ATOM     17  C   UNL     1       8.123   8.543  17.422  0.00  0.00    +0.000 C 
BRANCH  17  18
ATOM     18  C   UNL     1       8.253   7.527  18.558  0.00  0.00    +0.000 C 
BRANCH  18  19
ATOM     19  N   UNL     1       7.254   6.462  18.396  0.00  0.00    +0.000 N 
ATOM     20  C   UNL     1       6.895   5.463  19.327  0.00  0.00    +0.000 C 
ATOM     21  O   UNL     1       7.401   5.289  20.427  0.00  0.00    +0.000 OA
ATOM     22  C   UNL     1       5.786   4.663  18.777  0.00  0.00    +0.000 A 
ATOM     23  C   UNL     1       5.133   3.600  19.392  0.00  0.00    +0.000 A 
ATOM     24  C   UNL     1       4.090   2.971  18.700  0.00  0.00    +0.000 A 
ATOM     25  C   UNL     1       3.716   3.398  17.414  0.00  0.00    +0.000 A 
ATOM     26  C   UNL     1       4.369   4.463  16.796  0.00  0.00    +0.000 A 
ATOM     27  C   UNL     1       5.396   5.072  17.507  0.00  0.00    +0.000 A 
ATOM     28  S   UNL     1       6.356   6.422  16.972  0.00  0.00    +0.000 S 
ATOM     29  O   UNL     1       7.198   5.980  15.888  0.00  0.00    +0.000 OA
ATOM     30  O   UNL     1       5.508   7.585  16.908  0.00  0.00    +0.000 OA
ENDBRANCH  18  19
ENDBRANCH  17  18
ENDBRANCH  16  17
ENDBRANCH  10  16
TORSDOF 5
ENDMDL
MODEL 9
REMARK VINA RESULT:      -7.4      2.200      4.226
REMARK  Name = 
REMARK  6 active torsions:
REMARK  status: ('A' for Active; 'I' for Inactive)
REMARK    1  A    between atoms: C_1  and  O_2
REMARK    2  A    between atoms: O_2  and  C_3
REMARK    3  A    between atoms: N_12  and  C_13
REMARK    4  A    between atoms: C_13  and  C_14
REMARK    5  A    between atoms: C_14  and  C_15
REMARK    6  A    between atoms: C_15  and  N_16
REMARK                            x       y       z     vdW  Elec       q    Type
REMARK                         _______ _______ _______ _____ _____    ______ ____
ROOT
ATOM      1  C   UNL     1       3.022   3.366  17.574  0.00  0.00    +0.000 A 
ATOM      2  C   UNL     1       2.785   2.026  17.908  0.00  0.00    +0.000 A 
ATOM      3  C   UNL     1       2.177   1.677  19.129  0.00  0.00    +0.000 A 
ATOM      4  C   UNL     1       1.807   2.656  20.052  0.00  0.00    +0.000 A 
ATOM      5  C   UNL     1       2.053   3.975  19.731  0.00  0.00    +0.000 A 
ATOM      6  C   UNL     1       2.643   4.326  18.497  0.00  0.00    +0.000 A 
ATOM      7  C   UNL     1       2.555   5.810  18.336  0.00  0.00    +0.000 C 
ATOM      8  C   UNL     1       3.601   6.643  17.614  0.00  0.00    +0.000 C 
ATOM      9  C   UNL     1       3.465   8.133  18.010  0.00  0.00    +0.000 C 
ATOM     10  N   UNL     1       2.216   8.531  18.704  0.00  0.00    +0.000 NA
ATOM     11  C   UNL     1       1.963   7.693  19.895  0.00  0.00    +0.000 C 
ATOM     12  C   UNL     1       2.498   6.267  19.797  0.00  0.00    +0.000 C 
ATOM     13  C   UNL     1       1.671   5.197  20.520  0.00  0.00    +0.000 C 
ENDROOT
BRANCH   1  15
ATOM     14  C   UNL     1       4.962   3.729  16.258  0.00  0.00    +0.000 C 
ATOM     15  O   UNL     1       3.552   3.818  16.404  0.00  0.00    +0.000 OA
ENDBRANCH   1  15
BRANCH  10  16
ATOM     16  C   UNL     1       1.071   8.662  17.784  0.00  0.00    +0.000 C 
BRANCH  16  17
ATOM     17  C   UNL     1       0.282   9.981  17.869  0.00  0.00    +0.000 C 
BRANCH  17  18
ATOM     18  C   UNL     1       0.969  11.065  18.702  0.00  0.00    +0.000 C 
BRANCH  18  19
ATOM     19  N   UNL     1       0.057  11.547  19.748  0.00  0.00    +0.000 N 
ATOM     20  C   UNL     1      -0.801  12.667  19.700  0.00  0.00    +0.000 C 
ATOM     21  O   UNL     1      -0.893  13.464  18.776  0.00  0.00    +0.000 OA
ATOM     22  C   UNL     1      -1.599  12.721  20.938  0.00  0.00    +0.000 A 
ATOM     23  C   UNL     1      -2.572  13.659  21.268  0.00  0.00    +0.000 A 
ATOM     24  C   UNL     1      -3.228  13.530  22.500  0.00  0.00    +0.000 A 
ATOM     25  C   UNL     1      -2.906  12.485  23.383  0.00  0.00    +0.000 A 
ATOM     26  C   UNL     1      -1.931  11.545  23.054  0.00  0.00    +0.000 A 
ATOM     27  C   UNL     1      -1.301  11.694  21.824  0.00  0.00    +0.000 A 
ATOM     28  S   UNL     1      -0.065  10.655  21.172  0.00  0.00    +0.000 S 
ATOM     29  O   UNL     1       1.136  10.832  21.951  0.00  0.00    +0.000 OA
ATOM     30  O   UNL     1      -0.656   9.373  20.884  0.00  0.00    +0.000 OA
ENDBRANCH  18  19
ENDBRANCH  17  18
ENDBRANCH  16  17
ENDBRANCH  10  16
TORSDOF 5
ENDMDL
