MODEL 1
REMARK VINA RESULT:      -5.8      0.000      0.000
REMARK  Name = 
REMARK  10 active torsions:
REMARK  status: ('A' for Active; 'I' for Inactive)
REMARK    1  A    between atoms: C_1  and  C_2
REMARK    2  A    between atoms: C_2  and  C_3
REMARK    3  A    between atoms: C_3  and  N_4
REMARK    4  A    between atoms: C_3  and  C_5
REMARK    5  A    between atoms: C_3  and  C_13
REMARK    6  A    between atoms: C_5  and  S_6
REMARK    7  A    between atoms: S_6  and  C_7
REMARK    8  A    between atoms: C_7  and  C_8
REMARK    9  A    between atoms: C_8  and  N_9
REMARK   10  A    between atoms: C_13  and  O_15
REMARK                            x       y       z     vdW  Elec       q    Type
REMARK                         _______ _______ _______ _____ _____    ______ ____
ROOT
ATOM      1  C   UNL     1       4.683   5.571  17.136  0.00  0.00    +0.000 C 
ENDROOT
BRANCH   1   2
ATOM      2  C   UNL     1       5.705   4.712  16.312  0.00  0.00    +0.000 C 
BRANCH   2   3
ATOM      3  N   UNL     1       5.495   3.300  16.663  0.00  0.00    +0.000 NA
ATOM      4  H   UNL     1       6.124   3.025  17.453  0.00  0.00    +0.000 HD
ATOM      5  H   UNL     1       5.696   2.671  15.851  0.00  0.00    +0.000 HD
ENDBRANCH   2   3
BRANCH   2   7
ATOM      6  C   UNL     1       6.264   3.893  13.899  0.00  0.00    +0.000 C 
ATOM      7  C   UNL     1       5.483   4.877  14.774  0.00  0.00    +0.000 C 
ENDBRANCH   2   7
BRANCH   2   8
ATOM      8  C   UNL     1       7.150   5.089  16.654  0.00  0.00    +0.000 C 
ATOM      9  O   UNL     1       7.551   6.231  16.482  0.00  0.00    +0.000 OA
BRANCH   8  10
ATOM     10  O   UNL     1       8.011   4.173  17.152  0.00  0.00    +0.000 OA
ATOM     11  H   UNL     1       8.220   4.106  18.096  0.00  0.00    +0.000 HD
ENDBRANCH   8  10
ENDBRANCH   2   8
ENDBRANCH   1   2
BRANCH   1  12
ATOM     12  S   UNL     1       4.950   5.345  18.938  0.00  0.00    +0.000 S 
BRANCH  12  13
ATOM     13  C   UNL     1       3.217   5.273  19.522  0.00  0.00    +0.000 C 
BRANCH  13  14
ATOM     14  C   UNL     1       3.037   3.900  20.188  0.00  0.00    +0.000 C 
BRANCH  14  15
ATOM     15  N   UNL     1       3.825   2.851  19.566  0.00  0.00    +0.000 N 
ATOM     16  C   UNL     1       3.226   1.814  18.775  0.00  0.00    +0.000 C 
ATOM     17  N   UNL     1       1.953   1.770  18.569  0.00  0.00    +0.000 NA
ATOM     18  N   UNL     1       4.041   0.807  18.200  0.00  0.00    +0.000 N 
ATOM     19  H   UNL     1       4.848   2.838  19.698  0.00  0.00    +0.000 HD
ATOM     20  H   UNL     1       1.292   2.460  18.950  0.00  0.00    +0.000 HD
ATOM     21  H   UNL     1       5.062   0.807  18.345  0.00  0.00    +0.000 HD
ATOM     22  H   UNL     1       3.619   0.056  17.629  0.00  0.00    +0.000 HD
ENDBRANCH  14  15
ENDBRANCH  13  14
ENDBRANCH  12  13
ENDBRANCH   1  12
TORSDOF 9
ENDMDL
MODEL 2
REMARK VINA RESULT:      -5.5      0.607      1.010
REMARK  Name = 
REMARK  10 active torsions:
REMARK  status: ('A' for Active; 'I' for Inactive)
REMARK    1  A    between atoms: C_1  and  C_2
REMARK    2  A    between atoms: C_2  and  C_3
REMARK    3  A    between atoms: C_3  and  N_4
REMARK    4  A    between atoms: C_3  and  C_5
REMARK    5  A    between atoms: C_3  and  C_13
REMARK    6  A    between atoms: C_5  and  S_6
REMARK    7  A    between atoms: S_6  and  C_7
REMARK    8  A    between atoms: C_7  and  C_8
REMARK    9  A    between atoms: C_8  and  N_9
REMARK   10  A    between atoms: C_13  and  O_15
REMARK                            x       y       z     vdW  Elec       q    Type
REMARK                         _______ _______ _______ _____ _____    ______ ____
ROOT
ATOM      1  C   UNL     1       4.855   5.943  17.661  0.00  0.00    +0.000 C 
ENDROOT
BRANCH   1   2
ATOM      2  C   UNL     1       5.682   4.956  16.765  0.00  0.00    +0.000 C 
BRANCH   2   3
ATOM      3  N   UNL     1       5.496   3.599  17.297  0.00  0.00    +0.000 NA
ATOM      4  H   UNL     1       4.966   3.010  16.615  0.00  0.00    +0.000 HD
ATOM      5  H   UNL     1       4.966   3.612  18.199  0.00  0.00    +0.000 HD
ENDBRANCH   2   3
BRANCH   2   7
ATOM      6  C   UNL     1       6.027   4.148  14.308  0.00  0.00    +0.000 C 
ATOM      7  C   UNL     1       5.186   4.978  15.283  0.00  0.00    +0.000 C 
ENDBRANCH   2   7
BRANCH   2   8
ATOM      8  C   UNL     1       7.176   5.294  16.800  0.00  0.00    +0.000 C 
ATOM      9  O   UNL     1       8.000   4.437  17.082  0.00  0.00    +0.000 OA
BRANCH   8  10
ATOM     10  O   UNL     1       7.615   6.541  16.519  0.00  0.00    +0.000 OA
ATOM     11  H   UNL     1       8.042   7.109  17.178  0.00  0.00    +0.000 HD
ENDBRANCH   8  10
ENDBRANCH   2   8
ENDBRANCH   1   2
BRANCH   1  12
ATOM     12  S   UNL     1       4.510   5.195  19.302  0.00  0.00    +0.000 S 
BRANCH  12  13
ATOM     13  C   UNL     1       2.689   5.375  19.371  0.00  0.00    +0.000 C 
BRANCH  13  14
ATOM     14  C   UNL     1       2.122   3.973  19.642  0.00  0.00    +0.000 C 
BRANCH  14  15
ATOM     15  N   UNL     1       3.105   2.915  19.493  0.00  0.00    +0.000 N 
ATOM     16  C   UNL     1       2.998   1.913  18.471  0.00  0.00    +0.000 C 
ATOM     17  N   UNL     1       2.023   1.910  17.625  0.00  0.00    +0.000 NA
ATOM     18  N   UNL     1       3.980   0.895  18.377  0.00  0.00    +0.000 N 
ATOM     19  H   UNL     1       3.904   2.871  20.142  0.00  0.00    +0.000 HD
ATOM     20  H   UNL     1       1.270   2.610  17.624  0.00  0.00    +0.000 HD
ATOM     21  H   UNL     1       4.772   0.863  19.038  0.00  0.00    +0.000 HD
ATOM     22  H   UNL     1       3.911   0.168  17.646  0.00  0.00    +0.000 HD
ENDBRANCH  14  15
ENDBRANCH  13  14
ENDBRANCH  12  13
ENDBRANCH   1  12
TORSDOF 9
ENDMDL
MODEL 3
REMARK VINA RESULT:      -5.5      2.858      5.399
REMARK  Name = 
REMARK  10 active torsions:
REMARK  status: ('A' for Active; 'I' for Inactive)
REMARK    1  A    between atoms: C_1  and  C_2
REMARK    2  A    between atoms: C_2  and  C_3
REMARK    3  A    between atoms: C_3  and  N_4
REMARK    4  A    between atoms: C_3  and  C_5
REMARK    5  A    between atoms: C_3  and  C_13
REMARK    6  A    between atoms: C_5  and  S_6
REMARK    7  A    between atoms: S_6  and  C_7
REMARK    8  A    between atoms: C_7  and  C_8
REMARK    9  A    between atoms: C_8  and  N_9
REMARK   10  A    between atoms: C_13  and  O_15
REMARK                            x       y       z     vdW  Elec       q    Type
REMARK                         _______ _______ _______ _____ _____    ______ ____
ROOT
ATOM      1  C   UNL     1       2.713   4.511  17.922  0.00  0.00    +0.000 C 
ENDROOT
BRANCH   1   2
ATOM      2  C   UNL     1       2.904   3.941  19.371  0.00  0.00    +0.000 C 
BRANCH   2   3
ATOM      3  N   UNL     1       3.421   5.024  20.218  0.00  0.00    +0.000 NA
ATOM      4  H   UNL     1       4.446   4.897  20.385  0.00  0.00    +0.000 HD
ATOM      5  H   UNL     1       2.939   5.045  21.147  0.00  0.00    +0.000 HD
ENDBRANCH   2   3
BRANCH   2   7
ATOM      6  C   UNL     1       1.630   2.941  21.417  0.00  0.00    +0.000 C 
ATOM      7  C   UNL     1       1.550   3.445  19.973  0.00  0.00    +0.000 C 
ENDBRANCH   2   7
BRANCH   2   8
ATOM      8  C   UNL     1       3.911   2.787  19.385  0.00  0.00    +0.000 C 
ATOM      9  O   UNL     1       5.022   2.938  19.871  0.00  0.00    +0.000 OA
BRANCH   8  10
ATOM     10  O   UNL     1       3.597   1.580  18.863  0.00  0.00    +0.000 OA
ATOM     11  H   UNL     1       3.587   1.405  17.910  0.00  0.00    +0.000 HD
ENDBRANCH   8  10
ENDBRANCH   2   8
ENDBRANCH   1   2
BRANCH   1  12
ATOM     12  S   UNL     1       4.177   5.497  17.415  0.00  0.00    +0.000 S 
BRANCH  12  13
ATOM     13  C   UNL     1       5.142   4.221  16.525  0.00  0.00    +0.000 C 
BRANCH  13  14
ATOM     14  C   UNL     1       6.623   4.583  16.716  0.00  0.00    +0.000 C 
BRANCH  14  15
ATOM     15  N   UNL     1       7.080   4.436  18.087  0.00  0.00    +0.000 N 
ATOM     16  C   UNL     1       7.638   5.532  18.827  0.00  0.00    +0.000 C 
ATOM     17  N   UNL     1       7.752   6.709  18.311  0.00  0.00    +0.000 NA
ATOM     18  N   UNL     1       8.080   5.330  20.158  0.00  0.00    +0.000 N 
ATOM     19  H   UNL     1       7.012   3.516  18.548  0.00  0.00    +0.000 HD
ATOM     20  H   UNL     1       7.458   6.939  17.352  0.00  0.00    +0.000 HD
ATOM     21  H   UNL     1       8.008   4.403  20.604  0.00  0.00    +0.000 HD
ATOM     22  H   UNL     1       8.484   6.112  20.699  0.00  0.00    +0.000 HD
ENDBRANCH  14  15
ENDBRANCH  13  14
ENDBRANCH  12  13
ENDBRANCH   1  12
TORSDOF 9
ENDMDL
MODEL 4
REMARK VINA RESULT:      -5.5      1.074      1.332
REMARK  Name = 
REMARK  10 active torsions:
REMARK  status: ('A' for Active; 'I' for Inactive)
REMARK    1  A    between atoms: C_1  and  C_2
REMARK    2  A    between atoms: C_2  and  C_3
REMARK    3  A    between atoms: C_3  and  N_4
REMARK    4  A    between atoms: C_3  and  C_5
REMARK    5  A    between atoms: C_3  and  C_13
REMARK    6  A    between atoms: C_5  and  S_6
REMARK    7  A    between atoms: S_6  and  C_7
REMARK    8  A    between atoms: C_7  and  C_8
REMARK    9  A    between atoms: C_8  and  N_9
REMARK   10  A    between atoms: C_13  and  O_15
REMARK                            x       y       z     vdW  Elec       q    Type
REMARK                         _______ _______ _______ _____ _____    ______ ____
ROOT
ATOM      1  C   UNL     1       4.351   5.824  17.618  0.00  0.00    +0.000 C 
ENDROOT
BRANCH   1   2
ATOM      2  C   UNL     1       5.348   4.922  16.810  0.00  0.00    +0.000 C 
BRANCH   2   3
ATOM      3  N   UNL     1       4.864   3.537  16.881  0.00  0.00    +0.000 NA
ATOM      4  H   UNL     1       5.380   2.936  16.198  0.00  0.00    +0.000 HD
ATOM      5  H   UNL     1       3.842   3.478  16.663  0.00  0.00    +0.000 HD
ENDBRANCH   2   3
BRANCH   2   7
ATOM      6  C   UNL     1       5.872   4.246  14.345  0.00  0.00    +0.000 C 
ATOM      7  C   UNL     1       5.415   5.347  15.308  0.00  0.00    +0.000 C 
ENDBRANCH   2   7
BRANCH   2   8
ATOM      8  C   UNL     1       6.757   4.978  17.411  0.00  0.00    +0.000 C 
ATOM      9  O   UNL     1       7.559   5.819  17.036  0.00  0.00    +0.000 OA
BRANCH   8  10
ATOM     10  O   UNL     1       7.143   4.100  18.365  0.00  0.00    +0.000 OA
ATOM     11  H   UNL     1       6.575   3.381  18.678  0.00  0.00    +0.000 HD
ENDBRANCH   8  10
ENDBRANCH   2   8
ENDBRANCH   1   2
BRANCH   1  12
ATOM     12  S   UNL     1       2.736   4.976  17.831  0.00  0.00    +0.000 S 
BRANCH  12  13
ATOM     13  C   UNL     1       2.448   5.259  19.616  0.00  0.00    +0.000 C 
BRANCH  13  14
ATOM     14  C   UNL     1       2.870   3.970  20.336  0.00  0.00    +0.000 C 
BRANCH  14  15
ATOM     15  N   UNL     1       2.850   2.798  19.479  0.00  0.00    +0.000 N 
ATOM     16  C   UNL     1       4.005   1.965  19.298  0.00  0.00    +0.000 C 
ATOM     17  N   UNL     1       5.119   2.212  19.899  0.00  0.00    +0.000 NA
ATOM     18  N   UNL     1       3.933   0.839  18.440  0.00  0.00    +0.000 N 
ATOM     19  H   UNL     1       1.985   2.553  18.975  0.00  0.00    +0.000 HD
ATOM     20  H   UNL     1       5.256   3.008  20.536  0.00  0.00    +0.000 HD
ATOM     21  H   UNL     1       3.060   0.611  17.940  0.00  0.00    +0.000 HD
ATOM     22  H   UNL     1       4.759   0.233  18.302  0.00  0.00    +0.000 HD
ENDBRANCH  14  15
ENDBRANCH  13  14
ENDBRANCH  12  13
ENDBRANCH   1  12
TORSDOF 9
ENDMDL
MODEL 5
REMARK VINA RESULT:      -5.5      1.101      1.258
REMARK  Name = 
REMARK  10 active torsions:
REMARK  status: ('A' for Active; 'I' for Inactive)
REMARK    1  A    between atoms: C_1  and  C_2
REMARK    2  A    between atoms: C_2  and  C_3
REMARK    3  A    between atoms: C_3  and  N_4
REMARK    4  A    between atoms: C_3  and  C_5
REMARK    5  A    between atoms: C_3  and  C_13
REMARK    6  A    between atoms: C_5  and  S_6
REMARK    7  A    between atoms: S_6  and  C_7
REMARK    8  A    between atoms: C_7  and  C_8
REMARK    9  A    between atoms: C_8  and  N_9
REMARK   10  A    between atoms: C_13  and  O_15
REMARK                            x       y       z     vdW  Elec       q    Type
REMARK                         _______ _______ _______ _____ _____    ______ ____
ROOT
ATOM      1  C   UNL     1       4.873   5.742  16.367  0.00  0.00    +0.000 C 
ENDROOT
BRANCH   1   2
ATOM      2  C   UNL     1       6.092   4.764  16.232  0.00  0.00    +0.000 C 
BRANCH   2   3
ATOM      3  N   UNL     1       5.607   3.400  16.487  0.00  0.00    +0.000 NA
ATOM      4  H   UNL     1       4.862   3.145  15.799  0.00  0.00    +0.000 HD
ATOM      5  H   UNL     1       5.208   3.311  17.450  0.00  0.00    +0.000 HD
ENDBRANCH   2   3
BRANCH   2   7
ATOM      6  C   UNL     1       6.039   3.882  13.777  0.00  0.00    +0.000 C 
ATOM      7  C   UNL     1       6.707   4.811  14.796  0.00  0.00    +0.000 C 
ENDBRANCH   2   7
BRANCH   2   8
ATOM      8  C   UNL     1       7.183   5.092  17.256  0.00  0.00    +0.000 C 
ATOM      9  O   UNL     1       7.757   6.171  17.229  0.00  0.00    +0.000 OA
BRANCH   8  10
ATOM     10  O   UNL     1       7.535   4.201  18.210  0.00  0.00    +0.000 OA
ATOM     11  H   UNL     1       7.342   3.254  18.141  0.00  0.00    +0.000 HD
ENDBRANCH   8  10
ENDBRANCH   2   8
ENDBRANCH   1   2
BRANCH   1  12
ATOM     12  S   UNL     1       4.345   5.883  18.120  0.00  0.00    +0.000 S 
BRANCH  12  13
ATOM     13  C   UNL     1       2.597   5.356  17.981  0.00  0.00    +0.000 C 
BRANCH  13  14
ATOM     14  C   UNL     1       2.574   3.844  18.254  0.00  0.00    +0.000 C 
BRANCH  14  15
ATOM     15  N   UNL     1       3.580   3.416  19.211  0.00  0.00    +0.000 N 
ATOM     16  C   UNL     1       4.117   2.086  19.209  0.00  0.00    +0.000 C 
ATOM     17  N   UNL     1       3.738   1.203  18.347  0.00  0.00    +0.000 NA
ATOM     18  N   UNL     1       5.089   1.717  20.173  0.00  0.00    +0.000 N 
ATOM     19  H   UNL     1       3.919   4.081  19.922  0.00  0.00    +0.000 HD
ATOM     20  H   UNL     1       3.038   1.388  17.616  0.00  0.00    +0.000 HD
ATOM     21  H   UNL     1       5.414   2.394  20.880  0.00  0.00    +0.000 HD
ATOM     22  H   UNL     1       5.481   0.761  20.181  0.00  0.00    +0.000 HD
ENDBRANCH  14  15
ENDBRANCH  13  14
ENDBRANCH  12  13
ENDBRANCH   1  12
TORSDOF 9
ENDMDL
MODEL 6
REMARK VINA RESULT:      -5.5      2.421      2.937
REMARK  Name = 
REMARK  10 active torsions:
REMARK  status: ('A' for Active; 'I' for Inactive)
REMARK    1  A    between atoms: C_1  and  C_2
REMARK    2  A    between atoms: C_2  and  C_3
REMARK    3  A    between atoms: C_3  and  N_4
REMARK    4  A    between atoms: C_3  and  C_5
REMARK    5  A    between atoms: C_3  and  C_13
REMARK    6  A    between atoms: C_5  and  S_6
REMARK    7  A    between atoms: S_6  and  C_7
REMARK    8  A    between atoms: C_7  and  C_8
REMARK    9  A    between atoms: C_8  and  N_9
REMARK   10  A    between atoms: C_13  and  O_15
REMARK                            x       y       z     vdW  Elec       q    Type
REMARK                         _______ _______ _______ _____ _____    ______ ____
ROOT
ATOM      1  C   UNL     1       5.611   7.102  17.412  0.00  0.00    +0.000 C 
ENDROOT
BRANCH   1   2
ATOM      2  C   UNL     1       6.986   6.380  17.629  0.00  0.00    +0.000 C 
BRANCH   2   3
ATOM      3  N   UNL     1       7.440   5.872  16.326  0.00  0.00    +0.000 NA
ATOM      4  H   UNL     1       8.418   5.508  16.398  0.00  0.00    +0.000 HD
ATOM      5  H   UNL     1       7.422   6.622  15.597  0.00  0.00    +0.000 HD
ENDBRANCH   2   3
BRANCH   2   7
ATOM      6  C   UNL     1       7.911   8.818  17.725  0.00  0.00    +0.000 C 
ATOM      7  C   UNL     1       8.068   7.364  18.180  0.00  0.00    +0.000 C 
ENDBRANCH   2   7
BRANCH   2   8
ATOM      8  C   UNL     1       6.847   5.197  18.592  0.00  0.00    +0.000 C 
ATOM      9  O   UNL     1       6.734   5.384  19.794  0.00  0.00    +0.000 OA
BRANCH   8  10
ATOM     10  O   UNL     1       6.844   3.924  18.136  0.00  0.00    +0.000 OA
ATOM     11  H   UNL     1       7.656   3.444  17.910  0.00  0.00    +0.000 HD
ENDBRANCH   8  10
ENDBRANCH   2   8
ENDBRANCH   1   2
BRANCH   1  12
ATOM     12  S   UNL     1       4.260   5.876  17.207  0.00  0.00    +0.000 S 
BRANCH  12  13
ATOM     13  C   UNL     1       3.152   6.372  18.578  0.00  0.00    +0.000 C 
BRANCH  13  14
ATOM     14  C   UNL     1       2.914   5.111  19.423  0.00  0.00    +0.000 C 
BRANCH  14  15
ATOM     15  N   UNL     1       3.934   4.094  19.241  0.00  0.00    +0.000 N 
ATOM     16  C   UNL     1       3.948   2.881  20.009  0.00  0.00    +0.000 C 
ATOM     17  N   UNL     1       3.045   2.631  20.896  0.00  0.00    +0.000 NA
ATOM     18  N   UNL     1       4.974   1.926  19.798  0.00  0.00    +0.000 N 
ATOM     19  H   UNL     1       4.679   4.242  18.545  0.00  0.00    +0.000 HD
ATOM     20  H   UNL     1       2.268   3.270  21.111  0.00  0.00    +0.000 HD
ATOM     21  H   UNL     1       5.715   2.092  19.100  0.00  0.00    +0.000 HD
ATOM     22  H   UNL     1       4.993   1.050  20.346  0.00  0.00    +0.000 HD
ENDBRANCH  14  15
ENDBRANCH  13  14
ENDBRANCH  12  13
ENDBRANCH   1  12
TORSDOF 9
ENDMDL
MODEL 7
REMARK VINA RESULT:      -5.4      2.708      5.133
REMARK  Name = 
REMARK  10 active torsions:
REMARK  status: ('A' for Active; 'I' for Inactive)
REMARK    1  A    between atoms: C_1  and  C_2
REMARK    2  A    between atoms: C_2  and  C_3
REMARK    3  A    between atoms: C_3  and  N_4
REMARK    4  A    between atoms: C_3  and  C_5
REMARK    5  A    between atoms: C_3  and  C_13
REMARK    6  A    between atoms: C_5  and  S_6
REMARK    7  A    between atoms: S_6  and  C_7
REMARK    8  A    between atoms: C_7  and  C_8
REMARK    9  A    between atoms: C_8  and  N_9
REMARK   10  A    between atoms: C_13  and  O_15
REMARK                            x       y       z     vdW  Elec       q    Type
REMARK                         _______ _______ _______ _____ _____    ______ ____
ROOT
ATOM      1  C   UNL     1       3.071   4.357  18.824  0.00  0.00    +0.000 C 
ENDROOT
BRANCH   1   2
ATOM      2  C   UNL     1       3.658   2.992  19.327  0.00  0.00    +0.000 C 
BRANCH   2   3
ATOM      3  N   UNL     1       5.119   3.129  19.404  0.00  0.00    +0.000 NA
ATOM      4  H   UNL     1       5.424   3.218  20.401  0.00  0.00    +0.000 HD
ATOM      5  H   UNL     1       5.451   3.975  18.885  0.00  0.00    +0.000 HD
ENDBRANCH   2   3
BRANCH   2   7
ATOM      6  C   UNL     1       1.645   2.968  20.988  0.00  0.00    +0.000 C 
ATOM      7  C   UNL     1       3.120   2.628  20.748  0.00  0.00    +0.000 C 
ENDBRANCH   2   7
BRANCH   2   8
ATOM      8  C   UNL     1       3.326   1.854  18.358  0.00  0.00    +0.000 C 
ATOM      9  O   UNL     1       2.457   1.993  17.510  0.00  0.00    +0.000 OA
BRANCH   8  10
ATOM     10  O   UNL     1       3.984   0.674  18.416  0.00  0.00    +0.000 OA
ATOM     11  H   UNL     1       3.619  -0.150  18.060  0.00  0.00    +0.000 HD
ENDBRANCH   8  10
ENDBRANCH   2   8
ENDBRANCH   1   2
BRANCH   1  12
ATOM     12  S   UNL     1       4.329   5.689  18.948  0.00  0.00    +0.000 S 
BRANCH  12  13
ATOM     13  C   UNL     1       4.364   6.273  17.213  0.00  0.00    +0.000 C 
BRANCH  13  14
ATOM     14  C   UNL     1       5.835   6.244  16.773  0.00  0.00    +0.000 C 
BRANCH  14  15
ATOM     15  N   UNL     1       6.035   5.628  15.473  0.00  0.00    +0.000 N 
ATOM     16  C   UNL     1       6.073   4.204  15.302  0.00  0.00    +0.000 C 
ATOM     17  N   UNL     1       5.921   3.397  16.297  0.00  0.00    +0.000 NA
ATOM     18  N   UNL     1       6.283   3.655  14.012  0.00  0.00    +0.000 N 
ATOM     19  H   UNL     1       6.162   6.226  14.642  0.00  0.00    +0.000 HD
ATOM     20  H   UNL     1       5.766   3.713  17.264  0.00  0.00    +0.000 HD
ATOM     21  H   UNL     1       6.412   4.267  13.192  0.00  0.00    +0.000 HD
ATOM     22  H   UNL     1       6.314   2.631  13.878  0.00  0.00    +0.000 HD
ENDBRANCH  14  15
ENDBRANCH  13  14
ENDBRANCH  12  13
ENDBRANCH   1  12
TORSDOF 9
ENDMDL
MODEL 8
REMARK VINA RESULT:      -5.4      2.664      5.435
REMARK  Name = 
REMARK  10 active torsions:
REMARK  status: ('A' for Active; 'I' for Inactive)
REMARK    1  A    between atoms: C_1  and  C_2
REMARK    2  A    between atoms: C_2  and  C_3
REMARK    3  A    between atoms: C_3  and  N_4
REMARK    4  A    between atoms: C_3  and  C_5
REMARK    5  A    between atoms: C_3  and  C_13
REMARK    6  A    between atoms: C_5  and  S_6
REMARK    7  A    between atoms: S_6  and  C_7
REMARK    8  A    between atoms: C_7  and  C_8
REMARK    9  A    between atoms: C_8  and  N_9
REMARK   10  A    between atoms: C_13  and  O_15
REMARK                            x       y       z     vdW  Elec       q    Type
REMARK                         _______ _______ _______ _____ _____    ______ ____
ROOT
ATOM      1  C   UNL     1       3.762   4.807  19.588  0.00  0.00    +0.000 C 
ENDROOT
BRANCH   1   2
ATOM      2  C   UNL     1       3.565   3.251  19.625  0.00  0.00    +0.000 C 
BRANCH   2   3
ATOM      3  N   UNL     1       4.892   2.630  19.734  0.00  0.00    +0.000 NA
ATOM      4  H   UNL     1       4.825   1.599  19.571  0.00  0.00    +0.000 HD
ATOM      5  H   UNL     1       5.310   2.785  20.681  0.00  0.00    +0.000 HD
ENDBRANCH   2   3
BRANCH   2   7
ATOM      6  C   UNL     1       1.273   3.341  20.870  0.00  0.00    +0.000 C 
ATOM      7  C   UNL     1       2.711   2.812  20.858  0.00  0.00    +0.000 C 
ENDBRANCH   2   7
BRANCH   2   8
ATOM      8  C   UNL     1       2.893   2.746  18.345  0.00  0.00    +0.000 C 
ATOM      9  O   UNL     1       2.472   3.534  17.511  0.00  0.00    +0.000 OA
BRANCH   8  10
ATOM     10  O   UNL     1       2.751   1.422  18.107  0.00  0.00    +0.000 OA
ATOM     11  H   UNL     1       3.132   0.983  17.333  0.00  0.00    +0.000 HD
ENDBRANCH   8  10
ENDBRANCH   2   8
ENDBRANCH   1   2
BRANCH   1  12
ATOM     12  S   UNL     1       5.523   5.230  19.285  0.00  0.00    +0.000 S 
BRANCH  12  13
ATOM     13  C   UNL     1       5.515   5.387  17.461  0.00  0.00    +0.000 C 
BRANCH  13  14
ATOM     14  C   UNL     1       6.617   4.453  16.938  0.00  0.00    +0.000 C 
BRANCH  14  15
ATOM     15  N   UNL     1       6.248   3.751  15.722  0.00  0.00    +0.000 N 
ATOM     16  C   UNL     1       6.663   4.203  14.424  0.00  0.00    +0.000 C 
ATOM     17  N   UNL     1       7.395   5.255  14.275  0.00  0.00    +0.000 NA
ATOM     18  N   UNL     1       6.264   3.486  13.268  0.00  0.00    +0.000 N 
ATOM     19  H   UNL     1       5.664   2.904  15.783  0.00  0.00    +0.000 HD
ATOM     20  H   UNL     1       7.726   5.832  15.060  0.00  0.00    +0.000 HD
ATOM     21  H   UNL     1       5.676   2.642  13.347  0.00  0.00    +0.000 HD
ATOM     22  H   UNL     1       6.557   3.804  12.329  0.00  0.00    +0.000 HD
ENDBRANCH  14  15
ENDBRANCH  13  14
ENDBRANCH  12  13
ENDBRANCH   1  12
TORSDOF 9
ENDMDL
MODEL 9
REMARK VINA RESULT:      -5.4      1.740      2.382
REMARK  Name = 
REMARK  10 active torsions:
REMARK  status: ('A' for Active; 'I' for Inactive)
REMARK    1  A    between atoms: C_1  and  C_2
REMARK    2  A    between atoms: C_2  and  C_3
REMARK    3  A    between atoms: C_3  and  N_4
REMARK    4  A    between atoms: C_3  and  C_5
REMARK    5  A    between atoms: C_3  and  C_13
REMARK    6  A    between atoms: C_5  and  S_6
REMARK    7  A    between atoms: S_6  and  C_7
REMARK    8  A    between atoms: C_7  and  C_8
REMARK    9  A    between atoms: C_8  and  N_9
REMARK   10  A    between atoms: C_13  and  O_15
REMARK                            x       y       z     vdW  Elec       q    Type
REMARK                         _______ _______ _______ _____ _____    ______ ____
ROOT
ATOM      1  C   UNL     1       5.129   5.938  18.367  0.00  0.00    +0.000 C 
ENDROOT
BRANCH   1   2
ATOM      2  C   UNL     1       6.175   5.972  17.199  0.00  0.00    +0.000 C 
BRANCH   2   3
ATOM      3  N   UNL     1       5.436   5.962  15.929  0.00  0.00    +0.000 NA
ATOM      4  H   UNL     1       4.867   5.088  15.846  0.00  0.00    +0.000 HD
ATOM      5  H   UNL     1       6.085   6.009  15.110  0.00  0.00    +0.000 HD
ENDBRANCH   2   3
BRANCH   2   7
ATOM      6  C   UNL     1       8.063   7.314  18.401  0.00  0.00    +0.000 C 
ATOM      7  C   UNL     1       7.050   7.265  17.252  0.00  0.00    +0.000 C 
ENDBRANCH   2   7
BRANCH   2   8
ATOM      8  C   UNL     1       7.091   4.744  17.239  0.00  0.00    +0.000 C 
ATOM      9  O   UNL     1       7.843   4.499  16.307  0.00  0.00    +0.000 OA
BRANCH   8  10
ATOM     10  O   UNL     1       7.090   3.908  18.301  0.00  0.00    +0.000 OA
ATOM     11  H   UNL     1       6.326   3.362  18.540  0.00  0.00    +0.000 HD
ENDBRANCH   8  10
ENDBRANCH   2   8
ENDBRANCH   1   2
BRANCH   1  12
ATOM     12  S   UNL     1       3.488   5.391  17.752  0.00  0.00    +0.000 S 
BRANCH  12  13
ATOM     13  C   UNL     1       2.523   5.425  19.307  0.00  0.00    +0.000 C 
BRANCH  13  14
ATOM     14  C   UNL     1       2.895   4.151  20.080  0.00  0.00    +0.000 C 
BRANCH  14  15
ATOM     15  N   UNL     1       2.875   2.953  19.259  0.00  0.00    +0.000 N 
ATOM     16  C   UNL     1       3.985   2.044  19.207  0.00  0.00    +0.000 C 
ATOM     17  N   UNL     1       5.056   2.243  19.899  0.00  0.00    +0.000 NA
ATOM     18  N   UNL     1       3.917   0.896  18.380  0.00  0.00    +0.000 N 
ATOM     19  H   UNL     1       2.044   2.745  18.686  0.00  0.00    +0.000 HD
ATOM     20  H   UNL     1       5.187   3.051  20.522  0.00  0.00    +0.000 HD
ATOM     21  H   UNL     1       3.079   0.705  17.810  0.00  0.00    +0.000 HD
ATOM     22  H   UNL     1       4.711   0.236  18.335  0.00  0.00    +0.000 HD
ENDBRANCH  14  15
ENDBRANCH  13  14
ENDBRANCH  12  13
ENDBRANCH   1  12
TORSDOF 9
ENDMDL
