MODEL 1
REMARK VINA RESULT:      -6.9      0.000      0.000
REMARK  Name = 
REMARK  6 active torsions:
REMARK  status: ('A' for Active; 'I' for Inactive)
REMARK    1  A    between atoms: C_1  and  C_2
REMARK    2  A    between atoms: C_5  and  C_6
REMARK    3  A    between atoms: C_7  and  C_8
REMARK    4  A    between atoms: C_8  and  C_9
REMARK    5  A    between atoms: N_11  and  C_12
REMARK    6  A    between atoms: C_12  and  C_13
REMARK                            x       y       z     vdW  Elec       q    Type
REMARK                         _______ _______ _______ _____ _____    ______ ____
ROOT
ATOM      1  C   UNL     1       4.347   4.468  19.053  0.00  0.00    +0.000 C 
ATOM      2  O   UNL     1       3.575   3.569  18.720  0.00  0.00    +0.000 OA
ATOM      3  N   UNL     1       3.933   5.610  19.702  0.00  0.00    +0.000 N 
ATOM      4  H   UNL     1       4.579   6.381  19.796  0.00  0.00    +0.000 HD
ENDROOT
BRANCH   1   5
ATOM      5  C   UNL     1       5.847   4.367  18.817  0.00  0.00    +0.000 C 
BRANCH   5  12
ATOM      6  C   UNL     1       5.150   3.941  15.637  0.00  0.00    +0.000 C 
ATOM      7  C   UNL     1       6.041   4.951  16.260  0.00  0.00    +0.000 A 
ATOM      8  N   UNL     1       6.711   5.807  15.480  0.00  0.00    +0.000 NA
ATOM      9  N   UNL     1       7.442   6.531  16.332  0.00  0.00    +0.000 N 
ATOM     10  C   UNL     1       7.262   6.187  17.643  0.00  0.00    +0.000 A 
ATOM     11  C   UNL     1       8.017   6.857  18.727  0.00  0.00    +0.000 C 
ATOM     12  C   UNL     1       6.339   5.153  17.644  0.00  0.00    +0.000 A 
ATOM     13  H   UNL     1       8.062   7.237  15.948  0.00  0.00    +0.000 HD
ENDBRANCH   5  12
ENDBRANCH   1   5
BRANCH   3  14
ATOM     14  C   UNL     1       2.540   5.846  20.009  0.00  0.00    +0.000 C 
BRANCH  14  15
ATOM     15  C   UNL     1       2.114   7.248  19.649  0.00  0.00    +0.000 A 
ATOM     16  C   UNL     1       2.395   7.763  18.374  0.00  0.00    +0.000 A 
ATOM     17  C   UNL     1       2.008   9.059  18.027  0.00  0.00    +0.000 A 
ATOM     18  C   UNL     1       1.337   9.850  18.956  0.00  0.00    +0.000 A 
ATOM     19 CL   UNL     1       0.853  11.445  18.530  0.00  0.00    +0.000 Cl
ATOM     20  C   UNL     1       1.055   9.356  20.229  0.00  0.00    +0.000 A 
ATOM     21  C   UNL     1       1.445   8.060  20.577  0.00  0.00    +0.000 A 
ENDBRANCH  14  15
ENDBRANCH   3  14
TORSDOF 4
ENDMDL
MODEL 2
REMARK VINA RESULT:      -6.8      1.046      1.322
REMARK  Name = 
REMARK  6 active torsions:
REMARK  status: ('A' for Active; 'I' for Inactive)
REMARK    1  A    between atoms: C_1  and  C_2
REMARK    2  A    between atoms: C_5  and  C_6
REMARK    3  A    between atoms: C_7  and  C_8
REMARK    4  A    between atoms: C_8  and  C_9
REMARK    5  A    between atoms: N_11  and  C_12
REMARK    6  A    between atoms: C_12  and  C_13
REMARK                            x       y       z     vdW  Elec       q    Type
REMARK                         _______ _______ _______ _____ _____    ______ ____
ROOT
ATOM      1  C   UNL     1       4.275   4.330  17.925  0.00  0.00    +0.000 C 
ATOM      2  O   UNL     1       4.723   3.720  18.896  0.00  0.00    +0.000 OA
ATOM      3  N   UNL     1       3.444   5.421  18.042  0.00  0.00    +0.000 N 
ATOM      4  H   UNL     1       2.976   5.771  17.218  0.00  0.00    +0.000 HD
ENDROOT
BRANCH   1   5
ATOM      5  C   UNL     1       4.648   3.953  16.498  0.00  0.00    +0.000 C 
BRANCH   5  12
ATOM      6  C   UNL     1       5.960   3.784  13.493  0.00  0.00    +0.000 C 
ATOM      7  C   UNL     1       6.389   4.619  14.642  0.00  0.00    +0.000 A 
ATOM      8  N   UNL     1       7.468   5.399  14.520  0.00  0.00    +0.000 NA
ATOM      9  N   UNL     1       7.607   5.966  15.722  0.00  0.00    +0.000 N 
ATOM     10  C   UNL     1       6.646   5.593  16.621  0.00  0.00    +0.000 A 
ATOM     11  C   UNL     1       6.660   6.090  18.016  0.00  0.00    +0.000 C 
ATOM     12  C   UNL     1       5.815   4.710  15.949  0.00  0.00    +0.000 A 
ATOM     13  H   UNL     1       8.395   6.587  15.869  0.00  0.00    +0.000 HD
ENDBRANCH   5  12
ENDBRANCH   1   5
BRANCH   3  14
ATOM     14  C   UNL     1       3.009   5.909  19.332  0.00  0.00    +0.000 C 
BRANCH  14  15
ATOM     15  C   UNL     1       2.331   7.253  19.227  0.00  0.00    +0.000 A 
ATOM     16  C   UNL     1       2.314   7.937  18.001  0.00  0.00    +0.000 A 
ATOM     17  C   UNL     1       1.691   9.182  17.889  0.00  0.00    +0.000 A 
ATOM     18  C   UNL     1       1.083   9.752  19.004  0.00  0.00    +0.000 A 
ATOM     19 CL   UNL     1       0.308  11.282  18.869  0.00  0.00    +0.000 Cl
ATOM     20  C   UNL     1       1.096   9.088  20.231  0.00  0.00    +0.000 A 
ATOM     21  C   UNL     1       1.722   7.844  20.344  0.00  0.00    +0.000 A 
ENDBRANCH  14  15
ENDBRANCH   3  14
TORSDOF 4
ENDMDL
MODEL 3
REMARK VINA RESULT:      -6.8      0.869      1.447
REMARK  Name = 
REMARK  6 active torsions:
REMARK  status: ('A' for Active; 'I' for Inactive)
REMARK    1  A    between atoms: C_1  and  C_2
REMARK    2  A    between atoms: C_5  and  C_6
REMARK    3  A    between atoms: C_7  and  C_8
REMARK    4  A    between atoms: C_8  and  C_9
REMARK    5  A    between atoms: N_11  and  C_12
REMARK    6  A    between atoms: C_12  and  C_13
REMARK                            x       y       z     vdW  Elec       q    Type
REMARK                         _______ _______ _______ _____ _____    ______ ____
ROOT
ATOM      1  C   UNL     1       4.343   4.028  18.661  0.00  0.00    +0.000 C 
ATOM      2  O   UNL     1       4.509   3.400  19.706  0.00  0.00    +0.000 OA
ATOM      3  N   UNL     1       3.612   5.194  18.593  0.00  0.00    +0.000 N 
ATOM      4  H   UNL     1       3.371   5.568  17.687  0.00  0.00    +0.000 HD
ENDROOT
BRANCH   1   5
ATOM      5  C   UNL     1       4.981   3.591  17.351  0.00  0.00    +0.000 C 
BRANCH   5  12
ATOM      6  C   UNL     1       5.680   4.182  14.197  0.00  0.00    +0.000 C 
ATOM      7  C   UNL     1       6.261   4.816  15.407  0.00  0.00    +0.000 A 
ATOM      8  N   UNL     1       7.230   5.727  15.269  0.00  0.00    +0.000 NA
ATOM      9  N   UNL     1       7.559   6.055  16.522  0.00  0.00    +0.000 N 
ATOM     10  C   UNL     1       6.828   5.398  17.473  0.00  0.00    +0.000 A 
ATOM     11  C   UNL     1       7.080   5.605  18.918  0.00  0.00    +0.000 C 
ATOM     12  C   UNL     1       5.953   4.575  16.782  0.00  0.00    +0.000 A 
ATOM     13  H   UNL     1       8.310   6.724  16.658  0.00  0.00    +0.000 HD
ENDBRANCH   5  12
ENDBRANCH   1   5
BRANCH   3  14
ATOM     14  C   UNL     1       2.955   5.746  19.757  0.00  0.00    +0.000 C 
BRANCH  14  15
ATOM     15  C   UNL     1       2.344   7.095  19.471  0.00  0.00    +0.000 A 
ATOM     16  C   UNL     1       1.657   7.784  20.483  0.00  0.00    +0.000 A 
ATOM     17  C   UNL     1       1.085   9.033  20.233  0.00  0.00    +0.000 A 
ATOM     18  C   UNL     1       1.195   9.601  18.967  0.00  0.00    +0.000 A 
ATOM     19 CL   UNL     1       0.497  11.143  18.657  0.00  0.00    +0.000 Cl
ATOM     20  C   UNL     1       1.868   8.927  17.949  0.00  0.00    +0.000 A 
ATOM     21  C   UNL     1       2.438   7.676  18.198  0.00  0.00    +0.000 A 
ENDBRANCH  14  15
ENDBRANCH   3  14
TORSDOF 4
ENDMDL
MODEL 4
REMARK VINA RESULT:      -6.8      3.463      4.606
REMARK  Name = 
REMARK  6 active torsions:
REMARK  status: ('A' for Active; 'I' for Inactive)
REMARK    1  A    between atoms: C_1  and  C_2
REMARK    2  A    between atoms: C_5  and  C_6
REMARK    3  A    between atoms: C_7  and  C_8
REMARK    4  A    between atoms: C_8  and  C_9
REMARK    5  A    between atoms: N_11  and  C_12
REMARK    6  A    between atoms: C_12  and  C_13
REMARK                            x       y       z     vdW  Elec       q    Type
REMARK                         _______ _______ _______ _____ _____    ______ ____
ROOT
ATOM      1  C   UNL     1       4.308   6.948  17.380  0.00  0.00    +0.000 C 
ATOM      2  O   UNL     1       3.517   7.883  17.255  0.00  0.00    +0.000 OA
ATOM      3  N   UNL     1       3.906   5.637  17.507  0.00  0.00    +0.000 N 
ATOM      4  H   UNL     1       4.587   4.940  17.776  0.00  0.00    +0.000 HD
ENDROOT
BRANCH   1   5
ATOM      5  C   UNL     1       5.814   7.161  17.351  0.00  0.00    +0.000 C 
BRANCH   5  12
ATOM      6  C   UNL     1       7.828   5.753  19.530  0.00  0.00    +0.000 C 
ATOM      7  C   UNL     1       7.496   5.305  18.155  0.00  0.00    +0.000 A 
ATOM      8  N   UNL     1       8.089   4.213  17.659  0.00  0.00    +0.000 NA
ATOM      9  N   UNL     1       7.618   4.116  16.412  0.00  0.00    +0.000 N 
ATOM     10  C   UNL     1       6.727   5.100  16.082  0.00  0.00    +0.000 A 
ATOM     11  C   UNL     1       6.130   5.176  14.729  0.00  0.00    +0.000 C 
ATOM     12  C   UNL     1       6.610   5.903  17.205  0.00  0.00    +0.000 A 
ATOM     13  H   UNL     1       7.964   3.361  15.830  0.00  0.00    +0.000 HD
ENDBRANCH   5  12
ENDBRANCH   1   5
BRANCH   3  14
ATOM     14  C   UNL     1       2.507   5.271  17.538  0.00  0.00    +0.000 C 
BRANCH  14  15
ATOM     15  C   UNL     1       2.157   4.485  18.777  0.00  0.00    +0.000 A 
ATOM     16  C   UNL     1       2.512   4.974  20.044  0.00  0.00    +0.000 A 
ATOM     17  C   UNL     1       2.196   4.257  21.199  0.00  0.00    +0.000 A 
ATOM     18  C   UNL     1       1.524   3.042  21.094  0.00  0.00    +0.000 A 
ATOM     19 CL   UNL     1       1.127   2.158  22.516  0.00  0.00    +0.000 Cl
ATOM     20  C   UNL     1       1.170   2.538  19.843  0.00  0.00    +0.000 A 
ATOM     21  C   UNL     1       1.489   3.255  18.687  0.00  0.00    +0.000 A 
ENDBRANCH  14  15
ENDBRANCH   3  14
TORSDOF 4
ENDMDL
MODEL 5
REMARK VINA RESULT:      -6.8      3.673      6.311
REMARK  Name = 
REMARK  6 active torsions:
REMARK  status: ('A' for Active; 'I' for Inactive)
REMARK    1  A    between atoms: C_1  and  C_2
REMARK    2  A    between atoms: C_5  and  C_6
REMARK    3  A    between atoms: C_7  and  C_8
REMARK    4  A    between atoms: C_8  and  C_9
REMARK    5  A    between atoms: N_11  and  C_12
REMARK    6  A    between atoms: C_12  and  C_13
REMARK                            x       y       z     vdW  Elec       q    Type
REMARK                         _______ _______ _______ _____ _____    ______ ____
ROOT
ATOM      1  C   UNL     1       3.317   5.944  19.567  0.00  0.00    +0.000 C 
ATOM      2  O   UNL     1       3.297   7.081  19.095  0.00  0.00    +0.000 OA
ATOM      3  N   UNL     1       4.441   5.148  19.560  0.00  0.00    +0.000 N 
ATOM      4  H   UNL     1       4.351   4.172  19.805  0.00  0.00    +0.000 HD
ENDROOT
BRANCH   1   5
ATOM      5  C   UNL     1       2.101   5.336  20.251  0.00  0.00    +0.000 C 
BRANCH   5  12
ATOM      6  C   UNL     1       1.279   4.436  17.202  0.00  0.00    +0.000 C 
ATOM      7  C   UNL     1       1.358   3.597  18.424  0.00  0.00    +0.000 A 
ATOM      8  N   UNL     1       1.028   2.303  18.354  0.00  0.00    +0.000 NA
ATOM      9  N   UNL     1       1.158   1.858  19.607  0.00  0.00    +0.000 N 
ATOM     10  C   UNL     1       1.577   2.814  20.490  0.00  0.00    +0.000 A 
ATOM     11  C   UNL     1       1.741   2.514  21.931  0.00  0.00    +0.000 C 
ATOM     12  C   UNL     1       1.729   3.977  19.751  0.00  0.00    +0.000 A 
ATOM     13  H   UNL     1       0.925   0.889  19.795  0.00  0.00    +0.000 HD
ENDBRANCH   5  12
ENDBRANCH   1   5
BRANCH   3  14
ATOM     14  C   UNL     1       5.680   5.589  18.958  0.00  0.00    +0.000 C 
BRANCH  14  15
ATOM     15  C   UNL     1       5.819   5.104  17.536  0.00  0.00    +0.000 A 
ATOM     16  C   UNL     1       6.907   5.523  16.755  0.00  0.00    +0.000 A 
ATOM     17  C   UNL     1       7.049   5.084  15.437  0.00  0.00    +0.000 A 
ATOM     18  C   UNL     1       6.101   4.223  14.892  0.00  0.00    +0.000 A 
ATOM     19 CL   UNL     1       6.275   3.674  13.270  0.00  0.00    +0.000 Cl
ATOM     20  C   UNL     1       5.011   3.802  15.652  0.00  0.00    +0.000 A 
ATOM     21  C   UNL     1       4.867   4.244  16.970  0.00  0.00    +0.000 A 
ENDBRANCH  14  15
ENDBRANCH   3  14
TORSDOF 4
ENDMDL
MODEL 6
REMARK VINA RESULT:      -6.8      0.976      2.359
REMARK  Name = 
REMARK  6 active torsions:
REMARK  status: ('A' for Active; 'I' for Inactive)
REMARK    1  A    between atoms: C_1  and  C_2
REMARK    2  A    between atoms: C_5  and  C_6
REMARK    3  A    between atoms: C_7  and  C_8
REMARK    4  A    between atoms: C_8  and  C_9
REMARK    5  A    between atoms: N_11  and  C_12
REMARK    6  A    between atoms: C_12  and  C_13
REMARK                            x       y       z     vdW  Elec       q    Type
REMARK                         _______ _______ _______ _____ _____    ______ ____
ROOT
ATOM      1  C   UNL     1       4.559   3.954  18.404  0.00  0.00    +0.000 C 
ATOM      2  O   UNL     1       4.935   3.423  19.449  0.00  0.00    +0.000 OA
ATOM      3  N   UNL     1       3.702   5.032  18.375  0.00  0.00    +0.000 N 
ATOM      4  H   UNL     1       3.299   5.314  17.493  0.00  0.00    +0.000 HD
ENDROOT
BRANCH   1   5
ATOM      5  C   UNL     1       5.056   3.489  17.043  0.00  0.00    +0.000 C 
BRANCH   5  12
ATOM      6  C   UNL     1       7.178   5.534  18.491  0.00  0.00    +0.000 C 
ATOM      7  C   UNL     1       6.956   5.308  17.041  0.00  0.00    +0.000 A 
ATOM      8  N   UNL     1       7.649   6.026  16.151  0.00  0.00    +0.000 NA
ATOM      9  N   UNL     1       7.186   5.622  14.965  0.00  0.00    +0.000 N 
ATOM     10  C   UNL     1       6.223   4.654  15.050  0.00  0.00    +0.000 A 
ATOM     11  C   UNL     1       5.566   4.112  13.839  0.00  0.00    +0.000 C 
ATOM     12  C   UNL     1       6.045   4.410  16.403  0.00  0.00    +0.000 A 
ATOM     13  H   UNL     1       7.558   6.064  14.131  0.00  0.00    +0.000 HD
ENDBRANCH   5  12
ENDBRANCH   1   5
BRANCH   3  14
ATOM     14  C   UNL     1       3.154   5.598  19.588  0.00  0.00    +0.000 C 
BRANCH  14  15
ATOM     15  C   UNL     1       2.499   6.934  19.340  0.00  0.00    +0.000 A 
ATOM     16  C   UNL     1       1.827   7.592  20.382  0.00  0.00    +0.000 A 
ATOM     17  C   UNL     1       1.215   8.828  20.166  0.00  0.00    +0.000 A 
ATOM     18  C   UNL     1       1.269   9.414  18.905  0.00  0.00    +0.000 A 
ATOM     19 CL   UNL     1       0.522  10.941  18.637  0.00  0.00    +0.000 Cl
ATOM     20  C   UNL     1       1.927   8.771  17.857  0.00  0.00    +0.000 A 
ATOM     21  C   UNL     1       2.537   7.533  18.072  0.00  0.00    +0.000 A 
ENDBRANCH  14  15
ENDBRANCH   3  14
TORSDOF 4
ENDMDL
MODEL 7
REMARK VINA RESULT:      -6.7      2.931      5.582
REMARK  Name = 
REMARK  6 active torsions:
REMARK  status: ('A' for Active; 'I' for Inactive)
REMARK    1  A    between atoms: C_1  and  C_2
REMARK    2  A    between atoms: C_5  and  C_6
REMARK    3  A    between atoms: C_7  and  C_8
REMARK    4  A    between atoms: C_8  and  C_9
REMARK    5  A    between atoms: N_11  and  C_12
REMARK    6  A    between atoms: C_12  and  C_13
REMARK                            x       y       z     vdW  Elec       q    Type
REMARK                         _______ _______ _______ _____ _____    ______ ____
ROOT
ATOM      1  C   UNL     1       4.219   4.061  17.024  0.00  0.00    +0.000 C 
ATOM      2  O   UNL     1       4.435   4.235  15.825  0.00  0.00    +0.000 OA
ATOM      3  N   UNL     1       5.223   4.005  17.966  0.00  0.00    +0.000 N 
ATOM      4  H   UNL     1       5.000   3.693  18.901  0.00  0.00    +0.000 HD
ENDROOT
BRANCH   1   5
ATOM      5  C   UNL     1       2.807   3.943  17.578  0.00  0.00    +0.000 C 
BRANCH   5  12
ATOM      6  C   UNL     1       1.326   3.183  20.409  0.00  0.00    +0.000 C 
ATOM      7  C   UNL     1       1.872   4.493  19.975  0.00  0.00    +0.000 A 
ATOM      8  N   UNL     1       1.744   5.556  20.776  0.00  0.00    +0.000 NA
ATOM      9  N   UNL     1       2.284   6.562  20.083  0.00  0.00    +0.000 N 
ATOM     10  C   UNL     1       2.775   6.189  18.862  0.00  0.00    +0.000 A 
ATOM     11  C   UNL     1       3.377   7.178  17.938  0.00  0.00    +0.000 C 
ATOM     12  C   UNL     1       2.531   4.829  18.751  0.00  0.00    +0.000 A 
ATOM     13  H   UNL     1       2.269   7.488  20.496  0.00  0.00    +0.000 HD
ENDBRANCH   5  12
ENDBRANCH   1   5
BRANCH   3  14
ATOM     14  C   UNL     1       6.617   4.115  17.598  0.00  0.00    +0.000 C 
BRANCH  14  15
ATOM     15  C   UNL     1       7.152   5.507  17.827  0.00  0.00    +0.000 A 
ATOM     16  C   UNL     1       6.911   6.517  16.883  0.00  0.00    +0.000 A 
ATOM     17  C   UNL     1       7.401   7.809  17.081  0.00  0.00    +0.000 A 
ATOM     18  C   UNL     1       8.139   8.099  18.225  0.00  0.00    +0.000 A 
ATOM     19 CL   UNL     1       8.739   9.692  18.476  0.00  0.00    +0.000 Cl
ATOM     20  C   UNL     1       8.393   7.106  19.170  0.00  0.00    +0.000 A 
ATOM     21  C   UNL     1       7.905   5.812  18.971  0.00  0.00    +0.000 A 
ENDBRANCH  14  15
ENDBRANCH   3  14
TORSDOF 4
ENDMDL
MODEL 8
REMARK VINA RESULT:      -6.7      0.539      1.223
REMARK  Name = 
REMARK  6 active torsions:
REMARK  status: ('A' for Active; 'I' for Inactive)
REMARK    1  A    between atoms: C_1  and  C_2
REMARK    2  A    between atoms: C_5  and  C_6
REMARK    3  A    between atoms: C_7  and  C_8
REMARK    4  A    between atoms: C_8  and  C_9
REMARK    5  A    between atoms: N_11  and  C_12
REMARK    6  A    between atoms: C_12  and  C_13
REMARK                            x       y       z     vdW  Elec       q    Type
REMARK                         _______ _______ _______ _____ _____    ______ ____
ROOT
ATOM      1  C   UNL     1       4.738   4.644  19.265  0.00  0.00    +0.000 C 
ATOM      2  O   UNL     1       4.172   3.607  19.612  0.00  0.00    +0.000 OA
ATOM      3  N   UNL     1       4.072   5.832  19.066  0.00  0.00    +0.000 N 
ATOM      4  H   UNL     1       4.559   6.598  18.622  0.00  0.00    +0.000 HD
ENDROOT
BRANCH   1   5
ATOM      5  C   UNL     1       6.247   4.711  19.077  0.00  0.00    +0.000 C 
BRANCH   5  12
ATOM      6  C   UNL     1       5.696   3.650  16.019  0.00  0.00    +0.000 C 
ATOM      7  C   UNL     1       6.446   4.853  16.458  0.00  0.00    +0.000 A 
ATOM      8  N   UNL     1       7.034   5.630  15.543  0.00  0.00    +0.000 NA
ATOM      9  N   UNL     1       7.652   6.576  16.257  0.00  0.00    +0.000 N 
ATOM     10  C   UNL     1       7.475   6.449  17.607  0.00  0.00    +0.000 A 
ATOM     11  C   UNL     1       8.117   7.385  18.560  0.00  0.00    +0.000 C 
ATOM     12  C   UNL     1       6.678   5.329  17.786  0.00  0.00    +0.000 A 
ATOM     13  H   UNL     1       8.197   7.271  15.758  0.00  0.00    +0.000 HD
ENDBRANCH   5  12
ENDBRANCH   1   5
BRANCH   3  14
ATOM     14  C   UNL     1       2.637   5.933  19.219  0.00  0.00    +0.000 C 
BRANCH  14  15
ATOM     15  C   UNL     1       2.161   7.362  19.134  0.00  0.00    +0.000 A 
ATOM     16  C   UNL     1       1.582   7.977  20.255  0.00  0.00    +0.000 A 
ATOM     17  C   UNL     1       1.135   9.299  20.191  0.00  0.00    +0.000 A 
ATOM     18  C   UNL     1       1.263  10.013  19.003  0.00  0.00    +0.000 A 
ATOM     19 CL   UNL     1       0.720  11.644  18.923  0.00  0.00    +0.000 Cl
ATOM     20  C   UNL     1       1.830   9.415  17.879  0.00  0.00    +0.000 A 
ATOM     21  C   UNL     1       2.274   8.092  17.942  0.00  0.00    +0.000 A 
ENDBRANCH  14  15
ENDBRANCH   3  14
TORSDOF 4
ENDMDL
MODEL 9
REMARK VINA RESULT:      -6.7      1.012      1.945
REMARK  Name = 
REMARK  6 active torsions:
REMARK  status: ('A' for Active; 'I' for Inactive)
REMARK    1  A    between atoms: C_1  and  C_2
REMARK    2  A    between atoms: C_5  and  C_6
REMARK    3  A    between atoms: C_7  and  C_8
REMARK    4  A    between atoms: C_8  and  C_9
REMARK    5  A    between atoms: N_11  and  C_12
REMARK    6  A    between atoms: C_12  and  C_13
REMARK                            x       y       z     vdW  Elec       q    Type
REMARK                         _______ _______ _______ _____ _____    ______ ____
ROOT
ATOM      1  C   UNL     1       4.606   4.298  18.955  0.00  0.00    +0.000 C 
ATOM      2  O   UNL     1       4.310   3.390  19.731  0.00  0.00    +0.000 OA
ATOM      3  N   UNL     1       3.947   5.506  18.926  0.00  0.00    +0.000 N 
ATOM      4  H   UNL     1       4.122   6.141  18.160  0.00  0.00    +0.000 HD
ENDROOT
BRANCH   1   5
ATOM      5  C   UNL     1       5.773   4.176  17.985  0.00  0.00    +0.000 C 
BRANCH   5  12
ATOM      6  C   UNL     1       8.095   5.655  19.774  0.00  0.00    +0.000 C 
ATOM      7  C   UNL     1       7.480   6.109  18.503  0.00  0.00    +0.000 A 
ATOM      8  N   UNL     1       7.844   7.285  17.980  0.00  0.00    +0.000 NA
ATOM      9  N   UNL     1       7.085   7.414  16.889  0.00  0.00    +0.000 N 
ATOM     10  C   UNL     1       6.247   6.355  16.673  0.00  0.00    +0.000 A 
ATOM     11  C   UNL     1       5.303   6.338  15.531  0.00  0.00    +0.000 C 
ATOM     12  C   UNL     1       6.480   5.465  17.710  0.00  0.00    +0.000 A 
ATOM     13  H   UNL     1       7.176   8.263  16.342  0.00  0.00    +0.000 HD
ENDBRANCH   5  12
ENDBRANCH   1   5
BRANCH   3  14
ATOM     14  C   UNL     1       2.825   5.780  19.797  0.00  0.00    +0.000 C 
BRANCH  14  15
ATOM     15  C   UNL     1       2.226   7.139  19.533  0.00  0.00    +0.000 A 
ATOM     16  C   UNL     1       2.312   7.709  18.254  0.00  0.00    +0.000 A 
ATOM     17  C   UNL     1       1.764   8.967  17.996  0.00  0.00    +0.000 A 
ATOM     18  C   UNL     1       1.126   9.664  19.018  0.00  0.00    +0.000 A 
ATOM     19 CL   UNL     1       0.443  11.211  18.703  0.00  0.00    +0.000 Cl
ATOM     20  C   UNL     1       1.037   9.115  20.297  0.00  0.00    +0.000 A 
ATOM     21  C   UNL     1       1.588   7.857  20.556  0.00  0.00    +0.000 A 
ENDBRANCH  14  15
ENDBRANCH   3  14
TORSDOF 4
ENDMDL
