MODEL 1
REMARK VINA RESULT:      -4.6      0.000      0.000
REMARK  Name = 
REMARK  5 active torsions:
REMARK  status: ('A' for Active; 'I' for Inactive)
REMARK    1  A    between atoms: C_1  and  N_2
REMARK    2  A    between atoms: N_2  and  C_3
REMARK    3  A    between atoms: N_2  and  C_4
REMARK    4  A    between atoms: N_2  and  C_5
REMARK    5  A    between atoms: C_5  and  C_6
REMARK                            x       y       z     vdW  Elec       q    Type
REMARK                         _______ _______ _______ _____ _____    ______ ____
ROOT
ATOM      1  C   UNL     1       3.189   5.493  18.104  0.00  0.00    +0.000 C 
ENDROOT
BRANCH   1   2
ATOM      2  C   UNL     1       2.643   4.291  18.890  0.00  0.00    +0.000 C 
ATOM      3  C   UNL     1       2.001   4.776  20.201  0.00  0.00    +0.000 C 
ATOM      4  C   UNL     1       1.129   3.620  20.666  0.00  0.00    +0.000 C 
ATOM      5  C   UNL     1       0.756   2.846  19.408  0.00  0.00    +0.000 C 
ATOM      6  C   UNL     1       1.496   3.513  18.252  0.00  0.00    +0.000 C 
ENDBRANCH   1   2
BRANCH   1   8
ATOM      7  C   UNL     1       4.886   4.234  16.811  0.00  0.00    +0.000 C 
ATOM      8  N   UNL     1       4.681   5.462  17.716  0.00  0.00    +0.000 N 
ATOM      9  C   UNL     1       5.600   5.286  18.917  0.00  0.00    +0.000 C 
ATOM     10  C   UNL     1       5.088   6.699  16.931  0.00  0.00    +0.000 C 
ENDBRANCH   1   8
TORSDOF 2
ENDMDL
MODEL 2
REMARK VINA RESULT:      -4.6      0.118      1.355
REMARK  Name = 
REMARK  5 active torsions:
REMARK  status: ('A' for Active; 'I' for Inactive)
REMARK    1  A    between atoms: C_1  and  N_2
REMARK    2  A    between atoms: N_2  and  C_3
REMARK    3  A    between atoms: N_2  and  C_4
REMARK    4  A    between atoms: N_2  and  C_5
REMARK    5  A    between atoms: C_5  and  C_6
REMARK                            x       y       z     vdW  Elec       q    Type
REMARK                         _______ _______ _______ _____ _____    ______ ____
ROOT
ATOM      1  C   UNL     1       3.203   5.460  18.039  0.00  0.00    +0.000 C 
ENDROOT
BRANCH   1   2
ATOM      2  C   UNL     1       2.648   4.288  18.863  0.00  0.00    +0.000 C 
ATOM      3  C   UNL     1       1.972   4.825  20.136  0.00  0.00    +0.000 C 
ATOM      4  C   UNL     1       1.098   3.682  20.631  0.00  0.00    +0.000 C 
ATOM      5  C   UNL     1       0.759   2.852  19.400  0.00  0.00    +0.000 C 
ATOM      6  C   UNL     1       1.521   3.474  18.234  0.00  0.00    +0.000 C 
ENDBRANCH   1   2
BRANCH   1   8
ATOM      7  C   UNL     1       4.986   6.649  16.795  0.00  0.00    +0.000 C 
ATOM      8  N   UNL     1       4.673   5.365  17.582  0.00  0.00    +0.000 N 
ATOM      9  C   UNL     1       4.925   4.196  16.640  0.00  0.00    +0.000 C 
ATOM     10  C   UNL     1       5.629   5.291  18.763  0.00  0.00    +0.000 C 
ENDBRANCH   1   8
TORSDOF 2
ENDMDL
MODEL 3
REMARK VINA RESULT:      -4.6      0.076      1.356
REMARK  Name = 
REMARK  5 active torsions:
REMARK  status: ('A' for Active; 'I' for Inactive)
REMARK    1  A    between atoms: C_1  and  N_2
REMARK    2  A    between atoms: N_2  and  C_3
REMARK    3  A    between atoms: N_2  and  C_4
REMARK    4  A    between atoms: N_2  and  C_5
REMARK    5  A    between atoms: C_5  and  C_6
REMARK                            x       y       z     vdW  Elec       q    Type
REMARK                         _______ _______ _______ _____ _____    ______ ____
ROOT
ATOM      1  C   UNL     1       3.245   5.540  18.241  0.00  0.00    +0.000 C 
ENDROOT
BRANCH   1   2
ATOM      2  C   UNL     1       2.666   4.311  18.959  0.00  0.00    +0.000 C 
ATOM      3  C   UNL     1       2.022   4.743  20.288  0.00  0.00    +0.000 C 
ATOM      4  C   UNL     1       1.120   3.583  20.685  0.00  0.00    +0.000 C 
ATOM      5  C   UNL     1       0.742   2.883  19.386  0.00  0.00    +0.000 C 
ATOM      6  C   UNL     1       1.508   3.592  18.272  0.00  0.00    +0.000 C 
ENDBRANCH   1   2
BRANCH   1   8
ATOM      7  C   UNL     1       5.608   5.281  18.938  0.00  0.00    +0.000 C 
ATOM      8  N   UNL     1       4.689   5.431  17.713  0.00  0.00    +0.000 N 
ATOM      9  C   UNL     1       5.143   6.679  16.970  0.00  0.00    +0.000 C 
ATOM     10  C   UNL     1       4.878   4.207  16.830  0.00  0.00    +0.000 C 
ENDBRANCH   1   8
TORSDOF 2
ENDMDL
MODEL 4
REMARK VINA RESULT:      -4.6      1.331      2.177
REMARK  Name = 
REMARK  5 active torsions:
REMARK  status: ('A' for Active; 'I' for Inactive)
REMARK    1  A    between atoms: C_1  and  N_2
REMARK    2  A    between atoms: N_2  and  C_3
REMARK    3  A    between atoms: N_2  and  C_4
REMARK    4  A    between atoms: N_2  and  C_5
REMARK    5  A    between atoms: C_5  and  C_6
REMARK                            x       y       z     vdW  Elec       q    Type
REMARK                         _______ _______ _______ _____ _____    ______ ____
ROOT
ATOM      1  C   UNL     1       4.690   4.031  16.962  0.00  0.00    +0.000 C 
ENDROOT
BRANCH   1   2
ATOM      2  C   UNL     1       3.618   3.619  17.983  0.00  0.00    +0.000 C 
ATOM      3  C   UNL     1       2.316   4.389  17.705  0.00  0.00    +0.000 C 
ATOM      4  C   UNL     1       1.233   3.615  18.443  0.00  0.00    +0.000 C 
ATOM      5  C   UNL     1       1.735   2.180  18.535  0.00  0.00    +0.000 C 
ATOM      6  C   UNL     1       3.138   2.171  17.934  0.00  0.00    +0.000 C 
ENDBRANCH   1   2
BRANCH   1   8
ATOM      7  C   UNL     1       5.767   4.976  18.983  0.00  0.00    +0.000 C 
ATOM      8  N   UNL     1       5.783   5.005  17.444  0.00  0.00    +0.000 N 
ATOM      9  C   UNL     1       5.518   6.445  17.026  0.00  0.00    +0.000 C 
ATOM     10  C   UNL     1       7.167   4.579  16.980  0.00  0.00    +0.000 C 
ENDBRANCH   1   8
TORSDOF 2
ENDMDL
MODEL 5
REMARK VINA RESULT:      -4.6      1.323      1.834
REMARK  Name = 
REMARK  5 active torsions:
REMARK  status: ('A' for Active; 'I' for Inactive)
REMARK    1  A    between atoms: C_1  and  N_2
REMARK    2  A    between atoms: N_2  and  C_3
REMARK    3  A    between atoms: N_2  and  C_4
REMARK    4  A    between atoms: N_2  and  C_5
REMARK    5  A    between atoms: C_5  and  C_6
REMARK                            x       y       z     vdW  Elec       q    Type
REMARK                         _______ _______ _______ _____ _____    ______ ____
ROOT
ATOM      1  C   UNL     1       4.724   4.037  16.912  0.00  0.00    +0.000 C 
ENDROOT
BRANCH   1   2
ATOM      2  C   UNL     1       3.659   3.615  17.937  0.00  0.00    +0.000 C 
ATOM      3  C   UNL     1       2.373   4.429  17.712  0.00  0.00    +0.000 C 
ATOM      4  C   UNL     1       1.284   3.656  18.441  0.00  0.00    +0.000 C 
ATOM      5  C   UNL     1       1.750   2.205  18.471  0.00  0.00    +0.000 C 
ATOM      6  C   UNL     1       3.141   2.183  17.844  0.00  0.00    +0.000 C 
ENDBRANCH   1   2
BRANCH   1   8
ATOM      7  C   UNL     1       7.138   4.594  16.871  0.00  0.00    +0.000 C 
ATOM      8  N   UNL     1       5.765   5.080  17.367  0.00  0.00    +0.000 N 
ATOM      9  C   UNL     1       5.858   5.199  18.882  0.00  0.00    +0.000 C 
ATOM     10  C   UNL     1       5.500   6.448  16.758  0.00  0.00    +0.000 C 
ENDBRANCH   1   8
TORSDOF 2
ENDMDL
MODEL 6
REMARK VINA RESULT:      -4.5      1.634      2.470
REMARK  Name = 
REMARK  5 active torsions:
REMARK  status: ('A' for Active; 'I' for Inactive)
REMARK    1  A    between atoms: C_1  and  N_2
REMARK    2  A    between atoms: N_2  and  C_3
REMARK    3  A    between atoms: N_2  and  C_4
REMARK    4  A    between atoms: N_2  and  C_5
REMARK    5  A    between atoms: C_5  and  C_6
REMARK                            x       y       z     vdW  Elec       q    Type
REMARK                         _______ _______ _______ _____ _____    ______ ____
ROOT
ATOM      1  C   UNL     1       5.229   4.291  18.115  0.00  0.00    +0.000 C 
ENDROOT
BRANCH   1   2
ATOM      2  C   UNL     1       3.836   3.871  17.622  0.00  0.00    +0.000 C 
ATOM      3  C   UNL     1       3.382   2.605  18.370  0.00  0.00    +0.000 C 
ATOM      4  C   UNL     1       1.878   2.536  18.152  0.00  0.00    +0.000 C 
ATOM      5  C   UNL     1       1.423   3.971  17.916  0.00  0.00    +0.000 C 
ATOM      6  C   UNL     1       2.684   4.830  17.908  0.00  0.00    +0.000 C 
ENDBRANCH   1   2
BRANCH   1   8
ATOM      7  C   UNL     1       7.637   4.615  17.628  0.00  0.00    +0.000 C 
ATOM      8  N   UNL     1       6.221   4.815  17.058  0.00  0.00    +0.000 N 
ATOM      9  C   UNL     1       6.061   6.304  16.782  0.00  0.00    +0.000 C 
ATOM     10  C   UNL     1       6.125   4.036  15.755  0.00  0.00    +0.000 C 
ENDBRANCH   1   8
TORSDOF 2
ENDMDL
MODEL 7
REMARK VINA RESULT:      -4.5      1.362      2.174
REMARK  Name = 
REMARK  5 active torsions:
REMARK  status: ('A' for Active; 'I' for Inactive)
REMARK    1  A    between atoms: C_1  and  N_2
REMARK    2  A    between atoms: N_2  and  C_3
REMARK    3  A    between atoms: N_2  and  C_4
REMARK    4  A    between atoms: N_2  and  C_5
REMARK    5  A    between atoms: C_5  and  C_6
REMARK                            x       y       z     vdW  Elec       q    Type
REMARK                         _______ _______ _______ _____ _____    ______ ____
ROOT
ATOM      1  C   UNL     1       4.484   4.071  16.757  0.00  0.00    +0.000 C 
ENDROOT
BRANCH   1   2
ATOM      2  C   UNL     1       3.530   3.642  17.882  0.00  0.00    +0.000 C 
ATOM      3  C   UNL     1       2.130   4.224  17.623  0.00  0.00    +0.000 C 
ATOM      4  C   UNL     1       1.194   3.407  18.502  0.00  0.00    +0.000 C 
ATOM      5  C   UNL     1       1.872   2.056  18.692  0.00  0.00    +0.000 C 
ATOM      6  C   UNL     1       3.229   2.151  18.000  0.00  0.00    +0.000 C 
ENDBRANCH   1   2
BRANCH   1   8
ATOM      7  C   UNL     1       5.315   6.399  16.587  0.00  0.00    +0.000 C 
ATOM      8  N   UNL     1       5.651   5.003  17.141  0.00  0.00    +0.000 N 
ATOM      9  C   UNL     1       6.973   4.584  16.514  0.00  0.00    +0.000 C 
ATOM     10  C   UNL     1       5.809   5.120  18.649  0.00  0.00    +0.000 C 
ENDBRANCH   1   8
TORSDOF 2
ENDMDL
MODEL 8
REMARK VINA RESULT:      -4.5      1.623      2.561
REMARK  Name = 
REMARK  5 active torsions:
REMARK  status: ('A' for Active; 'I' for Inactive)
REMARK    1  A    between atoms: C_1  and  N_2
REMARK    2  A    between atoms: N_2  and  C_3
REMARK    3  A    between atoms: N_2  and  C_4
REMARK    4  A    between atoms: N_2  and  C_5
REMARK    5  A    between atoms: C_5  and  C_6
REMARK                            x       y       z     vdW  Elec       q    Type
REMARK                         _______ _______ _______ _____ _____    ______ ____
ROOT
ATOM      1  C   UNL     1       5.181   4.265  18.045  0.00  0.00    +0.000 C 
ENDROOT
BRANCH   1   2
ATOM      2  C   UNL     1       3.778   3.833  17.589  0.00  0.00    +0.000 C 
ATOM      3  C   UNL     1       3.362   2.555  18.337  0.00  0.00    +0.000 C 
ATOM      4  C   UNL     1       1.853   2.469  18.164  0.00  0.00    +0.000 C 
ATOM      5  C   UNL     1       1.374   3.901  17.957  0.00  0.00    +0.000 C 
ATOM      6  C   UNL     1       2.624   4.775  17.919  0.00  0.00    +0.000 C 
ENDBRANCH   1   2
BRANCH   1   8
ATOM      7  C   UNL     1       5.883   6.153  16.603  0.00  0.00    +0.000 C 
ATOM      8  N   UNL     1       6.180   4.683  16.947  0.00  0.00    +0.000 N 
ATOM      9  C   UNL     1       6.013   3.885  15.662  0.00  0.00    +0.000 C 
ATOM     10  C   UNL     1       7.620   4.593  17.428  0.00  0.00    +0.000 C 
ENDBRANCH   1   8
TORSDOF 2
ENDMDL
MODEL 9
REMARK VINA RESULT:      -4.5      1.661      2.616
REMARK  Name = 
REMARK  5 active torsions:
REMARK  status: ('A' for Active; 'I' for Inactive)
REMARK    1  A    between atoms: C_1  and  N_2
REMARK    2  A    between atoms: N_2  and  C_3
REMARK    3  A    between atoms: N_2  and  C_4
REMARK    4  A    between atoms: N_2  and  C_5
REMARK    5  A    between atoms: C_5  and  C_6
REMARK                            x       y       z     vdW  Elec       q    Type
REMARK                         _______ _______ _______ _____ _____    ______ ____
ROOT
ATOM      1  C   UNL     1       5.164   5.889  17.285  0.00  0.00    +0.000 C 
ENDROOT
BRANCH   1   2
ATOM      2  C   UNL     1       4.140   4.888  17.842  0.00  0.00    +0.000 C 
ATOM      3  C   UNL     1       2.762   5.561  17.946  0.00  0.00    +0.000 C 
ATOM      4  C   UNL     1       1.770   4.413  18.068  0.00  0.00    +0.000 C 
ATOM      5  C   UNL     1       2.429   3.218  17.392  0.00  0.00    +0.000 C 
ATOM      6  C   UNL     1       3.827   3.670  16.978  0.00  0.00    +0.000 C 
ENDBRANCH   1   2
BRANCH   1   8
ATOM      7  C   UNL     1       6.555   5.457  19.290  0.00  0.00    +0.000 C 
ATOM      8  N   UNL     1       6.618   5.759  17.782  0.00  0.00    +0.000 N 
ATOM      9  C   UNL     1       7.416   7.045  17.622  0.00  0.00    +0.000 C 
ATOM     10  C   UNL     1       7.348   4.611  17.103  0.00  0.00    +0.000 C 
ENDBRANCH   1   8
TORSDOF 2
ENDMDL
