MODEL 1
REMARK VINA RESULT:      -7.2      0.000      0.000
REMARK  Name = 
REMARK  2 active torsions:
REMARK  status: ('A' for Active; 'I' for Inactive)
REMARK    1  A    between atoms: C_5  and  O_6
REMARK    2  A    between atoms: O_6  and  C_7
REMARK                            x       y       z     vdW  Elec       q    Type
REMARK                         _______ _______ _______ _____ _____    ______ ____
ROOT
ATOM      1  N   UNL     1       7.535   5.233  14.943  0.00  0.00    +0.000 N 
ATOM      2  C   UNL     1       6.617   5.455  15.914  0.00  0.00    +0.000 A 
ATOM      3  N   UNL     1       5.675   6.323  15.735  0.00  0.00    +0.000 NA
ATOM      4  C   UNL     1       4.779   6.496  16.762  0.00  0.00    +0.000 A 
ATOM      5  C   UNL     1       4.755   5.804  17.916  0.00  0.00    +0.000 A 
ATOM      6  C   UNL     1       5.874   4.845  18.109  0.00  0.00    +0.000 A 
ATOM      7  O   UNL     1       6.023   4.193  19.136  0.00  0.00    +0.000 OA
ATOM      8  N   UNL     1       6.736   4.725  17.054  0.00  0.00    +0.000 N 
ATOM      9  H   UNL     1       7.246   5.614  14.047  0.00  0.00    +0.000 HD
ATOM     10  H   UNL     1       7.935   4.308  14.876  0.00  0.00    +0.000 HD
ATOM     11  H   UNL     1       7.513   4.098  17.186  0.00  0.00    +0.000 HD
ENDROOT
BRANCH   5  12
ATOM     12  O   UNL     1       3.856   5.961  18.956  0.00  0.00    +0.000 OA
BRANCH  12  13
ATOM     13  C   UNL     1       2.853   5.039  19.150  0.00  0.00    +0.000 A 
ATOM     14  C   UNL     1       2.296   4.276  18.120  0.00  0.00    +0.000 A 
ATOM     15  C   UNL     1       1.269   3.373  18.397  0.00  0.00    +0.000 A 
ATOM     16  C   UNL     1       0.831   3.197  19.710  0.00  0.00    +0.000 A 
ATOM     17  C   UNL     1       1.426   3.916  20.746  0.00  0.00    +0.000 A 
ATOM     18  C   UNL     1       2.437   4.836  20.467  0.00  0.00    +0.000 A 
ENDBRANCH  12  13
ENDBRANCH   5  12
TORSDOF 2
ENDMDL
MODEL 2
REMARK VINA RESULT:      -7.1      1.444      1.656
REMARK  Name = 
REMARK  2 active torsions:
REMARK  status: ('A' for Active; 'I' for Inactive)
REMARK    1  A    between atoms: C_5  and  O_6
REMARK    2  A    between atoms: O_6  and  C_7
REMARK                            x       y       z     vdW  Elec       q    Type
REMARK                         _______ _______ _______ _____ _____    ______ ____
ROOT
ATOM      1  N   UNL     1       7.362   5.198  14.367  0.00  0.00    +0.000 N 
ATOM      2  C   UNL     1       6.812   4.890  15.567  0.00  0.00    +0.000 A 
ATOM      3  N   UNL     1       5.576   4.515  15.641  0.00  0.00    +0.000 NA
ATOM      4  C   UNL     1       5.085   4.218  16.889  0.00  0.00    +0.000 A 
ATOM      5  C   UNL     1       5.787   4.227  18.037  0.00  0.00    +0.000 A 
ATOM      6  C   UNL     1       7.190   4.703  17.926  0.00  0.00    +0.000 A 
ATOM      7  O   UNL     1       7.930   4.829  18.895  0.00  0.00    +0.000 OA
ATOM      8  N   UNL     1       7.616   4.989  16.657  0.00  0.00    +0.000 N 
ATOM      9  H   UNL     1       6.798   4.866  13.590  0.00  0.00    +0.000 HD
ATOM     10  H   UNL     1       8.350   5.030  14.247  0.00  0.00    +0.000 HD
ATOM     11  H   UNL     1       8.556   5.339  16.574  0.00  0.00    +0.000 HD
ENDROOT
BRANCH   5  12
ATOM     12  O   UNL     1       5.308   3.925  19.300  0.00  0.00    +0.000 OA
BRANCH  12  13
ATOM     13  C   UNL     1       3.954   3.885  19.538  0.00  0.00    +0.000 A 
ATOM     14  C   UNL     1       3.204   2.705  19.535  0.00  0.00    +0.000 A 
ATOM     15  C   UNL     1       1.829   2.751  19.768  0.00  0.00    +0.000 A 
ATOM     16  C   UNL     1       1.210   3.968  20.051  0.00  0.00    +0.000 A 
ATOM     17  C   UNL     1       1.967   5.138  20.111  0.00  0.00    +0.000 A 
ATOM     18  C   UNL     1       3.339   5.097  19.855  0.00  0.00    +0.000 A 
ENDBRANCH  12  13
ENDBRANCH   5  12
TORSDOF 2
ENDMDL
MODEL 3
REMARK VINA RESULT:      -7.1      0.203      1.258
REMARK  Name = 
REMARK  2 active torsions:
REMARK  status: ('A' for Active; 'I' for Inactive)
REMARK    1  A    between atoms: C_5  and  O_6
REMARK    2  A    between atoms: O_6  and  C_7
REMARK                            x       y       z     vdW  Elec       q    Type
REMARK                         _______ _______ _______ _____ _____    ______ ____
ROOT
ATOM      1  N   UNL     1       7.501   5.263  15.163  0.00  0.00    +0.000 N 
ATOM      2  C   UNL     1       6.565   5.484  16.118  0.00  0.00    +0.000 A 
ATOM      3  N   UNL     1       5.640   6.368  15.931  0.00  0.00    +0.000 NA
ATOM      4  C   UNL     1       4.725   6.540  16.942  0.00  0.00    +0.000 A 
ATOM      5  C   UNL     1       4.668   5.833  18.085  0.00  0.00    +0.000 A 
ATOM      6  C   UNL     1       5.769   4.855  18.289  0.00  0.00    +0.000 A 
ATOM      7  O   UNL     1       5.888   4.188  19.310  0.00  0.00    +0.000 OA
ATOM      8  N   UNL     1       6.651   4.738  17.250  0.00  0.00    +0.000 N 
ATOM      9  H   UNL     1       7.236   5.660  14.267  0.00  0.00    +0.000 HD
ATOM     10  H   UNL     1       7.889   4.333  15.092  0.00  0.00    +0.000 HD
ATOM     11  H   UNL     1       7.416   4.099  17.389  0.00  0.00    +0.000 HD
ENDROOT
BRANCH   5  12
ATOM     12  O   UNL     1       3.749   5.988  19.109  0.00  0.00    +0.000 OA
BRANCH  12  13
ATOM     13  C   UNL     1       2.793   5.025  19.334  0.00  0.00    +0.000 A 
ATOM     14  C   UNL     1       2.344   4.666  20.609  0.00  0.00    +0.000 A 
ATOM     15  C   UNL     1       1.382   3.667  20.754  0.00  0.00    +0.000 A 
ATOM     16  C   UNL     1       0.833   3.058  19.626  0.00  0.00    +0.000 A 
ATOM     17  C   UNL     1       1.238   3.455  18.352  0.00  0.00    +0.000 A 
ATOM     18  C   UNL     1       2.217   4.439  18.206  0.00  0.00    +0.000 A 
ENDBRANCH  12  13
ENDBRANCH   5  12
TORSDOF 2
ENDMDL
MODEL 4
REMARK VINA RESULT:      -7.0      1.417      1.797
REMARK  Name = 
REMARK  2 active torsions:
REMARK  status: ('A' for Active; 'I' for Inactive)
REMARK    1  A    between atoms: C_5  and  O_6
REMARK    2  A    between atoms: O_6  and  C_7
REMARK                            x       y       z     vdW  Elec       q    Type
REMARK                         _______ _______ _______ _____ _____    ______ ____
ROOT
ATOM      1  N   UNL     1       7.533   5.321  14.013  0.00  0.00    +0.000 N 
ATOM      2  C   UNL     1       6.890   5.031  15.170  0.00  0.00    +0.000 A 
ATOM      3  N   UNL     1       5.604   4.895  15.184  0.00  0.00    +0.000 NA
ATOM      4  C   UNL     1       5.019   4.601  16.392  0.00  0.00    +0.000 A 
ATOM      5  C   UNL     1       5.666   4.386  17.552  0.00  0.00    +0.000 A 
ATOM      6  C   UNL     1       7.137   4.592  17.513  0.00  0.00    +0.000 A 
ATOM      7  O   UNL     1       7.851   4.497  18.505  0.00  0.00    +0.000 OA
ATOM      8  N   UNL     1       7.657   4.889  16.283  0.00  0.00    +0.000 N 
ATOM      9  H   UNL     1       6.946   5.165  13.199  0.00  0.00    +0.000 HD
ATOM     10  H   UNL     1       8.476   4.977  13.901  0.00  0.00    +0.000 HD
ATOM     11  H   UNL     1       8.648   5.058  16.250  0.00  0.00    +0.000 HD
ENDROOT
BRANCH   5  12
ATOM     12  O   UNL     1       5.092   4.083  18.775  0.00  0.00    +0.000 OA
BRANCH  12  13
ATOM     13  C   UNL     1       3.775   3.690  18.844  0.00  0.00    +0.000 A 
ATOM     14  C   UNL     1       2.710   4.581  19.000  0.00  0.00    +0.000 A 
ATOM     15  C   UNL     1       1.403   4.101  19.078  0.00  0.00    +0.000 A 
ATOM     16  C   UNL     1       1.153   2.735  18.954  0.00  0.00    +0.000 A 
ATOM     17  C   UNL     1       2.209   1.849  18.741  0.00  0.00    +0.000 A 
ATOM     18  C   UNL     1       3.520   2.327  18.685  0.00  0.00    +0.000 A 
ENDBRANCH  12  13
ENDBRANCH   5  12
TORSDOF 2
ENDMDL
MODEL 5
REMARK VINA RESULT:      -6.9      1.526      1.860
REMARK  Name = 
REMARK  2 active torsions:
REMARK  status: ('A' for Active; 'I' for Inactive)
REMARK    1  A    between atoms: C_5  and  O_6
REMARK    2  A    between atoms: O_6  and  C_7
REMARK                            x       y       z     vdW  Elec       q    Type
REMARK                         _______ _______ _______ _____ _____    ______ ____
ROOT
ATOM      1  N   UNL     1       7.166   5.210  14.200  0.00  0.00    +0.000 N 
ATOM      2  C   UNL     1       6.666   4.867  15.412  0.00  0.00    +0.000 A 
ATOM      3  N   UNL     1       5.441   4.467  15.523  0.00  0.00    +0.000 NA
ATOM      4  C   UNL     1       5.001   4.137  16.782  0.00  0.00    +0.000 A 
ATOM      5  C   UNL     1       5.745   4.136  17.904  0.00  0.00    +0.000 A 
ATOM      6  C   UNL     1       7.134   4.640  17.752  0.00  0.00    +0.000 A 
ATOM      7  O   UNL     1       7.907   4.761  18.695  0.00  0.00    +0.000 OA
ATOM      8  N   UNL     1       7.508   4.960  16.475  0.00  0.00    +0.000 N 
ATOM      9  H   UNL     1       6.580   4.883  13.438  0.00  0.00    +0.000 HD
ATOM     10  H   UNL     1       8.152   5.063  14.040  0.00  0.00    +0.000 HD
ATOM     11  H   UNL     1       8.437   5.329  16.365  0.00  0.00    +0.000 HD
ENDROOT
BRANCH   5  12
ATOM     12  O   UNL     1       5.319   3.799  19.178  0.00  0.00    +0.000 OA
BRANCH  12  13
ATOM     13  C   UNL     1       4.022   4.048  19.563  0.00  0.00    +0.000 A 
ATOM     14  C   UNL     1       3.494   5.333  19.714  0.00  0.00    +0.000 A 
ATOM     15  C   UNL     1       2.172   5.502  20.125  0.00  0.00    +0.000 A 
ATOM     16  C   UNL     1       1.361   4.388  20.340  0.00  0.00    +0.000 A 
ATOM     17  C   UNL     1       1.869   3.105  20.134  0.00  0.00    +0.000 A 
ATOM     18  C   UNL     1       3.199   2.935  19.745  0.00  0.00    +0.000 A 
ENDBRANCH  12  13
ENDBRANCH   5  12
TORSDOF 2
ENDMDL
MODEL 6
REMARK VINA RESULT:      -6.8      2.091      2.669
REMARK  Name = 
REMARK  2 active torsions:
REMARK  status: ('A' for Active; 'I' for Inactive)
REMARK    1  A    between atoms: C_5  and  O_6
REMARK    2  A    between atoms: O_6  and  C_7
REMARK                            x       y       z     vdW  Elec       q    Type
REMARK                         _______ _______ _______ _____ _____    ______ ____
ROOT
ATOM      1  N   UNL     1       8.368   8.791  17.546  0.00  0.00    +0.000 N 
ATOM      2  C   UNL     1       7.690   7.654  17.839  0.00  0.00    +0.000 A 
ATOM      3  N   UNL     1       6.699   7.277  17.097  0.00  0.00    +0.000 NA
ATOM      4  C   UNL     1       6.058   6.116  17.453  0.00  0.00    +0.000 A 
ATOM      5  C   UNL     1       6.401   5.302  18.469  0.00  0.00    +0.000 A 
ATOM      6  C   UNL     1       7.515   5.784  19.327  0.00  0.00    +0.000 A 
ATOM      7  O   UNL     1       7.894   5.185  20.327  0.00  0.00    +0.000 OA
ATOM      8  N   UNL     1       8.106   6.950  18.924  0.00  0.00    +0.000 N 
ATOM      9  H   UNL     1       8.175   9.121  16.605  0.00  0.00    +0.000 HD
ATOM     10  H   UNL     1       9.347   8.831  17.793  0.00  0.00    +0.000 HD
ATOM     11  H   UNL     1       8.843   7.300  19.514  0.00  0.00    +0.000 HD
ENDROOT
BRANCH   5  12
ATOM     12  O   UNL     1       5.770   4.126  18.836  0.00  0.00    +0.000 OA
BRANCH  12  13
ATOM     13  C   UNL     1       4.408   3.995  18.689  0.00  0.00    +0.000 A 
ATOM     14  C   UNL     1       3.477   4.628  19.518  0.00  0.00    +0.000 A 
ATOM     15  C   UNL     1       2.112   4.431  19.314  0.00  0.00    +0.000 A 
ATOM     16  C   UNL     1       1.673   3.640  18.252  0.00  0.00    +0.000 A 
ATOM     17  C   UNL     1       2.599   3.055  17.389  0.00  0.00    +0.000 A 
ATOM     18  C   UNL     1       3.966   3.233  17.607  0.00  0.00    +0.000 A 
ENDBRANCH  12  13
ENDBRANCH   5  12
TORSDOF 2
ENDMDL
MODEL 7
REMARK VINA RESULT:      -6.7      0.713      2.083
REMARK  Name = 
REMARK  2 active torsions:
REMARK  status: ('A' for Active; 'I' for Inactive)
REMARK    1  A    between atoms: C_5  and  O_6
REMARK    2  A    between atoms: O_6  and  C_7
REMARK                            x       y       z     vdW  Elec       q    Type
REMARK                         _______ _______ _______ _____ _____    ______ ____
ROOT
ATOM      1  N   UNL     1       7.540   5.390  15.059  0.00  0.00    +0.000 N 
ATOM      2  C   UNL     1       6.708   5.421  16.128  0.00  0.00    +0.000 A 
ATOM      3  N   UNL     1       6.853   4.572  17.093  0.00  0.00    +0.000 NA
ATOM      4  C   UNL     1       5.974   4.662  18.144  0.00  0.00    +0.000 A 
ATOM      5  C   UNL     1       5.010   5.590  18.292  0.00  0.00    +0.000 A 
ATOM      6  C   UNL     1       4.841   6.524  17.148  0.00  0.00    +0.000 A 
ATOM      7  O   UNL     1       3.962   7.378  17.109  0.00  0.00    +0.000 OA
ATOM      8  N   UNL     1       5.742   6.377  16.129  0.00  0.00    +0.000 N 
ATOM      9  H   UNL     1       8.371   4.834  15.236  0.00  0.00    +0.000 HD
ATOM     10  H   UNL     1       7.732   6.262  14.587  0.00  0.00    +0.000 HD
ATOM     11  H   UNL     1       5.619   6.986  15.338  0.00  0.00    +0.000 HD
ENDROOT
BRANCH   5  12
ATOM     12  O   UNL     1       4.122   5.698  19.348  0.00  0.00    +0.000 OA
BRANCH  12  13
ATOM     13  C   UNL     1       3.061   4.828  19.453  0.00  0.00    +0.000 A 
ATOM     14  C   UNL     1       2.461   4.486  20.668  0.00  0.00    +0.000 A 
ATOM     15  C   UNL     1       1.399   3.582  20.693  0.00  0.00    +0.000 A 
ATOM     16  C   UNL     1       0.903   3.056  19.500  0.00  0.00    +0.000 A 
ATOM     17  C   UNL     1       1.463   3.442  18.282  0.00  0.00    +0.000 A 
ATOM     18  C   UNL     1       2.541   4.328  18.258  0.00  0.00    +0.000 A 
ENDBRANCH  12  13
ENDBRANCH   5  12
TORSDOF 2
ENDMDL
MODEL 8
REMARK VINA RESULT:      -6.7      1.563      1.984
REMARK  Name = 
REMARK  2 active torsions:
REMARK  status: ('A' for Active; 'I' for Inactive)
REMARK    1  A    between atoms: C_5  and  O_6
REMARK    2  A    between atoms: O_6  and  C_7
REMARK                            x       y       z     vdW  Elec       q    Type
REMARK                         _______ _______ _______ _____ _____    ______ ____
ROOT
ATOM      1  N   UNL     1       8.588   4.226  17.939  0.00  0.00    +0.000 N 
ATOM      2  C   UNL     1       7.266   4.519  17.982  0.00  0.00    +0.000 A 
ATOM      3  N   UNL     1       6.753   5.066  19.036  0.00  0.00    +0.000 NA
ATOM      4  C   UNL     1       5.407   5.335  19.011  0.00  0.00    +0.000 A 
ATOM      5  C   UNL     1       4.580   5.134  17.968  0.00  0.00    +0.000 A 
ATOM      6  C   UNL     1       5.189   4.465  16.788  0.00  0.00    +0.000 A 
ATOM      7  O   UNL     1       4.546   4.157  15.791  0.00  0.00    +0.000 OA
ATOM      8  N   UNL     1       6.531   4.217  16.880  0.00  0.00    +0.000 N 
ATOM      9  H   UNL     1       9.109   4.696  18.673  0.00  0.00    +0.000 HD
ATOM     10  H   UNL     1       9.046   4.254  17.039  0.00  0.00    +0.000 HD
ATOM     11  H   UNL     1       6.947   3.740  16.098  0.00  0.00    +0.000 HD
ENDROOT
BRANCH   5  12
ATOM     12  O   UNL     1       3.223   5.406  17.924  0.00  0.00    +0.000 OA
BRANCH  12  13
ATOM     13  C   UNL     1       2.330   4.580  18.566  0.00  0.00    +0.000 A 
ATOM     14  C   UNL     1       1.833   3.398  18.008  0.00  0.00    +0.000 A 
ATOM     15  C   UNL     1       0.916   2.623  18.718  0.00  0.00    +0.000 A 
ATOM     16  C   UNL     1       0.529   3.002  20.003  0.00  0.00    +0.000 A 
ATOM     17  C   UNL     1       1.067   4.150  20.583  0.00  0.00    +0.000 A 
ATOM     18  C   UNL     1       1.968   4.939  19.865  0.00  0.00    +0.000 A 
ENDBRANCH  12  13
ENDBRANCH   5  12
TORSDOF 2
ENDMDL
MODEL 9
REMARK VINA RESULT:      -6.7      2.121      2.853
REMARK  Name = 
REMARK  2 active torsions:
REMARK  status: ('A' for Active; 'I' for Inactive)
REMARK    1  A    between atoms: C_5  and  O_6
REMARK    2  A    between atoms: O_6  and  C_7
REMARK                            x       y       z     vdW  Elec       q    Type
REMARK                         _______ _______ _______ _____ _____    ______ ____
ROOT
ATOM      1  N   UNL     1       8.260   7.925  18.245  0.00  0.00    +0.000 N 
ATOM      2  C   UNL     1       7.487   6.869  17.895  0.00  0.00    +0.000 A 
ATOM      3  N   UNL     1       7.376   5.852  18.686  0.00  0.00    +0.000 NA
ATOM      4  C   UNL     1       6.575   4.817  18.267  0.00  0.00    +0.000 A 
ATOM      5  C   UNL     1       5.849   4.788  17.134  0.00  0.00    +0.000 A 
ATOM      6  C   UNL     1       6.031   5.951  16.227  0.00  0.00    +0.000 A 
ATOM      7  O   UNL     1       5.488   6.033  15.131  0.00  0.00    +0.000 OA
ATOM      8  N   UNL     1       6.847   6.943  16.699  0.00  0.00    +0.000 N 
ATOM      9  H   UNL     1       8.498   7.916  19.232  0.00  0.00    +0.000 HD
ATOM     10  H   UNL     1       7.992   8.838  17.904  0.00  0.00    +0.000 HD
ATOM     11  H   UNL     1       6.998   7.723  16.080  0.00  0.00    +0.000 HD
ENDROOT
BRANCH   5  12
ATOM     12  O   UNL     1       5.033   3.757  16.702  0.00  0.00    +0.000 OA
BRANCH  12  13
ATOM     13  C   UNL     1       3.839   3.505  17.338  0.00  0.00    +0.000 A 
ATOM     14  C   UNL     1       3.504   2.264  17.888  0.00  0.00    +0.000 A 
ATOM     15  C   UNL     1       2.265   2.084  18.502  0.00  0.00    +0.000 A 
ATOM     16  C   UNL     1       1.378   3.155  18.610  0.00  0.00    +0.000 A 
ATOM     17  C   UNL     1       1.734   4.408  18.113  0.00  0.00    +0.000 A 
ATOM     18  C   UNL     1       2.965   4.584  17.478  0.00  0.00    +0.000 A 
ENDBRANCH  12  13
ENDBRANCH   5  12
TORSDOF 2
ENDMDL
