MODEL 1
REMARK VINA RESULT:      -6.2      0.000      0.000
REMARK  Name = 
REMARK  4 active torsions:
REMARK  status: ('A' for Active; 'I' for Inactive)
REMARK    1  A    between atoms: C_1  and  N_2
REMARK    2  A    between atoms: C_7  and  C_9
REMARK    3  A    between atoms: C_9  and  C_10
REMARK    4  A    between atoms: C_10  and  C_11
REMARK                            x       y       z     vdW  Elec       q    Type
REMARK                         _______ _______ _______ _____ _____    ______ ____
ROOT
ATOM      1  C   UNL     1       6.922   4.618  14.018  0.00  0.00    +0.000 C 
ATOM      2  N   UNL     1       6.807   5.390  15.256  0.00  0.00    +0.000 NA
ATOM      3  C   UNL     1       7.532   4.721  16.347  0.00  0.00    +0.000 C 
ATOM      4  C   UNL     1       7.231   5.240  17.758  0.00  0.00    +0.000 C 
ATOM      5  C   UNL     1       6.025   4.537  18.390  0.00  0.00    +0.000 C 
ATOM      6  N   UNL     1       4.743   4.896  17.788  0.00  0.00    +0.000 N 
ATOM      7  C   UNL     1       3.797   5.553  18.572  0.00  0.00    +0.000 C 
ATOM      8  O   UNL     1       3.999   5.822  19.757  0.00  0.00    +0.000 OA
ATOM      9  C   UNL     1       4.609   4.683  16.340  0.00  0.00    +0.000 C 
ATOM     10  C   UNL     1       5.405   5.730  15.545  0.00  0.00    +0.000 C 
ENDROOT
BRANCH   7  11
ATOM     11  C   UNL     1       2.476   5.909  17.909  0.00  0.00    +0.000 C 
BRANCH  11  12
ATOM     12  C   UNL     1       1.565   4.690  17.787  0.00  0.00    +0.000 C 
BRANCH  12  13
ATOM     13  C   UNL     1       1.653   3.798  18.993  0.00  0.00    +0.000 A 
ATOM     14  C   UNL     1       2.381   2.563  19.037  0.00  0.00    +0.000 A 
ATOM     15  C   UNL     1       2.300   1.943  20.264  0.00  0.00    +0.000 A 
ATOM     16  S   UNL     1       1.344   2.831  21.368  0.00  0.00    +0.000 S 
ATOM     17  C   UNL     1       1.042   4.050  20.207  0.00  0.00    +0.000 A 
ENDBRANCH  12  13
ENDBRANCH  11  12
ENDBRANCH   7  11
TORSDOF 3
ENDMDL
MODEL 2
REMARK VINA RESULT:      -6.2      3.099      6.400
REMARK  Name = 
REMARK  4 active torsions:
REMARK  status: ('A' for Active; 'I' for Inactive)
REMARK    1  A    between atoms: C_1  and  N_2
REMARK    2  A    between atoms: C_7  and  C_9
REMARK    3  A    between atoms: C_9  and  C_10
REMARK    4  A    between atoms: C_10  and  C_11
REMARK                            x       y       z     vdW  Elec       q    Type
REMARK                         _______ _______ _______ _____ _____    ______ ____
ROOT
ATOM      1  C   UNL     1       1.481   2.769  20.916  0.00  0.00    +0.000 C 
ATOM      2  N   UNL     1       2.368   3.914  20.704  0.00  0.00    +0.000 NA
ATOM      3  C   UNL     1       1.584   5.129  20.439  0.00  0.00    +0.000 C 
ATOM      4  C   UNL     1       2.377   6.321  19.885  0.00  0.00    +0.000 C 
ATOM      5  C   UNL     1       2.479   6.289  18.358  0.00  0.00    +0.000 C 
ATOM      6  N   UNL     1       3.350   5.236  17.840  0.00  0.00    +0.000 N 
ATOM      7  C   UNL     1       4.498   5.602  17.141  0.00  0.00    +0.000 C 
ATOM      8  O   UNL     1       4.790   6.780  16.929  0.00  0.00    +0.000 OA
ATOM      9  C   UNL     1       3.033   3.858  18.242  0.00  0.00    +0.000 C 
ATOM     10  C   UNL     1       3.409   3.605  19.711  0.00  0.00    +0.000 C 
ENDROOT
BRANCH   7  11
ATOM     11  C   UNL     1       5.378   4.478  16.619  0.00  0.00    +0.000 C 
BRANCH  11  12
ATOM     12  C   UNL     1       6.623   5.021  15.919  0.00  0.00    +0.000 C 
BRANCH  12  13
ATOM     13  C   UNL     1       6.684   4.605  14.478  0.00  0.00    +0.000 A 
ATOM     14  C   UNL     1       7.606   5.139  13.517  0.00  0.00    +0.000 A 
ATOM     15  C   UNL     1       7.450   4.584  12.267  0.00  0.00    +0.000 A 
ATOM     16  S   UNL     1       6.193   3.427  12.232  0.00  0.00    +0.000 S 
ATOM     17  C   UNL     1       5.860   3.662  13.893  0.00  0.00    +0.000 A 
ENDBRANCH  12  13
ENDBRANCH  11  12
ENDBRANCH   7  11
TORSDOF 3
ENDMDL
MODEL 3
REMARK VINA RESULT:      -6.1      3.550      5.551
REMARK  Name = 
REMARK  4 active torsions:
REMARK  status: ('A' for Active; 'I' for Inactive)
REMARK    1  A    between atoms: C_1  and  N_2
REMARK    2  A    between atoms: C_7  and  C_9
REMARK    3  A    between atoms: C_9  and  C_10
REMARK    4  A    between atoms: C_10  and  C_11
REMARK                            x       y       z     vdW  Elec       q    Type
REMARK                         _______ _______ _______ _____ _____    ______ ____
ROOT
ATOM      1  C   UNL     1       1.753   2.585  21.372  0.00  0.00    +0.000 C 
ATOM      2  N   UNL     1       2.404   2.899  20.099  0.00  0.00    +0.000 NA
ATOM      3  C   UNL     1       3.864   2.948  20.268  0.00  0.00    +0.000 C 
ATOM      4  C   UNL     1       4.644   3.578  19.107  0.00  0.00    +0.000 C 
ATOM      5  C   UNL     1       4.772   5.097  19.251  0.00  0.00    +0.000 C 
ATOM      6  N   UNL     1       3.521   5.823  19.043  0.00  0.00    +0.000 N 
ATOM      7  C   UNL     1       3.431   6.705  17.969  0.00  0.00    +0.000 C 
ATOM      8  O   UNL     1       4.375   6.907  17.203  0.00  0.00    +0.000 OA
ATOM      9  C   UNL     1       2.385   5.442  19.894  0.00  0.00    +0.000 C 
ATOM     10  C   UNL     1       1.801   4.084  19.470  0.00  0.00    +0.000 C 
ENDROOT
BRANCH   7  11
ATOM     11  C   UNL     1       2.113   7.441  17.787  0.00  0.00    +0.000 C 
BRANCH  11  12
ATOM     12  C   UNL     1       2.278   8.944  18.005  0.00  0.00    +0.000 C 
BRANCH  12  13
ATOM     13  C   UNL     1       1.237   9.494  18.938  0.00  0.00    +0.000 A 
ATOM     14  C   UNL     1       1.035   9.045  20.285  0.00  0.00    +0.000 A 
ATOM     15  C   UNL     1       0.015   9.718  20.921  0.00  0.00    +0.000 A 
ATOM     16  S   UNL     1      -0.713  10.885  19.907  0.00  0.00    +0.000 S 
ATOM     17  C   UNL     1       0.340  10.496  18.616  0.00  0.00    +0.000 A 
ENDBRANCH  12  13
ENDBRANCH  11  12
ENDBRANCH   7  11
TORSDOF 3
ENDMDL
MODEL 4
REMARK VINA RESULT:      -6.1      0.735      1.116
REMARK  Name = 
REMARK  4 active torsions:
REMARK  status: ('A' for Active; 'I' for Inactive)
REMARK    1  A    between atoms: C_1  and  N_2
REMARK    2  A    between atoms: C_7  and  C_9
REMARK    3  A    between atoms: C_9  and  C_10
REMARK    4  A    between atoms: C_10  and  C_11
REMARK                            x       y       z     vdW  Elec       q    Type
REMARK                         _______ _______ _______ _____ _____    ______ ____
ROOT
ATOM      1  C   UNL     1       6.904   4.471  14.100  0.00  0.00    +0.000 C 
ATOM      2  N   UNL     1       6.564   5.443  15.140  0.00  0.00    +0.000 NA
ATOM      3  C   UNL     1       7.418   5.252  16.320  0.00  0.00    +0.000 C 
ATOM      4  C   UNL     1       6.962   5.977  17.593  0.00  0.00    +0.000 C 
ATOM      5  C   UNL     1       5.975   5.142  18.414  0.00  0.00    +0.000 C 
ATOM      6  N   UNL     1       4.656   5.005  17.801  0.00  0.00    +0.000 N 
ATOM      7  C   UNL     1       3.554   5.548  18.458  0.00  0.00    +0.000 C 
ATOM      8  O   UNL     1       3.653   6.120  19.545  0.00  0.00    +0.000 OA
ATOM      9  C   UNL     1       4.612   4.443  16.443  0.00  0.00    +0.000 C 
ATOM     10  C   UNL     1       5.116   5.457  15.403  0.00  0.00    +0.000 C 
ENDROOT
BRANCH   7  11
ATOM     11  C   UNL     1       2.199   5.384  17.788  0.00  0.00    +0.000 C 
BRANCH  11  12
ATOM     12  C   UNL     1       1.660   3.965  17.955  0.00  0.00    +0.000 C 
BRANCH  12  13
ATOM     13  C   UNL     1       1.844   3.455  19.356  0.00  0.00    +0.000 A 
ATOM     14  C   UNL     1       1.093   3.909  20.490  0.00  0.00    +0.000 A 
ATOM     15  C   UNL     1       1.460   3.276  21.657  0.00  0.00    +0.000 A 
ATOM     16  S   UNL     1       2.711   2.140  21.403  0.00  0.00    +0.000 S 
ATOM     17  C   UNL     1       2.761   2.489  19.730  0.00  0.00    +0.000 A 
ENDBRANCH  12  13
ENDBRANCH  11  12
ENDBRANCH   7  11
TORSDOF 3
ENDMDL
MODEL 5
REMARK VINA RESULT:      -6.1      4.439      6.382
REMARK  Name = 
REMARK  4 active torsions:
REMARK  status: ('A' for Active; 'I' for Inactive)
REMARK    1  A    between atoms: C_1  and  N_2
REMARK    2  A    between atoms: C_7  and  C_9
REMARK    3  A    between atoms: C_9  and  C_10
REMARK    4  A    between atoms: C_10  and  C_11
REMARK                            x       y       z     vdW  Elec       q    Type
REMARK                         _______ _______ _______ _____ _____    ______ ____
ROOT
ATOM      1  C   UNL     1       1.652   2.338  21.000  0.00  0.00    +0.000 C 
ATOM      2  N   UNL     1       1.213   3.265  19.956  0.00  0.00    +0.000 NA
ATOM      3  C   UNL     1       2.060   3.131  18.762  0.00  0.00    +0.000 C 
ATOM      4  C   UNL     1       1.923   4.253  17.724  0.00  0.00    +0.000 C 
ATOM      5  C   UNL     1       2.857   5.430  18.015  0.00  0.00    +0.000 C 
ATOM      6  N   UNL     1       2.476   6.219  19.185  0.00  0.00    +0.000 N 
ATOM      7  C   UNL     1       2.111   7.550  19.003  0.00  0.00    +0.000 C 
ATOM      8  O   UNL     1       2.118   8.088  17.894  0.00  0.00    +0.000 OA
ATOM      9  C   UNL     1       2.346   5.495  20.457  0.00  0.00    +0.000 C 
ATOM     10  C   UNL     1       1.074   4.632  20.482  0.00  0.00    +0.000 C 
ENDROOT
BRANCH   7  11
ATOM     11  C   UNL     1       1.721   8.337  20.243  0.00  0.00    +0.000 C 
BRANCH  11  12
ATOM     12  C   UNL     1       0.907   9.579  19.886  0.00  0.00    +0.000 C 
BRANCH  12  13
ATOM     13  C   UNL     1       0.165  10.127  21.071  0.00  0.00    +0.000 A 
ATOM     14  C   UNL     1      -0.093   9.394  22.276  0.00  0.00    +0.000 A 
ATOM     15  C   UNL     1      -0.792  10.131  23.206  0.00  0.00    +0.000 A 
ATOM     16  S   UNL     1      -1.152  11.702  22.638  0.00  0.00    +0.000 S 
ATOM     17  C   UNL     1      -0.368  11.400  21.149  0.00  0.00    +0.000 A 
ENDBRANCH  12  13
ENDBRANCH  11  12
ENDBRANCH   7  11
TORSDOF 3
ENDMDL
MODEL 6
REMARK VINA RESULT:      -6.0      4.561      7.040
REMARK  Name = 
REMARK  4 active torsions:
REMARK  status: ('A' for Active; 'I' for Inactive)
REMARK    1  A    between atoms: C_1  and  N_2
REMARK    2  A    between atoms: C_7  and  C_9
REMARK    3  A    between atoms: C_9  and  C_10
REMARK    4  A    between atoms: C_10  and  C_11
REMARK                            x       y       z     vdW  Elec       q    Type
REMARK                         _______ _______ _______ _____ _____    ______ ____
ROOT
ATOM      1  C   UNL     1       2.160   4.847  19.115  0.00  0.00    +0.000 C 
ATOM      2  N   UNL     1       2.914   5.063  17.878  0.00  0.00    +0.000 NA
ATOM      3  C   UNL     1       3.602   3.828  17.475  0.00  0.00    +0.000 C 
ATOM      4  C   UNL     1       4.676   3.992  16.391  0.00  0.00    +0.000 C 
ATOM      5  C   UNL     1       6.047   4.333  16.981  0.00  0.00    +0.000 C 
ATOM      6  N   UNL     1       6.141   5.682  17.534  0.00  0.00    +0.000 N 
ATOM      7  C   UNL     1       7.024   6.585  16.947  0.00  0.00    +0.000 C 
ATOM      8  O   UNL     1       7.741   6.277  15.993  0.00  0.00    +0.000 OA
ATOM      9  C   UNL     1       5.165   6.040  18.573  0.00  0.00    +0.000 C 
ATOM     10  C   UNL     1       3.766   6.258  17.975  0.00  0.00    +0.000 C 
ENDROOT
BRANCH   7  11
ATOM     11  C   UNL     1       7.092   7.978  17.550  0.00  0.00    +0.000 C 
BRANCH  11  12
ATOM     12  C   UNL     1       8.366   8.171  18.372  0.00  0.00    +0.000 C 
BRANCH  12  13
ATOM     13  C   UNL     1       8.714   9.622  18.538  0.00  0.00    +0.000 A 
ATOM     14  C   UNL     1       9.382  10.171  19.682  0.00  0.00    +0.000 A 
ATOM     15  C   UNL     1       9.580  11.530  19.580  0.00  0.00    +0.000 A 
ATOM     16  S   UNL     1       8.961  12.159  18.116  0.00  0.00    +0.000 S 
ATOM     17  C   UNL     1       8.431  10.612  17.615  0.00  0.00    +0.000 A 
ENDBRANCH  12  13
ENDBRANCH  11  12
ENDBRANCH   7  11
TORSDOF 3
ENDMDL
MODEL 7
REMARK VINA RESULT:      -6.0      1.004      1.214
REMARK  Name = 
REMARK  4 active torsions:
REMARK  status: ('A' for Active; 'I' for Inactive)
REMARK    1  A    between atoms: C_1  and  N_2
REMARK    2  A    between atoms: C_7  and  C_9
REMARK    3  A    between atoms: C_9  and  C_10
REMARK    4  A    between atoms: C_10  and  C_11
REMARK                            x       y       z     vdW  Elec       q    Type
REMARK                         _______ _______ _______ _____ _____    ______ ____
ROOT
ATOM      1  C   UNL     1       5.887   4.071  13.470  0.00  0.00    +0.000 C 
ATOM      2  N   UNL     1       6.304   4.858  14.632  0.00  0.00    +0.000 NA
ATOM      3  C   UNL     1       7.184   4.063  15.500  0.00  0.00    +0.000 C 
ATOM      4  C   UNL     1       7.432   4.641  16.899  0.00  0.00    +0.000 C 
ATOM      5  C   UNL     1       6.365   4.201  17.906  0.00  0.00    +0.000 C 
ATOM      6  N   UNL     1       5.054   4.808  17.689  0.00  0.00    +0.000 N 
ATOM      7  C   UNL     1       4.535   5.647  18.672  0.00  0.00    +0.000 C 
ATOM      8  O   UNL     1       5.136   5.877  19.723  0.00  0.00    +0.000 OA
ATOM      9  C   UNL     1       4.448   4.617  16.364  0.00  0.00    +0.000 C 
ATOM     10  C   UNL     1       5.148   5.476  15.300  0.00  0.00    +0.000 C 
ENDROOT
BRANCH   7  11
ATOM     11  C   UNL     1       3.169   6.259  18.410  0.00  0.00    +0.000 C 
BRANCH  11  12
ATOM     12  C   UNL     1       2.293   6.229  19.661  0.00  0.00    +0.000 C 
BRANCH  12  13
ATOM     13  C   UNL     1       1.923   4.828  20.056  0.00  0.00    +0.000 A 
ATOM     14  C   UNL     1       1.277   3.884  19.190  0.00  0.00    +0.000 A 
ATOM     15  C   UNL     1       1.052   2.671  19.802  0.00  0.00    +0.000 A 
ATOM     16  S   UNL     1       1.606   2.657  21.419  0.00  0.00    +0.000 S 
ATOM     17  C   UNL     1       2.153   4.273  21.301  0.00  0.00    +0.000 A 
ENDBRANCH  12  13
ENDBRANCH  11  12
ENDBRANCH   7  11
TORSDOF 3
ENDMDL
MODEL 8
REMARK VINA RESULT:      -6.0      2.838      5.187
REMARK  Name = 
REMARK  4 active torsions:
REMARK  status: ('A' for Active; 'I' for Inactive)
REMARK    1  A    between atoms: C_1  and  N_2
REMARK    2  A    between atoms: C_7  and  C_9
REMARK    3  A    between atoms: C_9  and  C_10
REMARK    4  A    between atoms: C_10  and  C_11
REMARK                            x       y       z     vdW  Elec       q    Type
REMARK                         _______ _______ _______ _____ _____    ______ ____
ROOT
ATOM      1  C   UNL     1       3.399   1.275  18.789  0.00  0.00    +0.000 C 
ATOM      2  N   UNL     1       3.592   2.502  19.564  0.00  0.00    +0.000 NA
ATOM      3  C   UNL     1       2.515   2.658  20.553  0.00  0.00    +0.000 C 
ATOM      4  C   UNL     1       2.411   4.044  21.204  0.00  0.00    +0.000 C 
ATOM      5  C   UNL     1       1.537   5.002  20.389  0.00  0.00    +0.000 C 
ATOM      6  N   UNL     1       2.141   5.439  19.133  0.00  0.00    +0.000 N 
ATOM      7  C   UNL     1       2.436   6.790  18.966  0.00  0.00    +0.000 C 
ATOM      8  O   UNL     1       2.186   7.628  19.834  0.00  0.00    +0.000 OA
ATOM      9  C   UNL     1       2.549   4.384  18.194  0.00  0.00    +0.000 C 
ATOM     10  C   UNL     1       3.813   3.659  18.683  0.00  0.00    +0.000 C 
ENDROOT
BRANCH   7  11
ATOM     11  C   UNL     1       3.064   7.203  17.645  0.00  0.00    +0.000 C 
BRANCH  11  12
ATOM     12  C   UNL     1       4.556   7.492  17.801  0.00  0.00    +0.000 C 
BRANCH  12  13
ATOM     13  C   UNL     1       5.402   6.464  17.106  0.00  0.00    +0.000 A 
ATOM     14  C   UNL     1       5.183   6.003  15.766  0.00  0.00    +0.000 A 
ATOM     15  C   UNL     1       6.105   5.059  15.372  0.00  0.00    +0.000 A 
ATOM     16  S   UNL     1       7.235   4.713  16.607  0.00  0.00    +0.000 S 
ATOM     17  C   UNL     1       6.495   5.830  17.669  0.00  0.00    +0.000 A 
ENDBRANCH  12  13
ENDBRANCH  11  12
ENDBRANCH   7  11
TORSDOF 3
ENDMDL
MODEL 9
REMARK VINA RESULT:      -6.0      2.989      5.307
REMARK  Name = 
REMARK  4 active torsions:
REMARK  status: ('A' for Active; 'I' for Inactive)
REMARK    1  A    between atoms: C_1  and  N_2
REMARK    2  A    between atoms: C_7  and  C_9
REMARK    3  A    between atoms: C_9  and  C_10
REMARK    4  A    between atoms: C_10  and  C_11
REMARK                            x       y       z     vdW  Elec       q    Type
REMARK                         _______ _______ _______ _____ _____    ______ ____
ROOT
ATOM      1  C   UNL     1       1.311   2.715  20.956  0.00  0.00    +0.000 C 
ATOM      2  N   UNL     1       1.570   3.032  19.550  0.00  0.00    +0.000 NA
ATOM      3  C   UNL     1       2.603   2.140  19.005  0.00  0.00    +0.000 C 
ATOM      4  C   UNL     1       3.199   2.563  17.656  0.00  0.00    +0.000 C 
ATOM      5  C   UNL     1       4.386   3.517  17.821  0.00  0.00    +0.000 C 
ATOM      6  N   UNL     1       4.018   4.853  18.284  0.00  0.00    +0.000 N 
ATOM      7  C   UNL     1       4.250   5.939  17.443  0.00  0.00    +0.000 C 
ATOM      8  O   UNL     1       4.773   5.812  16.335  0.00  0.00    +0.000 OA
ATOM      9  C   UNL     1       3.270   4.933  19.547  0.00  0.00    +0.000 C 
ATOM     10  C   UNL     1       1.815   4.470  19.365  0.00  0.00    +0.000 C 
ENDROOT
BRANCH   7  11
ATOM     11  C   UNL     1       3.854   7.312  17.961  0.00  0.00    +0.000 C 
BRANCH  11  12
ATOM     12  C   UNL     1       2.407   7.648  17.604  0.00  0.00    +0.000 C 
BRANCH  12  13
ATOM     13  C   UNL     1       1.747   8.488  18.660  0.00  0.00    +0.000 A 
ATOM     14  C   UNL     1       1.056   9.718  18.404  0.00  0.00    +0.000 A 
ATOM     15  C   UNL     1       0.543  10.287  19.549  0.00  0.00    +0.000 A 
ATOM     16  S   UNL     1       0.894   9.355  20.939  0.00  0.00    +0.000 S 
ATOM     17  C   UNL     1       1.728   8.187  20.010  0.00  0.00    +0.000 A 
ENDBRANCH  12  13
ENDBRANCH  11  12
ENDBRANCH   7  11
TORSDOF 3
ENDMDL
