MODEL 1
REMARK VINA RESULT:      -7.6      0.000      0.000
REMARK  Name = 
REMARK  1 active torsions:
REMARK  status: ('A' for Active; 'I' for Inactive)
REMARK    1  A    between atoms: N_2  and  C_4
REMARK                            x       y       z     vdW  Elec       q    Type
REMARK                         _______ _______ _______ _____ _____    ______ ____
ROOT
ATOM      1  C   UNL     1       6.280   4.987  16.048  0.00  0.00    +0.000 A 
ATOM      2  C   UNL     1       6.920   4.483  17.190  0.00  0.00    +0.000 A 
ATOM      3  C   UNL     1       6.274   4.551  18.428  0.00  0.00    +0.000 A 
ATOM      4  C   UNL     1       4.996   5.108  18.514  0.00  0.00    +0.000 A 
ATOM      5  C   UNL     1       4.367   5.646  17.387  0.00  0.00    +0.000 A 
ATOM      6  C   UNL     1       5.007   5.572  16.142  0.00  0.00    +0.000 A 
ATOM      7  C   UNL     1       3.023   6.285  17.552  0.00  0.00    +0.000 C 
ATOM      8  N   UNL     1       2.022   5.296  17.887  0.00  0.00    +0.000 N 
ATOM      9  C   UNL     1       2.142   4.492  19.021  0.00  0.00    +0.000 A 
ATOM     10  C   UNL     1       1.025   3.704  19.355  0.00  0.00    +0.000 A 
ATOM     11  C   UNL     1       0.959   2.989  20.553  0.00  0.00    +0.000 A 
ATOM     12  C   UNL     1       2.012   3.052  21.457  0.00  0.00    +0.000 A 
ATOM     13  C   UNL     1       3.141   3.809  21.145  0.00  0.00    +0.000 A 
ATOM     14  C   UNL     1       3.219   4.510  19.931  0.00  0.00    +0.000 A 
ATOM     15  O   UNL     1       4.409   5.195  19.757  0.00  0.00    +0.000 OA
ATOM     16  H   UNL     1       1.562   4.849  17.102  0.00  0.00    +0.000 HD
ENDROOT
BRANCH   1  18
ATOM     17  O   UNL     1       6.494   4.108  13.910  0.00  0.00    +0.000 OA
ATOM     18  N   UNL     1       6.947   4.908  14.742  0.00  0.00    +0.000 N 
ATOM     19  O   UNL     1       7.923   5.646  14.546  0.00  0.00    +0.000 OA
ENDBRANCH   1  18
TORSDOF 1
ENDMDL
MODEL 2
REMARK VINA RESULT:      -7.5      2.935      4.082
REMARK  Name = 
REMARK  1 active torsions:
REMARK  status: ('A' for Active; 'I' for Inactive)
REMARK    1  A    between atoms: N_2  and  C_4
REMARK                            x       y       z     vdW  Elec       q    Type
REMARK                         _______ _______ _______ _____ _____    ______ ____
ROOT
ATOM      1  C   UNL     1       6.375   5.476  18.193  0.00  0.00    +0.000 A 
ATOM      2  C   UNL     1       6.177   6.429  17.183  0.00  0.00    +0.000 A 
ATOM      3  C   UNL     1       4.908   6.984  16.998  0.00  0.00    +0.000 A 
ATOM      4  C   UNL     1       3.854   6.596  17.826  0.00  0.00    +0.000 A 
ATOM      5  C   UNL     1       4.033   5.619  18.811  0.00  0.00    +0.000 A 
ATOM      6  C   UNL     1       5.307   5.066  19.006  0.00  0.00    +0.000 A 
ATOM      7  C   UNL     1       2.851   5.198  19.628  0.00  0.00    +0.000 C 
ATOM      8  N   UNL     1       2.413   6.274  20.490  0.00  0.00    +0.000 N 
ATOM      9  C   UNL     1       2.027   7.512  19.973  0.00  0.00    +0.000 A 
ATOM     10  C   UNL     1       1.440   8.416  20.877  0.00  0.00    +0.000 A 
ATOM     11  C   UNL     1       0.862   9.614  20.451  0.00  0.00    +0.000 A 
ATOM     12  C   UNL     1       0.851   9.935  19.099  0.00  0.00    +0.000 A 
ATOM     13  C   UNL     1       1.444   9.069  18.182  0.00  0.00    +0.000 A 
ATOM     14  C   UNL     1       2.045   7.875  18.611  0.00  0.00    +0.000 A 
ATOM     15  O   UNL     1       2.608   7.133  17.587  0.00  0.00    +0.000 OA
ATOM     16  H   UNL     1       2.855   6.319  21.401  0.00  0.00    +0.000 HD
ENDROOT
BRANCH   1  18
ATOM     17  O   UNL     1       8.199   4.229  17.481  0.00  0.00    +0.000 OA
ATOM     18  N   UNL     1       7.708   4.898  18.402  0.00  0.00    +0.000 N 
ATOM     19  O   UNL     1       8.268   5.113  19.487  0.00  0.00    +0.000 OA
ENDBRANCH   1  18
TORSDOF 1
ENDMDL
MODEL 3
REMARK VINA RESULT:      -7.5      2.625      5.674
REMARK  Name = 
REMARK  1 active torsions:
REMARK  status: ('A' for Active; 'I' for Inactive)
REMARK    1  A    between atoms: N_2  and  C_4
REMARK                            x       y       z     vdW  Elec       q    Type
REMARK                         _______ _______ _______ _____ _____    ______ ____
ROOT
ATOM      1  C   UNL     1       2.308   3.112  19.027  0.00  0.00    +0.000 A 
ATOM      2  C   UNL     1       3.191   3.014  20.112  0.00  0.00    +0.000 A 
ATOM      3  C   UNL     1       4.541   3.326  19.932  0.00  0.00    +0.000 A 
ATOM      4  C   UNL     1       4.996   3.744  18.679  0.00  0.00    +0.000 A 
ATOM      5  C   UNL     1       4.129   3.808  17.583  0.00  0.00    +0.000 A 
ATOM      6  C   UNL     1       2.772   3.505  17.761  0.00  0.00    +0.000 A 
ATOM      7  C   UNL     1       4.686   4.204  16.251  0.00  0.00    +0.000 C 
ATOM      8  N   UNL     1       5.103   5.589  16.259  0.00  0.00    +0.000 N 
ATOM      9  C   UNL     1       6.057   6.058  17.162  0.00  0.00    +0.000 A 
ATOM     10  C   UNL     1       6.527   7.368  16.958  0.00  0.00    +0.000 A 
ATOM     11  C   UNL     1       7.598   7.890  17.687  0.00  0.00    +0.000 A 
ATOM     12  C   UNL     1       8.234   7.105  18.641  0.00  0.00    +0.000 A 
ATOM     13  C   UNL     1       7.778   5.810  18.881  0.00  0.00    +0.000 A 
ATOM     14  C   UNL     1       6.687   5.292  18.164  0.00  0.00    +0.000 A 
ATOM     15  O   UNL     1       6.340   4.003  18.530  0.00  0.00    +0.000 OA
ATOM     16  H   UNL     1       4.392   6.266  16.010  0.00  0.00    +0.000 HD
ENDROOT
BRANCH   1  18
ATOM     17  O   UNL     1       0.335   2.088  18.357  0.00  0.00    +0.000 OA
ATOM     18  N   UNL     1       0.885   2.798  19.211  0.00  0.00    +0.000 N 
ATOM     19  O   UNL     1       0.316   3.261  20.211  0.00  0.00    +0.000 OA
ENDBRANCH   1  18
TORSDOF 1
ENDMDL
MODEL 4
REMARK VINA RESULT:      -7.4      1.810      2.410
REMARK  Name = 
REMARK  1 active torsions:
REMARK  status: ('A' for Active; 'I' for Inactive)
REMARK    1  A    between atoms: N_2  and  C_4
REMARK                            x       y       z     vdW  Elec       q    Type
REMARK                         _______ _______ _______ _____ _____    ______ ____
ROOT
ATOM      1  C   UNL     1       5.946   5.752  16.567  0.00  0.00    +0.000 A 
ATOM      2  C   UNL     1       4.982   6.698  16.947  0.00  0.00    +0.000 A 
ATOM      3  C   UNL     1       3.757   6.265  17.460  0.00  0.00    +0.000 A 
ATOM      4  C   UNL     1       3.508   4.898  17.601  0.00  0.00    +0.000 A 
ATOM      5  C   UNL     1       4.448   3.948  17.190  0.00  0.00    +0.000 A 
ATOM      6  C   UNL     1       5.682   4.378  16.682  0.00  0.00    +0.000 A 
ATOM      7  C   UNL     1       4.100   2.496  17.309  0.00  0.00    +0.000 C 
ATOM      8  N   UNL     1       4.010   2.102  18.697  0.00  0.00    +0.000 N 
ATOM      9  C   UNL     1       3.121   2.722  19.576  0.00  0.00    +0.000 A 
ATOM     10  C   UNL     1       2.979   2.135  20.846  0.00  0.00    +0.000 A 
ATOM     11  C   UNL     1       2.002   2.560  21.750  0.00  0.00    +0.000 A 
ATOM     12  C   UNL     1       1.132   3.584  21.398  0.00  0.00    +0.000 A 
ATOM     13  C   UNL     1       1.262   4.199  20.154  0.00  0.00    +0.000 A 
ATOM     14  C   UNL     1       2.258   3.789  19.253  0.00  0.00    +0.000 A 
ATOM     15  O   UNL     1       2.273   4.509  18.071  0.00  0.00    +0.000 OA
ATOM     16  H   UNL     1       4.874   1.789  19.125  0.00  0.00    +0.000 HD
ENDROOT
BRANCH   1  18
ATOM     17  O   UNL     1       7.692   5.615  15.043  0.00  0.00    +0.000 OA
ATOM     18  N   UNL     1       7.241   6.199  16.039  0.00  0.00    +0.000 N 
ATOM     19  O   UNL     1       7.809   7.137  16.618  0.00  0.00    +0.000 OA
ENDBRANCH   1  18
TORSDOF 1
ENDMDL
MODEL 5
REMARK VINA RESULT:      -7.1      1.502      2.018
REMARK  Name = 
REMARK  1 active torsions:
REMARK  status: ('A' for Active; 'I' for Inactive)
REMARK    1  A    between atoms: N_2  and  C_4
REMARK                            x       y       z     vdW  Elec       q    Type
REMARK                         _______ _______ _______ _____ _____    ______ ____
ROOT
ATOM      1  C   UNL     1       5.740   5.037  15.665  0.00  0.00    +0.000 A 
ATOM      2  C   UNL     1       5.621   6.157  16.501  0.00  0.00    +0.000 A 
ATOM      3  C   UNL     1       4.573   6.219  17.424  0.00  0.00    +0.000 A 
ATOM      4  C   UNL     1       3.664   5.163  17.514  0.00  0.00    +0.000 A 
ATOM      5  C   UNL     1       3.754   4.060  16.658  0.00  0.00    +0.000 A 
ATOM      6  C   UNL     1       4.809   3.989  15.737  0.00  0.00    +0.000 A 
ATOM      7  C   UNL     1       2.715   2.987  16.759  0.00  0.00    +0.000 C 
ATOM      8  N   UNL     1       2.830   2.277  18.014  0.00  0.00    +0.000 N 
ATOM      9  C   UNL     1       2.733   2.940  19.239  0.00  0.00    +0.000 A 
ATOM     10  C   UNL     1       2.667   2.131  20.388  0.00  0.00    +0.000 A 
ATOM     11  C   UNL     1       2.401   2.666  21.651  0.00  0.00    +0.000 A 
ATOM     12  C   UNL     1       2.186   4.031  21.794  0.00  0.00    +0.000 A 
ATOM     13  C   UNL     1       2.266   4.860  20.676  0.00  0.00    +0.000 A 
ATOM     14  C   UNL     1       2.555   4.328  19.410  0.00  0.00    +0.000 A 
ATOM     15  O   UNL     1       2.621   5.278  18.406  0.00  0.00    +0.000 OA
ATOM     16  H   UNL     1       3.456   1.481  18.016  0.00  0.00    +0.000 HD
ENDROOT
BRANCH   1  18
ATOM     17  O   UNL     1       7.819   5.706  14.876  0.00  0.00    +0.000 OA
ATOM     18  N   UNL     1       6.846   4.958  14.701  0.00  0.00    +0.000 N 
ATOM     19  O   UNL     1       6.743   4.147  13.770  0.00  0.00    +0.000 OA
ENDBRANCH   1  18
TORSDOF 1
ENDMDL
MODEL 6
REMARK VINA RESULT:      -7.1      2.685      5.604
REMARK  Name = 
REMARK  1 active torsions:
REMARK  status: ('A' for Active; 'I' for Inactive)
REMARK    1  A    between atoms: N_2  and  C_4
REMARK                            x       y       z     vdW  Elec       q    Type
REMARK                         _______ _______ _______ _____ _____    ______ ____
ROOT
ATOM      1  C   UNL     1       2.762   3.445  18.265  0.00  0.00    +0.000 A 
ATOM      2  C   UNL     1       3.442   3.366  19.490  0.00  0.00    +0.000 A 
ATOM      3  C   UNL     1       4.793   3.718  19.551  0.00  0.00    +0.000 A 
ATOM      4  C   UNL     1       5.449   4.154  18.398  0.00  0.00    +0.000 A 
ATOM      5  C   UNL     1       4.789   4.199  17.166  0.00  0.00    +0.000 A 
ATOM      6  C   UNL     1       3.431   3.856  17.102  0.00  0.00    +0.000 A 
ATOM      7  C   UNL     1       5.561   4.617  15.953  0.00  0.00    +0.000 C 
ATOM      8  N   UNL     1       5.929   6.013  16.034  0.00  0.00    +0.000 N 
ATOM      9  C   UNL     1       6.695   6.505  17.092  0.00  0.00    +0.000 A 
ATOM     10  C   UNL     1       7.155   7.829  16.973  0.00  0.00    +0.000 A 
ATOM     11  C   UNL     1       8.065   8.377  17.881  0.00  0.00    +0.000 A 
ATOM     12  C   UNL     1       8.545   7.607  18.932  0.00  0.00    +0.000 A 
ATOM     13  C   UNL     1       8.091   6.298  19.088  0.00  0.00    +0.000 A 
ATOM     14  C   UNL     1       7.160   5.752  18.190  0.00  0.00    +0.000 A 
ATOM     15  O   UNL     1       6.791   4.452  18.489  0.00  0.00    +0.000 OA
ATOM     16  H   UNL     1       5.254   6.671  15.663  0.00  0.00    +0.000 HD
ENDROOT
BRANCH   1  18
ATOM     17  O   UNL     1       0.593   3.820  17.527  0.00  0.00    +0.000 OA
ATOM     18  N   UNL     1       1.338   3.089  18.195  0.00  0.00    +0.000 N 
ATOM     19  O   UNL     1       0.965   2.078  18.807  0.00  0.00    +0.000 OA
ENDBRANCH   1  18
TORSDOF 1
ENDMDL
MODEL 7
REMARK VINA RESULT:      -7.0      2.057      3.021
REMARK  Name = 
REMARK  1 active torsions:
REMARK  status: ('A' for Active; 'I' for Inactive)
REMARK    1  A    between atoms: N_2  and  C_4
REMARK                            x       y       z     vdW  Elec       q    Type
REMARK                         _______ _______ _______ _____ _____    ______ ____
ROOT
ATOM      1  C   UNL     1       7.122   4.823  14.115  0.00  0.00    +0.000 A 
ATOM      2  C   UNL     1       6.005   4.056  13.755  0.00  0.00    +0.000 A 
ATOM      3  C   UNL     1       5.174   3.538  14.753  0.00  0.00    +0.000 A 
ATOM      4  C   UNL     1       5.455   3.800  16.095  0.00  0.00    +0.000 A 
ATOM      5  C   UNL     1       6.589   4.533  16.464  0.00  0.00    +0.000 A 
ATOM      6  C   UNL     1       7.420   5.061  15.467  0.00  0.00    +0.000 A 
ATOM      7  C   UNL     1       6.872   4.729  17.921  0.00  0.00    +0.000 C 
ATOM      8  N   UNL     1       5.875   5.582  18.528  0.00  0.00    +0.000 N 
ATOM      9  C   UNL     1       4.519   5.252  18.503  0.00  0.00    +0.000 A 
ATOM     10  C   UNL     1       3.663   6.048  19.286  0.00  0.00    +0.000 A 
ATOM     11  C   UNL     1       2.319   5.718  19.476  0.00  0.00    +0.000 A 
ATOM     12  C   UNL     1       1.797   4.571  18.890  0.00  0.00    +0.000 A 
ATOM     13  C   UNL     1       2.617   3.774  18.093  0.00  0.00    +0.000 A 
ATOM     14  C   UNL     1       3.962   4.116  17.882  0.00  0.00    +0.000 A 
ATOM     15  O   UNL     1       4.638   3.239  17.051  0.00  0.00    +0.000 OA
ATOM     16  H   UNL     1       6.065   6.577  18.497  0.00  0.00    +0.000 HD
ENDROOT
BRANCH   1  18
ATOM     17  O   UNL     1       7.701   5.149  11.891  0.00  0.00    +0.000 OA
ATOM     18  N   UNL     1       7.993   5.381  13.073  0.00  0.00    +0.000 N 
ATOM     19  O   UNL     1       8.969   6.054  13.435  0.00  0.00    +0.000 OA
ENDBRANCH   1  18
TORSDOF 1
ENDMDL
MODEL 8
REMARK VINA RESULT:      -7.0      2.261      6.213
REMARK  Name = 
REMARK  1 active torsions:
REMARK  status: ('A' for Active; 'I' for Inactive)
REMARK    1  A    between atoms: N_2  and  C_4
REMARK                            x       y       z     vdW  Elec       q    Type
REMARK                         _______ _______ _______ _____ _____    ______ ____
ROOT
ATOM      1  C   UNL     1       2.461   3.957  20.205  0.00  0.00    +0.000 A 
ATOM      2  C   UNL     1       1.720   4.529  19.161  0.00  0.00    +0.000 A 
ATOM      3  C   UNL     1       2.377   5.272  18.177  0.00  0.00    +0.000 A 
ATOM      4  C   UNL     1       3.764   5.427  18.234  0.00  0.00    +0.000 A 
ATOM      5  C   UNL     1       4.506   4.891  19.292  0.00  0.00    +0.000 A 
ATOM      6  C   UNL     1       3.852   4.138  20.277  0.00  0.00    +0.000 A 
ATOM      7  C   UNL     1       5.981   5.142  19.333  0.00  0.00    +0.000 C 
ATOM      8  N   UNL     1       6.649   4.454  18.251  0.00  0.00    +0.000 N 
ATOM      9  C   UNL     1       6.315   4.694  16.917  0.00  0.00    +0.000 A 
ATOM     10  C   UNL     1       7.154   4.118  15.945  0.00  0.00    +0.000 A 
ATOM     11  C   UNL     1       7.025   4.421  14.587  0.00  0.00    +0.000 A 
ATOM     12  C   UNL     1       6.053   5.320  14.167  0.00  0.00    +0.000 A 
ATOM     13  C   UNL     1       5.194   5.891  15.105  0.00  0.00    +0.000 A 
ATOM     14  C   UNL     1       5.307   5.571  16.468  0.00  0.00    +0.000 A 
ATOM     15  O   UNL     1       4.371   6.200  17.270  0.00  0.00    +0.000 OA
ATOM     16  H   UNL     1       6.943   3.504  18.445  0.00  0.00    +0.000 HD
ENDROOT
BRANCH   1  18
ATOM     17  O   UNL     1       2.402   2.916  22.280  0.00  0.00    +0.000 OA
ATOM     18  N   UNL     1       1.780   3.164  21.237  0.00  0.00    +0.000 N 
ATOM     19  O   UNL     1       0.620   2.790  21.006  0.00  0.00    +0.000 OA
ENDBRANCH   1  18
TORSDOF 1
ENDMDL
MODEL 9
REMARK VINA RESULT:      -7.0      3.757      5.521
REMARK  Name = 
REMARK  1 active torsions:
REMARK  status: ('A' for Active; 'I' for Inactive)
REMARK    1  A    between atoms: N_2  and  C_4
REMARK                            x       y       z     vdW  Elec       q    Type
REMARK                         _______ _______ _______ _____ _____    ______ ____
ROOT
ATOM      1  C   UNL     1       2.111   4.295  18.774  0.00  0.00    +0.000 A 
ATOM      2  C   UNL     1       1.684   4.405  20.106  0.00  0.00    +0.000 A 
ATOM      3  C   UNL     1       1.641   5.663  20.714  0.00  0.00    +0.000 A 
ATOM      4  C   UNL     1       2.011   6.797  19.988  0.00  0.00    +0.000 A 
ATOM      5  C   UNL     1       2.474   6.692  18.672  0.00  0.00    +0.000 A 
ATOM      6  C   UNL     1       2.510   5.433  18.056  0.00  0.00    +0.000 A 
ATOM      7  C   UNL     1       2.914   7.936  17.965  0.00  0.00    +0.000 C 
ATOM      8  N   UNL     1       1.790   8.809  17.714  0.00  0.00    +0.000 N 
ATOM      9  C   UNL     1       0.993   9.291  18.753  0.00  0.00    +0.000 A 
ATOM     10  C   UNL     1       0.051  10.280  18.417  0.00  0.00    +0.000 A 
ATOM     11  C   UNL     1      -0.684  10.959  19.392  0.00  0.00    +0.000 A 
ATOM     12  C   UNL     1      -0.488  10.668  20.736  0.00  0.00    +0.000 A 
ATOM     13  C   UNL     1       0.424   9.678  21.099  0.00  0.00    +0.000 A 
ATOM     14  C   UNL     1       1.148   8.979  20.119  0.00  0.00    +0.000 A 
ATOM     15  O   UNL     1       1.996   8.014  20.634  0.00  0.00    +0.000 OA
ATOM     16  H   UNL     1       1.295   8.654  16.843  0.00  0.00    +0.000 HD
ENDROOT
BRANCH   1  18
ATOM     17  O   UNL     1       1.986   1.978  18.837  0.00  0.00    +0.000 OA
ATOM     18  N   UNL     1       2.146   2.979  18.124  0.00  0.00    +0.000 N 
ATOM     19  O   UNL     1       2.332   2.945  16.899  0.00  0.00    +0.000 OA
ENDBRANCH   1  18
TORSDOF 1
ENDMDL
