MODEL 1
REMARK VINA RESULT:      -7.4      0.000      0.000
REMARK  Name = 
REMARK  8 active torsions:
REMARK  status: ('A' for Active; 'I' for Inactive)
REMARK    1  A    between atoms: C_1  and  O_2
REMARK    2  A    between atoms: O_2  and  C_3
REMARK    3  A    between atoms: C_5  and  C_6
REMARK    4  A    between atoms: C_8  and  C_9
REMARK    5  A    between atoms: C_19  and  O_20
REMARK    6  A    between atoms: O_20  and  C_21
REMARK    7  A    between atoms: C_22  and  O_23
REMARK    8  A    between atoms: O_23  and  C_24
REMARK                            x       y       z     vdW  Elec       q    Type
REMARK                         _______ _______ _______ _____ _____    ______ ____
ROOT
ATOM      1  C   UNL     1       0.832  10.449  18.941  0.00  0.00    +0.000 C 
ATOM      2  C   UNL     1       1.159   9.135  19.635  0.00  0.00    +0.000 C 
ATOM      3  C   UNL     1       2.001   8.465  18.583  0.00  0.00    +0.000 C 
ATOM      4  N   UNL     1       2.197   9.160  17.506  0.00  0.00    +0.000 NA
ATOM      5  N   UNL     1       1.628  10.373  17.713  0.00  0.00    +0.000 N 
ATOM      6  H   UNL     1       1.141  10.731  16.890  0.00  0.00    +0.000 HD
ENDROOT
BRANCH   3   7
ATOM      7  C   UNL     1       2.562   7.107  18.788  0.00  0.00    +0.000 A 
ATOM      8  C   UNL     1       3.418   6.527  17.842  0.00  0.00    +0.000 A 
ATOM      9  C   UNL     1       3.912   5.237  18.047  0.00  0.00    +0.000 A 
ATOM     10  C   UNL     1       3.551   4.535  19.190  0.00  0.00    +0.000 A 
ATOM     11  F   UNL     1       4.029   3.298  19.381  0.00  0.00    +0.000 F 
ATOM     12  C   UNL     1       2.702   5.095  20.137  0.00  0.00    +0.000 A 
ATOM     13  C   UNL     1       2.205   6.386  19.936  0.00  0.00    +0.000 A 
ENDBRANCH   3   7
BRANCH   1  16
ATOM     14  C   UNL     1      -2.668  11.955  19.188  0.00  0.00    +0.000 A 
ATOM     15  C   UNL     1      -1.345  11.579  19.484  0.00  0.00    +0.000 A 
ATOM     16  C   UNL     1      -0.635  10.690  18.674  0.00  0.00    +0.000 A 
ATOM     17  C   UNL     1      -1.313  10.103  17.602  0.00  0.00    +0.000 A 
ATOM     18  C   UNL     1      -2.659  10.405  17.325  0.00  0.00    +0.000 A 
ATOM     19  C   UNL     1      -3.355  11.347  18.116  0.00  0.00    +0.000 A 
BRANCH  14  21
ATOM     20  C   UNL     1      -3.209  12.697  21.374  0.00  0.00    +0.000 C 
ATOM     21  O   UNL     1      -3.301  12.896  19.962  0.00  0.00    +0.000 OA
ENDBRANCH  14  21
BRANCH  18  22
ATOM     22  O   UNL     1      -3.106   9.701  16.232  0.00  0.00    +0.000 OA
ATOM     23  C   UNL     1      -3.017  10.278  14.939  0.00  0.00    +0.000 C 
ENDBRANCH  18  22
BRANCH  19  24
ATOM     24  O   UNL     1      -4.654  11.585  17.757  0.00  0.00    +0.000 OA
ATOM     25  C   UNL     1      -5.723  10.870  18.347  0.00  0.00    +0.000 C 
ENDBRANCH  19  24
ENDBRANCH   1  16
TORSDOF 5
ENDMDL
MODEL 2
REMARK VINA RESULT:      -7.3      0.490      2.841
REMARK  Name = 
REMARK  8 active torsions:
REMARK  status: ('A' for Active; 'I' for Inactive)
REMARK    1  A    between atoms: C_1  and  O_2
REMARK    2  A    between atoms: O_2  and  C_3
REMARK    3  A    between atoms: C_5  and  C_6
REMARK    4  A    between atoms: C_8  and  C_9
REMARK    5  A    between atoms: C_19  and  O_20
REMARK    6  A    between atoms: O_20  and  C_21
REMARK    7  A    between atoms: C_22  and  O_23
REMARK    8  A    between atoms: O_23  and  C_24
REMARK                            x       y       z     vdW  Elec       q    Type
REMARK                         _______ _______ _______ _____ _____    ______ ____
ROOT
ATOM      1  C   UNL     1       0.739  10.549  18.906  0.00  0.00    +0.000 C 
ATOM      2  C   UNL     1       1.057   9.234  19.603  0.00  0.00    +0.000 C 
ATOM      3  C   UNL     1       1.954   8.587  18.583  0.00  0.00    +0.000 C 
ATOM      4  N   UNL     1       2.186   9.296  17.521  0.00  0.00    +0.000 NA
ATOM      5  N   UNL     1       1.588  10.498  17.713  0.00  0.00    +0.000 N 
ATOM      6  H   UNL     1       1.132  10.855  16.873  0.00  0.00    +0.000 HD
ENDROOT
BRANCH   3   7
ATOM      7  C   UNL     1       2.528   7.236  18.800  0.00  0.00    +0.000 A 
ATOM      8  C   UNL     1       2.170   6.468  19.915  0.00  0.00    +0.000 A 
ATOM      9  C   UNL     1       2.745   5.210  20.109  0.00  0.00    +0.000 A 
ATOM     10  C   UNL     1       3.670   4.727  19.192  0.00  0.00    +0.000 A 
ATOM     11  F   UNL     1       4.217   3.519  19.384  0.00  0.00    +0.000 F 
ATOM     12  C   UNL     1       4.037   5.478  18.082  0.00  0.00    +0.000 A 
ATOM     13  C   UNL     1       3.465   6.737  17.884  0.00  0.00    +0.000 A 
ENDBRANCH   3   7
BRANCH   1  16
ATOM     14  C   UNL     1      -2.652  10.199  17.186  0.00  0.00    +0.000 A 
ATOM     15  C   UNL     1      -1.271  10.152  17.452  0.00  0.00    +0.000 A 
ATOM     16  C   UNL     1      -0.719  10.770  18.577  0.00  0.00    +0.000 A 
ATOM     17  C   UNL     1      -1.570  11.524  19.389  0.00  0.00    +0.000 A 
ATOM     18  C   UNL     1      -2.942  11.647  19.107  0.00  0.00    +0.000 A 
ATOM     19  C   UNL     1      -3.505  10.975  17.998  0.00  0.00    +0.000 A 
BRANCH  14  21
ATOM     20  C   UNL     1      -3.037  10.152  14.847  0.00  0.00    +0.000 C 
ATOM     21  O   UNL     1      -3.165   9.508  16.115  0.00  0.00    +0.000 OA
ENDBRANCH  14  21
BRANCH  18  22
ATOM     22  O   UNL     1      -3.567  12.441  20.039  0.00  0.00    +0.000 OA
ATOM     23  C   UNL     1      -2.789  13.174  20.972  0.00  0.00    +0.000 C 
ENDBRANCH  18  22
BRANCH  19  24
ATOM     24  O   UNL     1      -4.850  11.145  17.816  0.00  0.00    +0.000 OA
ATOM     25  C   UNL     1      -5.357  12.175  16.989  0.00  0.00    +0.000 C 
ENDBRANCH  19  24
ENDBRANCH   1  16
TORSDOF 5
ENDMDL
MODEL 3
REMARK VINA RESULT:      -7.2      4.481      8.223
REMARK  Name = 
REMARK  8 active torsions:
REMARK  status: ('A' for Active; 'I' for Inactive)
REMARK    1  A    between atoms: C_1  and  O_2
REMARK    2  A    between atoms: O_2  and  C_3
REMARK    3  A    between atoms: C_5  and  C_6
REMARK    4  A    between atoms: C_8  and  C_9
REMARK    5  A    between atoms: C_19  and  O_20
REMARK    6  A    between atoms: O_20  and  C_21
REMARK    7  A    between atoms: C_22  and  O_23
REMARK    8  A    between atoms: O_23  and  C_24
REMARK                            x       y       z     vdW  Elec       q    Type
REMARK                         _______ _______ _______ _____ _____    ______ ____
ROOT
ATOM      1  C   UNL     1       1.854   9.227  19.046  0.00  0.00    +0.000 C 
ATOM      2  C   UNL     1       0.883   9.685  17.967  0.00  0.00    +0.000 C 
ATOM      3  C   UNL     1      -0.351   9.938  18.790  0.00  0.00    +0.000 C 
ATOM      4  N   UNL     1      -0.218   9.730  20.064  0.00  0.00    +0.000 NA
ATOM      5  N   UNL     1       1.085   9.421  20.278  0.00  0.00    +0.000 N 
ATOM      6  H   UNL     1       1.210   8.671  20.958  0.00  0.00    +0.000 HD
ENDROOT
BRANCH   3   7
ATOM      7  C   UNL     1      -1.617  10.399  18.170  0.00  0.00    +0.000 A 
ATOM      8  C   UNL     1      -2.441  11.334  18.812  0.00  0.00    +0.000 A 
ATOM      9  C   UNL     1      -3.640  11.730  18.217  0.00  0.00    +0.000 A 
ATOM     10  C   UNL     1      -4.010  11.196  16.989  0.00  0.00    +0.000 A 
ATOM     11  F   UNL     1      -5.162  11.582  16.424  0.00  0.00    +0.000 F 
ATOM     12  C   UNL     1      -3.205  10.267  16.340  0.00  0.00    +0.000 A 
ATOM     13  C   UNL     1      -2.004   9.866  16.932  0.00  0.00    +0.000 A 
ENDBRANCH   3   7
BRANCH   1  16
ATOM     14  C   UNL     1       3.781   6.229  17.675  0.00  0.00    +0.000 A 
ATOM     15  C   UNL     1       3.154   7.483  17.788  0.00  0.00    +0.000 A 
ATOM     16  C   UNL     1       2.366   7.813  18.893  0.00  0.00    +0.000 A 
ATOM     17  C   UNL     1       2.137   6.820  19.849  0.00  0.00    +0.000 A 
ATOM     18  C   UNL     1       2.693   5.534  19.726  0.00  0.00    +0.000 A 
ATOM     19  C   UNL     1       3.534   5.224  18.633  0.00  0.00    +0.000 A 
BRANCH  14  21
ATOM     20  C   UNL     1       5.969   6.404  16.777  0.00  0.00    +0.000 C 
ATOM     21  O   UNL     1       4.616   5.976  16.614  0.00  0.00    +0.000 OA
ENDBRANCH  14  21
BRANCH  18  22
ATOM     22  O   UNL     1       2.320   4.734  20.780  0.00  0.00    +0.000 OA
ATOM     23  C   UNL     1       1.185   3.892  20.656  0.00  0.00    +0.000 C 
ENDBRANCH  18  22
BRANCH  19  24
ATOM     24  O   UNL     1       4.038   3.952  18.610  0.00  0.00    +0.000 OA
ATOM     25  C   UNL     1       3.442   2.938  17.824  0.00  0.00    +0.000 C 
ENDBRANCH  19  24
ENDBRANCH   1  16
TORSDOF 5
ENDMDL
MODEL 4
REMARK VINA RESULT:      -7.2      0.637      1.178
REMARK  Name = 
REMARK  8 active torsions:
REMARK  status: ('A' for Active; 'I' for Inactive)
REMARK    1  A    between atoms: C_1  and  O_2
REMARK    2  A    between atoms: O_2  and  C_3
REMARK    3  A    between atoms: C_5  and  C_6
REMARK    4  A    between atoms: C_8  and  C_9
REMARK    5  A    between atoms: C_19  and  O_20
REMARK    6  A    between atoms: O_20  and  C_21
REMARK    7  A    between atoms: C_22  and  O_23
REMARK    8  A    between atoms: O_23  and  C_24
REMARK                            x       y       z     vdW  Elec       q    Type
REMARK                         _______ _______ _______ _____ _____    ______ ____
ROOT
ATOM      1  C   UNL     1       0.840  10.460  19.094  0.00  0.00    +0.000 C 
ATOM      2  C   UNL     1       1.204   9.019  19.424  0.00  0.00    +0.000 C 
ATOM      3  C   UNL     1       2.136   8.700  18.287  0.00  0.00    +0.000 C 
ATOM      4  N   UNL     1       2.348   9.673  17.455  0.00  0.00    +0.000 NA
ATOM      5  N   UNL     1       1.701  10.758  17.947  0.00  0.00    +0.000 N 
ATOM      6  H   UNL     1       1.238  11.308  17.222  0.00  0.00    +0.000 HD
ENDROOT
BRANCH   3   7
ATOM      7  C   UNL     1       2.762   7.362  18.150  0.00  0.00    +0.000 A 
ATOM      8  C   UNL     1       2.255   6.251  18.838  0.00  0.00    +0.000 A 
ATOM      9  C   UNL     1       2.880   5.009  18.712  0.00  0.00    +0.000 A 
ATOM     10  C   UNL     1       4.002   4.880  17.902  0.00  0.00    +0.000 A 
ATOM     11  F   UNL     1       4.595   3.685  17.785  0.00  0.00    +0.000 F 
ATOM     12  C   UNL     1       4.518   5.973  17.215  0.00  0.00    +0.000 A 
ATOM     13  C   UNL     1       3.897   7.218  17.339  0.00  0.00    +0.000 A 
ENDBRANCH   3   7
BRANCH   1  16
ATOM     14  C   UNL     1      -2.660  11.975  19.295  0.00  0.00    +0.000 A 
ATOM     15  C   UNL     1      -1.343  11.594  19.610  0.00  0.00    +0.000 A 
ATOM     16  C   UNL     1      -0.623  10.706  18.806  0.00  0.00    +0.000 A 
ATOM     17  C   UNL     1      -1.287  10.125  17.723  0.00  0.00    +0.000 A 
ATOM     18  C   UNL     1      -2.627  10.432  17.427  0.00  0.00    +0.000 A 
ATOM     19  C   UNL     1      -3.332  11.373  18.211  0.00  0.00    +0.000 A 
BRANCH  14  21
ATOM     20  C   UNL     1      -3.204  12.727  21.477  0.00  0.00    +0.000 C 
ATOM     21  O   UNL     1      -3.301  12.915  20.064  0.00  0.00    +0.000 OA
ENDBRANCH  14  21
BRANCH  18  22
ATOM     22  O   UNL     1      -3.061   9.733  16.325  0.00  0.00    +0.000 OA
ATOM     23  C   UNL     1      -2.933  10.307  15.034  0.00  0.00    +0.000 C 
ENDBRANCH  18  22
BRANCH  19  24
ATOM     24  O   UNL     1      -4.625  11.616  17.835  0.00  0.00    +0.000 OA
ATOM     25  C   UNL     1      -5.704  10.897  18.401  0.00  0.00    +0.000 C 
ENDBRANCH  19  24
ENDBRANCH   1  16
TORSDOF 5
ENDMDL
MODEL 5
REMARK VINA RESULT:      -7.2      0.246      2.621
REMARK  Name = 
REMARK  8 active torsions:
REMARK  status: ('A' for Active; 'I' for Inactive)
REMARK    1  A    between atoms: C_1  and  O_2
REMARK    2  A    between atoms: O_2  and  C_3
REMARK    3  A    between atoms: C_5  and  C_6
REMARK    4  A    between atoms: C_8  and  C_9
REMARK    5  A    between atoms: C_19  and  O_20
REMARK    6  A    between atoms: O_20  and  C_21
REMARK    7  A    between atoms: C_22  and  O_23
REMARK    8  A    between atoms: O_23  and  C_24
REMARK                            x       y       z     vdW  Elec       q    Type
REMARK                         _______ _______ _______ _____ _____    ______ ____
ROOT
ATOM      1  C   UNL     1       0.954  10.531  18.964  0.00  0.00    +0.000 C 
ATOM      2  C   UNL     1       1.161   9.204  19.681  0.00  0.00    +0.000 C 
ATOM      3  C   UNL     1       1.980   8.460  18.661  0.00  0.00    +0.000 C 
ATOM      4  N   UNL     1       2.259   9.127  17.583  0.00  0.00    +0.000 NA
ATOM      5  N   UNL     1       1.777  10.381  17.761  0.00  0.00    +0.000 N 
ATOM      6  H   UNL     1       1.342  10.764  16.921  0.00  0.00    +0.000 HD
ENDROOT
BRANCH   3   7
ATOM      7  C   UNL     1       2.432   7.067  18.896  0.00  0.00    +0.000 A 
ATOM      8  C   UNL     1       3.186   6.378  17.935  0.00  0.00    +0.000 A 
ATOM      9  C   UNL     1       3.576   5.059  18.170  0.00  0.00    +0.000 A 
ATOM     10  C   UNL     1       3.215   4.434  19.358  0.00  0.00    +0.000 A 
ATOM     11  F   UNL     1       3.593   3.168  19.577  0.00  0.00    +0.000 F 
ATOM     12  C   UNL     1       2.466   5.103  20.320  0.00  0.00    +0.000 A 
ATOM     13  C   UNL     1       2.073   6.424  20.088  0.00  0.00    +0.000 A 
ENDBRANCH   3   7
BRANCH   1  16
ATOM     14  C   UNL     1      -2.516  10.385  17.378  0.00  0.00    +0.000 A 
ATOM     15  C   UNL     1      -1.140  10.213  17.612  0.00  0.00    +0.000 A 
ATOM     16  C   UNL     1      -0.483  10.877  18.651  0.00  0.00    +0.000 A 
ATOM     17  C   UNL     1      -1.217  11.801  19.399  0.00  0.00    +0.000 A 
ATOM     18  C   UNL     1      -2.577  12.047  19.140  0.00  0.00    +0.000 A 
ATOM     19  C   UNL     1      -3.250  11.331  18.124  0.00  0.00    +0.000 A 
BRANCH  14  21
ATOM     20  C   UNL     1      -3.014  10.156  15.071  0.00  0.00    +0.000 C 
ATOM     21  O   UNL     1      -3.140   9.649  16.400  0.00  0.00    +0.000 OA
ENDBRANCH  14  21
BRANCH  18  22
ATOM     22  O   UNL     1      -3.078  12.998  19.998  0.00  0.00    +0.000 OA
ATOM     23  C   UNL     1      -3.543  12.611  21.281  0.00  0.00    +0.000 C 
ENDBRANCH  18  22
BRANCH  19  24
ATOM     24  O   UNL     1      -4.575  11.630  17.959  0.00  0.00    +0.000 OA
ATOM     25  C   UNL     1      -5.588  10.805  18.501  0.00  0.00    +0.000 C 
ENDBRANCH  19  24
ENDBRANCH   1  16
TORSDOF 5
ENDMDL
MODEL 6
REMARK VINA RESULT:      -7.0      4.408      7.962
REMARK  Name = 
REMARK  8 active torsions:
REMARK  status: ('A' for Active; 'I' for Inactive)
REMARK    1  A    between atoms: C_1  and  O_2
REMARK    2  A    between atoms: O_2  and  C_3
REMARK    3  A    between atoms: C_5  and  C_6
REMARK    4  A    between atoms: C_8  and  C_9
REMARK    5  A    between atoms: C_19  and  O_20
REMARK    6  A    between atoms: O_20  and  C_21
REMARK    7  A    between atoms: C_22  and  O_23
REMARK    8  A    between atoms: O_23  and  C_24
REMARK                            x       y       z     vdW  Elec       q    Type
REMARK                         _______ _______ _______ _____ _____    ______ ____
ROOT
ATOM      1  C   UNL     1       1.840   9.375  18.940  0.00  0.00    +0.000 C 
ATOM      2  C   UNL     1       0.813   9.716  17.869  0.00  0.00    +0.000 C 
ATOM      3  C   UNL     1      -0.390  10.015  18.722  0.00  0.00    +0.000 C 
ATOM      4  N   UNL     1      -0.198   9.924  20.002  0.00  0.00    +0.000 NA
ATOM      5  N   UNL     1       1.120   9.662  20.183  0.00  0.00    +0.000 N 
ATOM      6  H   UNL     1       1.293   8.978  20.920  0.00  0.00    +0.000 HD
ENDROOT
BRANCH   3   7
ATOM      7  C   UNL     1      -1.692  10.393  18.120  0.00  0.00    +0.000 A 
ATOM      8  C   UNL     1      -2.089   9.887  16.875  0.00  0.00    +0.000 A 
ATOM      9  C   UNL     1      -3.309  10.279  16.320  0.00  0.00    +0.000 A 
ATOM     10  C   UNL     1      -4.124  11.170  17.007  0.00  0.00    +0.000 A 
ATOM     11  F   UNL     1      -5.293  11.541  16.469  0.00  0.00    +0.000 F 
ATOM     12  C   UNL     1      -3.744  11.682  18.242  0.00  0.00    +0.000 A 
ATOM     13  C   UNL     1      -2.524  11.293  18.801  0.00  0.00    +0.000 A 
ENDBRANCH   3   7
BRANCH   1  16
ATOM     14  C   UNL     1       2.360   5.690  19.795  0.00  0.00    +0.000 A 
ATOM     15  C   UNL     1       2.011   7.050  19.878  0.00  0.00    +0.000 A 
ATOM     16  C   UNL     1       2.380   7.964  18.889  0.00  0.00    +0.000 A 
ATOM     17  C   UNL     1       3.196   7.506  17.851  0.00  0.00    +0.000 A 
ATOM     18  C   UNL     1       3.620   6.167  17.781  0.00  0.00    +0.000 A 
ATOM     19  C   UNL     1       3.198   5.235  18.756  0.00  0.00    +0.000 A 
BRANCH  14  21
ATOM     20  C   UNL     1       0.860   3.931  20.324  0.00  0.00    +0.000 C 
ATOM     21  O   UNL     1       1.906   4.809  20.746  0.00  0.00    +0.000 OA
ENDBRANCH  14  21
BRANCH  18  22
ATOM     22  O   UNL     1       4.417   5.960  16.680  0.00  0.00    +0.000 OA
ATOM     23  C   UNL     1       5.800   6.266  16.745  0.00  0.00    +0.000 C 
ENDBRANCH  18  22
BRANCH  19  24
ATOM     24  O   UNL     1       3.651   3.954  18.593  0.00  0.00    +0.000 OA
ATOM     25  C   UNL     1       4.811   3.493  19.259  0.00  0.00    +0.000 C 
ENDBRANCH  19  24
ENDBRANCH   1  16
TORSDOF 5
ENDMDL
MODEL 7
REMARK VINA RESULT:      -7.0      0.765      1.274
REMARK  Name = 
REMARK  8 active torsions:
REMARK  status: ('A' for Active; 'I' for Inactive)
REMARK    1  A    between atoms: C_1  and  O_2
REMARK    2  A    between atoms: O_2  and  C_3
REMARK    3  A    between atoms: C_5  and  C_6
REMARK    4  A    between atoms: C_8  and  C_9
REMARK    5  A    between atoms: C_19  and  O_20
REMARK    6  A    between atoms: O_20  and  C_21
REMARK    7  A    between atoms: C_22  and  O_23
REMARK    8  A    between atoms: O_23  and  C_24
REMARK                            x       y       z     vdW  Elec       q    Type
REMARK                         _______ _______ _______ _____ _____    ______ ____
ROOT
ATOM      1  C   UNL     1       1.064  10.027  19.074  0.00  0.00    +0.000 C 
ATOM      2  C   UNL     1       1.247   8.805  19.963  0.00  0.00    +0.000 C 
ATOM      3  C   UNL     1       1.979   7.884  19.024  0.00  0.00    +0.000 C 
ATOM      4  N   UNL     1       2.232   8.377  17.850  0.00  0.00    +0.000 NA
ATOM      5  N   UNL     1       1.816   9.667  17.869  0.00  0.00    +0.000 N 
ATOM      6  H   UNL     1       1.356   9.951  17.003  0.00  0.00    +0.000 HD
ENDROOT
BRANCH   3   7
ATOM      7  C   UNL     1       2.379   6.516  19.434  0.00  0.00    +0.000 A 
ATOM      8  C   UNL     1       1.749   5.867  20.505  0.00  0.00    +0.000 A 
ATOM      9  C   UNL     1       2.162   4.589  20.887  0.00  0.00    +0.000 A 
ATOM     10  C   UNL     1       3.198   3.967  20.201  0.00  0.00    +0.000 A 
ATOM     11  F   UNL     1       3.589   2.740  20.572  0.00  0.00    +0.000 F 
ATOM     12  C   UNL     1       3.834   4.597  19.138  0.00  0.00    +0.000 A 
ATOM     13  C   UNL     1       3.424   5.877  18.753  0.00  0.00    +0.000 A 
ENDBRANCH   3   7
BRANCH   1  16
ATOM     14  C   UNL     1      -2.308  11.803  19.299  0.00  0.00    +0.000 A 
ATOM     15  C   UNL     1      -1.031  11.306  19.612  0.00  0.00    +0.000 A 
ATOM     16  C   UNL     1      -0.370  10.400  18.779  0.00  0.00    +0.000 A 
ATOM     17  C   UNL     1      -1.060   9.922  17.662  0.00  0.00    +0.000 A 
ATOM     18  C   UNL     1      -2.367  10.347  17.363  0.00  0.00    +0.000 A 
ATOM     19  C   UNL     1      -3.008  11.305  18.180  0.00  0.00    +0.000 A 
BRANCH  14  21
ATOM     20  C   UNL     1      -2.039  13.843  20.477  0.00  0.00    +0.000 C 
ATOM     21  O   UNL     1      -2.886  12.757  20.101  0.00  0.00    +0.000 OA
ENDBRANCH  14  21
BRANCH  18  22
ATOM     22  O   UNL     1      -2.836   9.734  16.225  0.00  0.00    +0.000 OA
ATOM     23  C   UNL     1      -2.940  10.475  15.020  0.00  0.00    +0.000 C 
ENDBRANCH  18  22
BRANCH  19  24
ATOM     24  O   UNL     1      -4.272  11.666  17.798  0.00  0.00    +0.000 OA
ATOM     25  C   UNL     1      -5.407  10.939  18.228  0.00  0.00    +0.000 C 
ENDBRANCH  19  24
ENDBRANCH   1  16
TORSDOF 5
ENDMDL
MODEL 8
REMARK VINA RESULT:      -7.0      5.353      8.086
REMARK  Name = 
REMARK  8 active torsions:
REMARK  status: ('A' for Active; 'I' for Inactive)
REMARK    1  A    between atoms: C_1  and  O_2
REMARK    2  A    between atoms: O_2  and  C_3
REMARK    3  A    between atoms: C_5  and  C_6
REMARK    4  A    between atoms: C_8  and  C_9
REMARK    5  A    between atoms: C_19  and  O_20
REMARK    6  A    between atoms: O_20  and  C_21
REMARK    7  A    between atoms: C_22  and  O_23
REMARK    8  A    between atoms: O_23  and  C_24
REMARK                            x       y       z     vdW  Elec       q    Type
REMARK                         _______ _______ _______ _____ _____    ______ ____
ROOT
ATOM      1  C   UNL     1       5.460   5.917  17.989  0.00  0.00    +0.000 C 
ATOM      2  C   UNL     1       6.181   4.958  17.052  0.00  0.00    +0.000 C 
ATOM      3  C   UNL     1       5.833   5.558  15.717  0.00  0.00    +0.000 C 
ATOM      4  N   UNL     1       5.107   6.632  15.765  0.00  0.00    +0.000 NA
ATOM      5  N   UNL     1       4.957   6.946  17.075  0.00  0.00    +0.000 N 
ATOM      6  H   UNL     1       4.015   7.267  17.303  0.00  0.00    +0.000 HD
ENDROOT
BRANCH   3   7
ATOM      7  C   UNL     1       6.304   4.950  14.448  0.00  0.00    +0.000 A 
ATOM      8  C   UNL     1       7.475   5.397  13.821  0.00  0.00    +0.000 A 
ATOM      9  C   UNL     1       7.881   4.825  12.614  0.00  0.00    +0.000 A 
ATOM     10  C   UNL     1       7.120   3.815  12.039  0.00  0.00    +0.000 A 
ATOM     11  F   UNL     1       7.516   3.271  10.881  0.00  0.00    +0.000 F 
ATOM     12  C   UNL     1       5.955   3.362  12.647  0.00  0.00    +0.000 A 
ATOM     13  C   UNL     1       5.544   3.932  13.855  0.00  0.00    +0.000 A 
ENDBRANCH   3   7
BRANCH   1  16
ATOM     14  C   UNL     1       2.333   5.601  20.157  0.00  0.00    +0.000 A 
ATOM     15  C   UNL     1       3.454   6.124  19.489  0.00  0.00    +0.000 A 
ATOM     16  C   UNL     1       4.368   5.298  18.830  0.00  0.00    +0.000 A 
ATOM     17  C   UNL     1       4.189   3.916  18.936  0.00  0.00    +0.000 A 
ATOM     18  C   UNL     1       3.117   3.363  19.659  0.00  0.00    +0.000 A 
ATOM     19  C   UNL     1       2.165   4.206  20.276  0.00  0.00    +0.000 A 
BRANCH  14  21
ATOM     20  C   UNL     1       1.666   7.847  20.527  0.00  0.00    +0.000 C 
ATOM     21  O   UNL     1       1.414   6.454  20.719  0.00  0.00    +0.000 OA
ENDBRANCH  14  21
BRANCH  18  22
ATOM     22  O   UNL     1       3.156   1.990  19.625  0.00  0.00    +0.000 OA
ATOM     23  C   UNL     1       3.496   1.326  18.418  0.00  0.00    +0.000 C 
ENDBRANCH  18  22
BRANCH  19  24
ATOM     24  O   UNL     1       1.150   3.574  20.942  0.00  0.00    +0.000 OA
ATOM     25  C   UNL     1       1.415   2.632  21.964  0.00  0.00    +0.000 C 
ENDBRANCH  19  24
ENDBRANCH   1  16
TORSDOF 5
ENDMDL
MODEL 9
REMARK VINA RESULT:      -7.0      4.404      7.965
REMARK  Name = 
REMARK  8 active torsions:
REMARK  status: ('A' for Active; 'I' for Inactive)
REMARK    1  A    between atoms: C_1  and  O_2
REMARK    2  A    between atoms: O_2  and  C_3
REMARK    3  A    between atoms: C_5  and  C_6
REMARK    4  A    between atoms: C_8  and  C_9
REMARK    5  A    between atoms: C_19  and  O_20
REMARK    6  A    between atoms: O_20  and  C_21
REMARK    7  A    between atoms: C_22  and  O_23
REMARK    8  A    between atoms: O_23  and  C_24
REMARK                            x       y       z     vdW  Elec       q    Type
REMARK                         _______ _______ _______ _____ _____    ______ ____
ROOT
ATOM      1  C   UNL     1       2.005   8.900  19.028  0.00  0.00    +0.000 C 
ATOM      2  C   UNL     1       1.035   9.389  17.961  0.00  0.00    +0.000 C 
ATOM      3  C   UNL     1      -0.141   9.784  18.813  0.00  0.00    +0.000 C 
ATOM      4  N   UNL     1       0.022   9.624  20.090  0.00  0.00    +0.000 NA
ATOM      5  N   UNL     1       1.302   9.215  20.274  0.00  0.00    +0.000 N 
ATOM      6  H   UNL     1       1.390   8.489  20.986  0.00  0.00    +0.000 HD
ENDROOT
BRANCH   3   7
ATOM      7  C   UNL     1      -1.387  10.321  18.214  0.00  0.00    +0.000 A 
ATOM      8  C   UNL     1      -2.178  11.253  18.900  0.00  0.00    +0.000 A 
ATOM      9  C   UNL     1      -3.359  11.723  18.324  0.00  0.00    +0.000 A 
ATOM     10  C   UNL     1      -3.745  11.264  17.070  0.00  0.00    +0.000 A 
ATOM     11  F   UNL     1      -4.879  11.720  16.523  0.00  0.00    +0.000 F 
ATOM     12  C   UNL     1      -2.972  10.339  16.377  0.00  0.00    +0.000 A 
ATOM     13  C   UNL     1      -1.789   9.865  16.951  0.00  0.00    +0.000 A 
ENDBRANCH   3   7
BRANCH   1  16
ATOM     14  C   UNL     1       2.046   5.137  19.676  0.00  0.00    +0.000 A 
ATOM     15  C   UNL     1       1.840   6.521  19.821  0.00  0.00    +0.000 A 
ATOM     16  C   UNL     1       2.392   7.442  18.927  0.00  0.00    +0.000 A 
ATOM     17  C   UNL     1       3.242   6.955  17.931  0.00  0.00    +0.000 A 
ATOM     18  C   UNL     1       3.523   5.582  17.808  0.00  0.00    +0.000 A 
ATOM     19  C   UNL     1       2.918   4.650  18.680  0.00  0.00    +0.000 A 
BRANCH  14  21
ATOM     20  C   UNL     1       2.212   3.767  21.604  0.00  0.00    +0.000 C 
ATOM     21  O   UNL     1       1.416   4.260  20.525  0.00  0.00    +0.000 OA
ENDBRANCH  14  21
BRANCH  18  22
ATOM     22  O   UNL     1       4.387   5.349  16.764  0.00  0.00    +0.000 OA
ATOM     23  C   UNL     1       5.455   6.251  16.520  0.00  0.00    +0.000 C 
ENDBRANCH  18  22
BRANCH  19  24
ATOM     24  O   UNL     1       3.242   3.337  18.470  0.00  0.00    +0.000 OA
ATOM     25  C   UNL     1       2.436   2.500  17.663  0.00  0.00    +0.000 C 
ENDBRANCH  19  24
ENDBRANCH   1  16
TORSDOF 5
ENDMDL
