MODEL 1
REMARK VINA RESULT:      -7.0      0.000      0.000
REMARK  Name = 
REMARK  8 active torsions:
REMARK  status: ('A' for Active; 'I' for Inactive)
REMARK    1  A    between atoms: C_1  and  C_2
REMARK    2  A    between atoms: C_2  and  C_3
REMARK    3  A    between atoms: C_3  and  O_4
REMARK    4  A    between atoms: C_3  and  C_5
REMARK    5  A    between atoms: C_5  and  N_6
REMARK    6  A    between atoms: C_10  and  C_12
REMARK    7  A    between atoms: N_16  and  C_17
REMARK    8  A    between atoms: C_17  and  C_18
REMARK                            x       y       z     vdW  Elec       q    Type
REMARK                         _______ _______ _______ _____ _____    ______ ____
ROOT
ATOM      1  N   UNL     1       6.857   4.029  15.507  0.00  0.00    +0.000 NA
ATOM      2  C   UNL     1       7.576   4.555  16.693  0.00  0.00    +0.000 C 
ATOM      3  C   UNL     1       6.822   5.656  17.465  0.00  0.00    +0.000 C 
ATOM      4  N   UNL     1       5.465   5.218  17.816  0.00  0.00    +0.000 N 
ATOM      5  C   UNL     1       5.078   5.206  19.162  0.00  0.00    +0.000 C 
ATOM      6  O   UNL     1       5.892   5.485  20.043  0.00  0.00    +0.000 OA
ATOM      7  C   UNL     1       4.706   4.658  16.695  0.00  0.00    +0.000 C 
ATOM      8  C   UNL     1       5.513   3.589  15.936  0.00  0.00    +0.000 C 
ENDROOT
BRANCH   5   9
ATOM      9  C   UNL     1       3.703   4.851  19.485  0.00  0.00    +0.000 A 
ATOM     10  C   UNL     1       3.189   3.619  19.880  0.00  0.00    +0.000 A 
ATOM     11  C   UNL     1       1.824   3.772  20.198  0.00  0.00    +0.000 A 
ATOM     12  C   UNL     1       1.484   5.058  19.866  0.00  0.00    +0.000 A 
ATOM     13  N   UNL     1       2.604   5.693  19.372  0.00  0.00    +0.000 N 
BRANCH  13  14
ATOM     14  C   UNL     1       2.545   6.997  18.714  0.00  0.00    +0.000 C 
BRANCH  14  15
ATOM     15  C   UNL     1       1.812   8.049  19.507  0.00  0.00    +0.000 A 
ATOM     16  C   UNL     1       1.665   7.919  20.897  0.00  0.00    +0.000 A 
ATOM     17  C   UNL     1       1.075   8.939  21.648  0.00  0.00    +0.000 A 
ATOM     18  C   UNL     1       0.621  10.096  21.021  0.00  0.00    +0.000 A 
ATOM     19  C   UNL     1       0.738  10.229  19.640  0.00  0.00    +0.000 A 
ATOM     20  C   UNL     1       1.325   9.210  18.887  0.00  0.00    +0.000 A 
ENDBRANCH  14  15
ENDBRANCH  13  14
ENDBRANCH   5   9
BRANCH   1  21
ATOM     21  C   UNL     1       6.757   4.999  14.402  0.00  0.00    +0.000 C 
BRANCH  21  22
ATOM     22  C   UNL     1       7.773   4.803  13.256  0.00  0.00    +0.000 C 
BRANCH  22  24
ATOM     23  C   UNL     1       6.099   3.283  12.117  0.00  0.00    +0.000 C 
ATOM     24  C   UNL     1       7.093   4.423  11.937  0.00  0.00    +0.000 C 
ENDBRANCH  22  24
BRANCH  22  25
ATOM     25  O   UNL     1       8.515   6.016  13.089  0.00  0.00    +0.000 OA
ATOM     26  H   UNL     1       7.877   6.739  12.957  0.00  0.00    +0.000 HD
ENDBRANCH  22  25
ENDBRANCH  21  22
ENDBRANCH   1  21
TORSDOF 7
ENDMDL
MODEL 2
REMARK VINA RESULT:      -7.0      0.641      1.226
REMARK  Name = 
REMARK  8 active torsions:
REMARK  status: ('A' for Active; 'I' for Inactive)
REMARK    1  A    between atoms: C_1  and  C_2
REMARK    2  A    between atoms: C_2  and  C_3
REMARK    3  A    between atoms: C_3  and  O_4
REMARK    4  A    between atoms: C_3  and  C_5
REMARK    5  A    between atoms: C_5  and  N_6
REMARK    6  A    between atoms: C_10  and  C_12
REMARK    7  A    between atoms: N_16  and  C_17
REMARK    8  A    between atoms: C_17  and  C_18
REMARK                            x       y       z     vdW  Elec       q    Type
REMARK                         _______ _______ _______ _____ _____    ______ ____
ROOT
ATOM      1  N   UNL     1       6.710   3.774  15.415  0.00  0.00    +0.000 NA
ATOM      2  C   UNL     1       7.468   4.476  16.480  0.00  0.00    +0.000 C 
ATOM      3  C   UNL     1       6.697   5.618  17.172  0.00  0.00    +0.000 C 
ATOM      4  N   UNL     1       5.395   5.150  17.665  0.00  0.00    +0.000 N 
ATOM      5  C   UNL     1       5.096   5.277  19.027  0.00  0.00    +0.000 C 
ATOM      6  O   UNL     1       5.945   5.702  19.811  0.00  0.00    +0.000 OA
ATOM      7  C   UNL     1       4.603   4.420  16.672  0.00  0.00    +0.000 C 
ATOM      8  C   UNL     1       5.426   3.315  15.986  0.00  0.00    +0.000 C 
ENDROOT
BRANCH   5   9
ATOM      9  C   UNL     1       3.768   4.887  19.484  0.00  0.00    +0.000 A 
ATOM     10  C   UNL     1       3.367   3.699  20.089  0.00  0.00    +0.000 A 
ATOM     11  C   UNL     1       2.013   3.811  20.465  0.00  0.00    +0.000 A 
ATOM     12  C   UNL     1       1.563   5.007  19.968  0.00  0.00    +0.000 A 
ATOM     13  N   UNL     1       2.606   5.631  19.317  0.00  0.00    +0.000 N 
BRANCH  13  14
ATOM     14  C   UNL     1       2.419   6.812  18.478  0.00  0.00    +0.000 C 
BRANCH  14  15
ATOM     15  C   UNL     1       1.887   8.012  19.223  0.00  0.00    +0.000 A 
ATOM     16  C   UNL     1       1.579   9.196  18.537  0.00  0.00    +0.000 A 
ATOM     17  C   UNL     1       0.993  10.274  19.207  0.00  0.00    +0.000 A 
ATOM     18  C   UNL     1       0.714  10.183  20.568  0.00  0.00    +0.000 A 
ATOM     19  C   UNL     1       1.037   9.022  21.267  0.00  0.00    +0.000 A 
ATOM     20  C   UNL     1       1.624   7.945  20.600  0.00  0.00    +0.000 A 
ENDBRANCH  14  15
ENDBRANCH  13  14
ENDBRANCH   5   9
BRANCH   1  21
ATOM     21  C   UNL     1       6.479   4.600  14.216  0.00  0.00    +0.000 C 
BRANCH  21  22
ATOM     22  C   UNL     1       6.697   3.881  12.867  0.00  0.00    +0.000 C 
BRANCH  22  24
ATOM     23  C   UNL     1       5.545   2.154  11.418  0.00  0.00    +0.000 C 
ATOM     24  C   UNL     1       5.377   3.430  12.231  0.00  0.00    +0.000 C 
ENDBRANCH  22  24
BRANCH  22  25
ATOM     25  O   UNL     1       7.386   4.770  11.980  0.00  0.00    +0.000 OA
ATOM     26  H   UNL     1       7.373   5.657  12.381  0.00  0.00    +0.000 HD
ENDBRANCH  22  25
ENDBRANCH  21  22
ENDBRANCH   1  21
TORSDOF 7
ENDMDL
MODEL 3
REMARK VINA RESULT:      -7.0      2.605      3.785
REMARK  Name = 
REMARK  8 active torsions:
REMARK  status: ('A' for Active; 'I' for Inactive)
REMARK    1  A    between atoms: C_1  and  C_2
REMARK    2  A    between atoms: C_2  and  C_3
REMARK    3  A    between atoms: C_3  and  O_4
REMARK    4  A    between atoms: C_3  and  C_5
REMARK    5  A    between atoms: C_5  and  N_6
REMARK    6  A    between atoms: C_10  and  C_12
REMARK    7  A    between atoms: N_16  and  C_17
REMARK    8  A    between atoms: C_17  and  C_18
REMARK                            x       y       z     vdW  Elec       q    Type
REMARK                         _______ _______ _______ _____ _____    ______ ____
ROOT
ATOM      1  N   UNL     1       6.819   6.547  16.908  0.00  0.00    +0.000 NA
ATOM      2  C   UNL     1       7.366   5.502  17.807  0.00  0.00    +0.000 C 
ATOM      3  C   UNL     1       6.567   5.291  19.109  0.00  0.00    +0.000 C 
ATOM      4  N   UNL     1       5.146   5.057  18.821  0.00  0.00    +0.000 N 
ATOM      5  C   UNL     1       4.544   3.876  19.274  0.00  0.00    +0.000 C 
ATOM      6  O   UNL     1       5.219   3.012  19.836  0.00  0.00    +0.000 OA
ATOM      7  C   UNL     1       4.547   6.037  17.913  0.00  0.00    +0.000 C 
ATOM      8  C   UNL     1       5.398   6.237  16.647  0.00  0.00    +0.000 C 
ENDROOT
BRANCH   5   9
ATOM      9  C   UNL     1       3.115   3.698  19.055  0.00  0.00    +0.000 A 
ATOM     10  C   UNL     1       2.466   3.051  18.007  0.00  0.00    +0.000 A 
ATOM     11  C   UNL     1       1.081   3.026  18.271  0.00  0.00    +0.000 A 
ATOM     12  C   UNL     1       0.882   3.773  19.404  0.00  0.00    +0.000 A 
ATOM     13  N   UNL     1       2.105   4.236  19.843  0.00  0.00    +0.000 N 
BRANCH  13  14
ATOM     14  C   UNL     1       2.235   5.248  20.889  0.00  0.00    +0.000 C 
BRANCH  14  15
ATOM     15  C   UNL     1       1.906   6.646  20.430  0.00  0.00    +0.000 A 
ATOM     16  C   UNL     1       2.232   7.064  19.130  0.00  0.00    +0.000 A 
ATOM     17  C   UNL     1       1.840   8.323  18.669  0.00  0.00    +0.000 A 
ATOM     18  C   UNL     1       1.122   9.180  19.499  0.00  0.00    +0.000 A 
ATOM     19  C   UNL     1       0.812   8.789  20.799  0.00  0.00    +0.000 A 
ATOM     20  C   UNL     1       1.205   7.531  21.264  0.00  0.00    +0.000 A 
ENDBRANCH  14  15
ENDBRANCH  13  14
ENDBRANCH   5   9
BRANCH   1  21
ATOM     21  C   UNL     1       6.963   7.914  17.441  0.00  0.00    +0.000 C 
BRANCH  21  22
ATOM     22  C   UNL     1       8.395   8.315  17.855  0.00  0.00    +0.000 C 
BRANCH  22  24
ATOM     23  C   UNL     1       9.261  10.203  19.302  0.00  0.00    +0.000 C 
ATOM     24  C   UNL     1       8.552   9.832  18.008  0.00  0.00    +0.000 C 
ENDBRANCH  22  24
BRANCH  22  25
ATOM     25  O   UNL     1       8.714   7.666  19.091  0.00  0.00    +0.000 OA
ATOM     26  H   UNL     1       8.109   8.011  19.771  0.00  0.00    +0.000 HD
ENDBRANCH  22  25
ENDBRANCH  21  22
ENDBRANCH   1  21
TORSDOF 7
ENDMDL
MODEL 4
REMARK VINA RESULT:      -6.9      2.819      4.163
REMARK  Name = 
REMARK  8 active torsions:
REMARK  status: ('A' for Active; 'I' for Inactive)
REMARK    1  A    between atoms: C_1  and  C_2
REMARK    2  A    between atoms: C_2  and  C_3
REMARK    3  A    between atoms: C_3  and  O_4
REMARK    4  A    between atoms: C_3  and  C_5
REMARK    5  A    between atoms: C_5  and  N_6
REMARK    6  A    between atoms: C_10  and  C_12
REMARK    7  A    between atoms: N_16  and  C_17
REMARK    8  A    between atoms: C_17  and  C_18
REMARK                            x       y       z     vdW  Elec       q    Type
REMARK                         _______ _______ _______ _____ _____    ______ ____
ROOT
ATOM      1  N   UNL     1       7.542   7.369  17.229  0.00  0.00    +0.000 NA
ATOM      2  C   UNL     1       7.973   6.317  18.182  0.00  0.00    +0.000 C 
ATOM      3  C   UNL     1       6.943   5.984  19.280  0.00  0.00    +0.000 C 
ATOM      4  N   UNL     1       5.634   5.669  18.695  0.00  0.00    +0.000 N 
ATOM      5  C   UNL     1       5.045   4.428  18.967  0.00  0.00    +0.000 C 
ATOM      6  O   UNL     1       5.656   3.583  19.624  0.00  0.00    +0.000 OA
ATOM      7  C   UNL     1       5.158   6.653  17.720  0.00  0.00    +0.000 C 
ATOM      8  C   UNL     1       6.232   6.978  16.667  0.00  0.00    +0.000 C 
ENDROOT
BRANCH   5   9
ATOM      9  C   UNL     1       3.709   4.165  18.449  0.00  0.00    +0.000 A 
ATOM     10  C   UNL     1       3.340   3.551  17.257  0.00  0.00    +0.000 A 
ATOM     11  C   UNL     1       1.938   3.408  17.228  0.00  0.00    +0.000 A 
ATOM     12  C   UNL     1       1.454   4.056  18.336  0.00  0.00    +0.000 A 
ATOM     13  N   UNL     1       2.520   4.571  19.042  0.00  0.00    +0.000 N 
BRANCH  13  14
ATOM     14  C   UNL     1       2.352   5.512  20.148  0.00  0.00    +0.000 C 
BRANCH  14  15
ATOM     15  C   UNL     1       2.047   6.922  19.708  0.00  0.00    +0.000 A 
ATOM     16  C   UNL     1       2.238   7.309  18.373  0.00  0.00    +0.000 A 
ATOM     17  C   UNL     1       1.862   8.583  17.941  0.00  0.00    +0.000 A 
ATOM     18  C   UNL     1       1.298   9.487  18.836  0.00  0.00    +0.000 A 
ATOM     19  C   UNL     1       1.124   9.126  20.170  0.00  0.00    +0.000 A 
ATOM     20  C   UNL     1       1.501   7.854  20.605  0.00  0.00    +0.000 A 
ENDBRANCH  14  15
ENDBRANCH  13  14
ENDBRANCH   5   9
BRANCH   1  21
ATOM     21  C   UNL     1       7.467   8.713  17.832  0.00  0.00    +0.000 C 
BRANCH  21  22
ATOM     22  C   UNL     1       8.827   9.362  18.169  0.00  0.00    +0.000 C 
BRANCH  22  24
ATOM     23  C   UNL     1      10.182  11.500  18.215  0.00  0.00    +0.000 C 
ATOM     24  C   UNL     1       8.848  10.861  17.853  0.00  0.00    +0.000 C 
ENDBRANCH  22  24
BRANCH  22  25
ATOM     25  O   UNL     1       9.101   9.154  19.560  0.00  0.00    +0.000 OA
ATOM     26  H   UNL     1       9.754   9.820  19.836  0.00  0.00    +0.000 HD
ENDBRANCH  22  25
ENDBRANCH  21  22
ENDBRANCH   1  21
TORSDOF 7
ENDMDL
MODEL 5
REMARK VINA RESULT:      -6.9      2.647      5.766
REMARK  Name = 
REMARK  8 active torsions:
REMARK  status: ('A' for Active; 'I' for Inactive)
REMARK    1  A    between atoms: C_1  and  C_2
REMARK    2  A    between atoms: C_2  and  C_3
REMARK    3  A    between atoms: C_3  and  O_4
REMARK    4  A    between atoms: C_3  and  C_5
REMARK    5  A    between atoms: C_5  and  N_6
REMARK    6  A    between atoms: C_10  and  C_12
REMARK    7  A    between atoms: N_16  and  C_17
REMARK    8  A    between atoms: C_17  and  C_18
REMARK                            x       y       z     vdW  Elec       q    Type
REMARK                         _______ _______ _______ _____ _____    ______ ____
ROOT
ATOM      1  N   UNL     1       3.694   1.582  19.769  0.00  0.00    +0.000 NA
ATOM      2  C   UNL     1       3.974   1.227  18.356  0.00  0.00    +0.000 C 
ATOM      3  C   UNL     1       3.756   2.375  17.349  0.00  0.00    +0.000 C 
ATOM      4  N   UNL     1       4.497   3.576  17.754  0.00  0.00    +0.000 N 
ATOM      5  C   UNL     1       5.434   4.129  16.872  0.00  0.00    +0.000 C 
ATOM      6  O   UNL     1       5.688   3.568  15.806  0.00  0.00    +0.000 OA
ATOM      7  C   UNL     1       4.291   3.969  19.150  0.00  0.00    +0.000 C 
ATOM      8  C   UNL     1       4.486   2.782  20.111  0.00  0.00    +0.000 C 
ENDROOT
BRANCH   5   9
ATOM      9  C   UNL     1       6.098   5.369  17.253  0.00  0.00    +0.000 A 
ATOM     10  C   UNL     1       7.280   5.543  17.968  0.00  0.00    +0.000 A 
ATOM     11  C   UNL     1       7.600   6.915  17.999  0.00  0.00    +0.000 A 
ATOM     12  C   UNL     1       6.546   7.578  17.424  0.00  0.00    +0.000 A 
ATOM     13  N   UNL     1       5.606   6.649  17.031  0.00  0.00    +0.000 N 
BRANCH  13  14
ATOM     14  C   UNL     1       4.263   7.023  16.593  0.00  0.00    +0.000 C 
BRANCH  14  15
ATOM     15  C   UNL     1       3.378   7.531  17.704  0.00  0.00    +0.000 A 
ATOM     16  C   UNL     1       2.666   8.731  17.555  0.00  0.00    +0.000 A 
ATOM     17  C   UNL     1       1.770   9.153  18.540  0.00  0.00    +0.000 A 
ATOM     18  C   UNL     1       1.577   8.385  19.685  0.00  0.00    +0.000 A 
ATOM     19  C   UNL     1       2.294   7.204  19.858  0.00  0.00    +0.000 A 
ATOM     20  C   UNL     1       3.193   6.781  18.876  0.00  0.00    +0.000 A 
ENDBRANCH  14  15
ENDBRANCH  13  14
ENDBRANCH   5   9
BRANCH   1  21
ATOM     21  C   UNL     1       2.264   1.807  20.046  0.00  0.00    +0.000 C 
BRANCH  21  22
ATOM     22  C   UNL     1       1.954   2.957  21.029  0.00  0.00    +0.000 C 
BRANCH  22  24
ATOM     23  C   UNL     1       0.813   3.845  18.952  0.00  0.00    +0.000 C 
ATOM     24  C   UNL     1       0.921   3.938  20.467  0.00  0.00    +0.000 C 
ENDBRANCH  22  24
BRANCH  22  25
ATOM     25  O   UNL     1       1.474   2.394  22.256  0.00  0.00    +0.000 OA
ATOM     26  H   UNL     1       1.815   2.940  22.986  0.00  0.00    +0.000 HD
ENDBRANCH  22  25
ENDBRANCH  21  22
ENDBRANCH   1  21
TORSDOF 7
ENDMDL
MODEL 6
REMARK VINA RESULT:      -6.8      2.827      8.655
REMARK  Name = 
REMARK  8 active torsions:
REMARK  status: ('A' for Active; 'I' for Inactive)
REMARK    1  A    between atoms: C_1  and  C_2
REMARK    2  A    between atoms: C_2  and  C_3
REMARK    3  A    between atoms: C_3  and  O_4
REMARK    4  A    between atoms: C_3  and  C_5
REMARK    5  A    between atoms: C_5  and  N_6
REMARK    6  A    between atoms: C_10  and  C_12
REMARK    7  A    between atoms: N_16  and  C_17
REMARK    8  A    between atoms: C_17  and  C_18
REMARK                            x       y       z     vdW  Elec       q    Type
REMARK                         _______ _______ _______ _____ _____    ______ ____
ROOT
ATOM      1  N   UNL     1      -0.260   9.983  20.715  0.00  0.00    +0.000 NA
ATOM      2  C   UNL     1       0.216   9.942  19.312  0.00  0.00    +0.000 C 
ATOM      3  C   UNL     1       1.636   9.368  19.131  0.00  0.00    +0.000 C 
ATOM      4  N   UNL     1       1.757   8.053  19.774  0.00  0.00    +0.000 N 
ATOM      5  C   UNL     1       2.141   6.949  19.002  0.00  0.00    +0.000 C 
ATOM      6  O   UNL     1       2.298   7.067  17.786  0.00  0.00    +0.000 OA
ATOM      7  C   UNL     1       1.275   8.013  21.157  0.00  0.00    +0.000 C 
ATOM      8  C   UNL     1      -0.129   8.627  21.290  0.00  0.00    +0.000 C 
ENDROOT
BRANCH   5   9
ATOM      9  C   UNL     1       2.339   5.670  19.672  0.00  0.00    +0.000 A 
ATOM     10  C   UNL     1       1.428   4.920  20.409  0.00  0.00    +0.000 A 
ATOM     11  C   UNL     1       2.026   3.696  20.770  0.00  0.00    +0.000 A 
ATOM     12  C   UNL     1       3.336   3.765  20.369  0.00  0.00    +0.000 A 
ATOM     13  N   UNL     1       3.544   4.985  19.762  0.00  0.00    +0.000 N 
BRANCH  13  14
ATOM     14  C   UNL     1       4.877   5.480  19.424  0.00  0.00    +0.000 C 
BRANCH  14  15
ATOM     15  C   UNL     1       5.412   4.948  18.118  0.00  0.00    +0.000 A 
ATOM     16  C   UNL     1       4.534   4.561  17.093  0.00  0.00    +0.000 A 
ATOM     17  C   UNL     1       5.026   4.163  15.848  0.00  0.00    +0.000 A 
ATOM     18  C   UNL     1       6.398   4.140  15.613  0.00  0.00    +0.000 A 
ATOM     19  C   UNL     1       7.282   4.498  16.627  0.00  0.00    +0.000 A 
ATOM     20  C   UNL     1       6.793   4.895  17.874  0.00  0.00    +0.000 A 
ENDBRANCH  14  15
ENDBRANCH  13  14
ENDBRANCH   5   9
BRANCH   1  21
ATOM     21  C   UNL     1       0.449  10.970  21.548  0.00  0.00    +0.000 C 
BRANCH  21  22
ATOM     22  C   UNL     1      -0.233  12.351  21.662  0.00  0.00    +0.000 C 
BRANCH  22  24
ATOM     23  C   UNL     1      -1.228  13.821  23.467  0.00  0.00    +0.000 C 
ATOM     24  C   UNL     1      -1.192  12.427  22.855  0.00  0.00    +0.000 C 
ENDBRANCH  22  24
BRANCH  22  25
ATOM     25  O   UNL     1       0.782  13.354  21.788  0.00  0.00    +0.000 OA
ATOM     26  H   UNL     1       0.514  13.959  22.502  0.00  0.00    +0.000 HD
ENDBRANCH  22  25
ENDBRANCH  21  22
ENDBRANCH   1  21
TORSDOF 7
ENDMDL
MODEL 7
REMARK VINA RESULT:      -6.8      3.069      7.713
REMARK  Name = 
REMARK  8 active torsions:
REMARK  status: ('A' for Active; 'I' for Inactive)
REMARK    1  A    between atoms: C_1  and  C_2
REMARK    2  A    between atoms: C_2  and  C_3
REMARK    3  A    between atoms: C_3  and  O_4
REMARK    4  A    between atoms: C_3  and  C_5
REMARK    5  A    between atoms: C_5  and  N_6
REMARK    6  A    between atoms: C_10  and  C_12
REMARK    7  A    between atoms: N_16  and  C_17
REMARK    8  A    between atoms: C_17  and  C_18
REMARK                            x       y       z     vdW  Elec       q    Type
REMARK                         _______ _______ _______ _____ _____    ______ ____
ROOT
ATOM      1  N   UNL     1       1.153  10.753  19.053  0.00  0.00    +0.000 NA
ATOM      2  C   UNL     1       1.296   9.912  20.266  0.00  0.00    +0.000 C 
ATOM      3  C   UNL     1       1.063   8.405  20.034  0.00  0.00    +0.000 C 
ATOM      4  N   UNL     1       1.902   7.906  18.938  0.00  0.00    +0.000 N 
ATOM      5  C   UNL     1       2.794   6.855  19.185  0.00  0.00    +0.000 C 
ATOM      6  O   UNL     1       2.927   6.411  20.326  0.00  0.00    +0.000 OA
ATOM      7  C   UNL     1       1.834   8.709  17.714  0.00  0.00    +0.000 C 
ATOM      8  C   UNL     1       2.037  10.207  18.002  0.00  0.00    +0.000 C 
ENDROOT
BRANCH   5   9
ATOM      9  C   UNL     1       3.557   6.316  18.067  0.00  0.00    +0.000 A 
ATOM     10  C   UNL     1       4.557   6.927  17.316  0.00  0.00    +0.000 A 
ATOM     11  C   UNL     1       5.093   5.986  16.413  0.00  0.00    +0.000 A 
ATOM     12  C   UNL     1       4.328   4.853  16.525  0.00  0.00    +0.000 A 
ATOM     13  N   UNL     1       3.357   5.073  17.478  0.00  0.00    +0.000 N 
BRANCH  13  14
ATOM     14  C   UNL     1       2.234   4.161  17.685  0.00  0.00    +0.000 C 
BRANCH  14  15
ATOM     15  C   UNL     1       2.225   3.501  19.042  0.00  0.00    +0.000 A 
ATOM     16  C   UNL     1       3.396   2.928  19.562  0.00  0.00    +0.000 A 
ATOM     17  C   UNL     1       3.417   2.406  20.857  0.00  0.00    +0.000 A 
ATOM     18  C   UNL     1       2.271   2.444  21.645  0.00  0.00    +0.000 A 
ATOM     19  C   UNL     1       1.095   2.987  21.134  0.00  0.00    +0.000 A 
ATOM     20  C   UNL     1       1.070   3.508  19.838  0.00  0.00    +0.000 A 
ENDBRANCH  14  15
ENDBRANCH  13  14
ENDBRANCH   5   9
BRANCH   1  21
ATOM     21  C   UNL     1      -0.235  10.850  18.564  0.00  0.00    +0.000 C 
BRANCH  21  22
ATOM     22  C   UNL     1      -0.830  12.274  18.542  0.00  0.00    +0.000 C 
BRANCH  22  24
ATOM     23  C   UNL     1      -0.295  14.735  18.804  0.00  0.00    +0.000 C 
ATOM     24  C   UNL     1       0.126  13.311  19.142  0.00  0.00    +0.000 C 
ENDBRANCH  22  24
BRANCH  22  25
ATOM     25  O   UNL     1      -1.137  12.622  17.187  0.00  0.00    +0.000 OA
ATOM     26  H   UNL     1      -1.315  13.578  17.159  0.00  0.00    +0.000 HD
ENDBRANCH  22  25
ENDBRANCH  21  22
ENDBRANCH   1  21
TORSDOF 7
ENDMDL
MODEL 8
REMARK VINA RESULT:      -6.8      0.929      1.365
REMARK  Name = 
REMARK  8 active torsions:
REMARK  status: ('A' for Active; 'I' for Inactive)
REMARK    1  A    between atoms: C_1  and  C_2
REMARK    2  A    between atoms: C_2  and  C_3
REMARK    3  A    between atoms: C_3  and  O_4
REMARK    4  A    between atoms: C_3  and  C_5
REMARK    5  A    between atoms: C_5  and  N_6
REMARK    6  A    between atoms: C_10  and  C_12
REMARK    7  A    between atoms: N_16  and  C_17
REMARK    8  A    between atoms: C_17  and  C_18
REMARK                            x       y       z     vdW  Elec       q    Type
REMARK                         _______ _______ _______ _____ _____    ______ ____
ROOT
ATOM      1  N   UNL     1       6.614   3.768  15.503  0.00  0.00    +0.000 NA
ATOM      2  C   UNL     1       7.222   4.436  16.679  0.00  0.00    +0.000 C 
ATOM      3  C   UNL     1       6.341   5.522  17.328  0.00  0.00    +0.000 C 
ATOM      4  N   UNL     1       5.007   4.996  17.645  0.00  0.00    +0.000 N 
ATOM      5  C   UNL     1       4.550   5.048  18.967  0.00  0.00    +0.000 C 
ATOM      6  O   UNL     1       5.289   5.457  19.863  0.00  0.00    +0.000 OA
ATOM      7  C   UNL     1       4.357   4.296  16.535  0.00  0.00    +0.000 C 
ATOM      8  C   UNL     1       5.288   3.248  15.898  0.00  0.00    +0.000 C 
ENDROOT
BRANCH   5   9
ATOM      9  C   UNL     1       3.192   4.601  19.249  0.00  0.00    +0.000 A 
ATOM     10  C   UNL     1       2.490   3.534  18.695  0.00  0.00    +0.000 A 
ATOM     11  C   UNL     1       1.251   3.408  19.354  0.00  0.00    +0.000 A 
ATOM     12  C   UNL     1       1.148   4.477  20.208  0.00  0.00    +0.000 A 
ATOM     13  N   UNL     1       2.293   5.236  20.098  0.00  0.00    +0.000 N 
BRANCH  13  14
ATOM     14  C   UNL     1       2.418   6.565  20.694  0.00  0.00    +0.000 C 
BRANCH  14  15
ATOM     15  C   UNL     1       1.910   7.679  19.813  0.00  0.00    +0.000 A 
ATOM     16  C   UNL     1       1.089   8.686  20.342  0.00  0.00    +0.000 A 
ATOM     17  C   UNL     1       0.699   9.772  19.554  0.00  0.00    +0.000 A 
ATOM     18  C   UNL     1       1.119   9.863  18.230  0.00  0.00    +0.000 A 
ATOM     19  C   UNL     1       1.915   8.858  17.684  0.00  0.00    +0.000 A 
ATOM     20  C   UNL     1       2.304   7.770  18.469  0.00  0.00    +0.000 A 
ENDBRANCH  14  15
ENDBRANCH  13  14
ENDBRANCH   5   9
BRANCH   1  21
ATOM     21  C   UNL     1       6.496   4.645  14.324  0.00  0.00    +0.000 C 
BRANCH  21  22
ATOM     22  C   UNL     1       6.765   3.964  12.964  0.00  0.00    +0.000 C 
BRANCH  22  24
ATOM     23  C   UNL     1       5.610   2.195  11.570  0.00  0.00    +0.000 C 
ATOM     24  C   UNL     1       5.470   3.545  12.260  0.00  0.00    +0.000 C 
ENDBRANCH  22  24
BRANCH  22  25
ATOM     25  O   UNL     1       7.498   4.873  12.134  0.00  0.00    +0.000 OA
ATOM     26  H   UNL     1       8.080   4.345  11.559  0.00  0.00    +0.000 HD
ENDBRANCH  22  25
ENDBRANCH  21  22
ENDBRANCH   1  21
TORSDOF 7
ENDMDL
MODEL 9
REMARK VINA RESULT:      -6.7      2.718      8.515
REMARK  Name = 
REMARK  8 active torsions:
REMARK  status: ('A' for Active; 'I' for Inactive)
REMARK    1  A    between atoms: C_1  and  C_2
REMARK    2  A    between atoms: C_2  and  C_3
REMARK    3  A    between atoms: C_3  and  O_4
REMARK    4  A    between atoms: C_3  and  C_5
REMARK    5  A    between atoms: C_5  and  N_6
REMARK    6  A    between atoms: C_10  and  C_12
REMARK    7  A    between atoms: N_16  and  C_17
REMARK    8  A    between atoms: C_17  and  C_18
REMARK                            x       y       z     vdW  Elec       q    Type
REMARK                         _______ _______ _______ _____ _____    ______ ____
ROOT
ATOM      1  N   UNL     1      -0.406   9.984  20.862  0.00  0.00    +0.000 NA
ATOM      2  C   UNL     1       0.060  10.020  19.454  0.00  0.00    +0.000 C 
ATOM      3  C   UNL     1       1.497   9.503  19.240  0.00  0.00    +0.000 C 
ATOM      4  N   UNL     1       1.668   8.167  19.824  0.00  0.00    +0.000 N 
ATOM      5  C   UNL     1       2.083   7.111  19.003  0.00  0.00    +0.000 C 
ATOM      6  O   UNL     1       2.226   7.286  17.792  0.00  0.00    +0.000 OA
ATOM      7  C   UNL     1       1.200   8.051  21.207  0.00  0.00    +0.000 C 
ATOM      8  C   UNL     1      -0.224   8.611  21.377  0.00  0.00    +0.000 C 
ENDROOT
BRANCH   5   9
ATOM      9  C   UNL     1       2.330   5.813  19.616  0.00  0.00    +0.000 A 
ATOM     10  C   UNL     1       1.451   5.000  20.326  0.00  0.00    +0.000 A 
ATOM     11  C   UNL     1       2.094   3.783  20.630  0.00  0.00    +0.000 A 
ATOM     12  C   UNL     1       3.398   3.915  20.224  0.00  0.00    +0.000 A 
ATOM     13  N   UNL     1       3.559   5.167  19.670  0.00  0.00    +0.000 N 
BRANCH  13  14
ATOM     14  C   UNL     1       4.872   5.722  19.345  0.00  0.00    +0.000 C 
BRANCH  14  15
ATOM     15  C   UNL     1       5.435   5.230  18.035  0.00  0.00    +0.000 A 
ATOM     16  C   UNL     1       6.816   5.023  17.887  0.00  0.00    +0.000 A 
ATOM     17  C   UNL     1       7.330   4.473  16.710  0.00  0.00    +0.000 A 
ATOM     18  C   UNL     1       6.474   4.128  15.668  0.00  0.00    +0.000 A 
ATOM     19  C   UNL     1       5.105   4.349  15.791  0.00  0.00    +0.000 A 
ATOM     20  C   UNL     1       4.588   4.901  16.966  0.00  0.00    +0.000 A 
ENDBRANCH  14  15
ENDBRANCH  13  14
ENDBRANCH   5   9
BRANCH   1  21
ATOM     21  C   UNL     1       0.277  10.959  21.732  0.00  0.00    +0.000 C 
BRANCH  21  22
ATOM     22  C   UNL     1       0.149  12.436  21.298  0.00  0.00    +0.000 C 
BRANCH  22  24
ATOM     23  C   UNL     1      -1.645  12.273  23.077  0.00  0.00    +0.000 C 
ATOM     24  C   UNL     1      -0.996  13.155  22.018  0.00  0.00    +0.000 C 
ENDBRANCH  22  24
BRANCH  22  25
ATOM     25  O   UNL     1       1.388  13.101  21.567  0.00  0.00    +0.000 OA
ATOM     26  H   UNL     1       2.108  12.527  21.251  0.00  0.00    +0.000 HD
ENDBRANCH  22  25
ENDBRANCH  21  22
ENDBRANCH   1  21
TORSDOF 7
ENDMDL
