MODEL 1
REMARK VINA RESULT:      -8.5      0.000      0.000
REMARK  Name = 
REMARK  12 active torsions:
REMARK  status: ('A' for Active; 'I' for Inactive)
REMARK    1  A    between atoms: C_1  and  O_2
REMARK    2  A    between atoms: O_2  and  C_3
REMARK    3  A    between atoms: C_6  and  C_7
REMARK    4  A    between atoms: N_9  and  C_10
REMARK    5  A    between atoms: C_10  and  C_11
REMARK    6  A    between atoms: C_11  and  N_12
REMARK    7  A    between atoms: N_12  and  C_13
REMARK    8  A    between atoms: N_12  and  C_14
REMARK    9  A    between atoms: C_16  and  C_17
REMARK   10  A    between atoms: N_21  and  C_22
REMARK   11  A    between atoms: C_22  and  C_23
REMARK   12  A    between atoms: C_22  and  C_24
REMARK                            x       y       z     vdW  Elec       q    Type
REMARK                         _______ _______ _______ _____ _____    ______ ____
ROOT
ATOM      1  C   UNL     1       2.438   6.889  19.005  0.00  0.00    +0.000 A 
ATOM      2  C   UNL     1       2.165   8.181  18.574  0.00  0.00    +0.000 A 
ATOM      3  C   UNL     1       1.468   8.982  19.550  0.00  0.00    +0.000 A 
ATOM      4  C   UNL     1       0.843  10.253  19.484  0.00  0.00    +0.000 A 
ATOM      5  N   UNL     1       0.832  10.996  18.326  0.00  0.00    +0.000 N 
ATOM      6  N   UNL     1       0.241  10.719  20.600  0.00  0.00    +0.000 NA
ATOM      7  C   UNL     1       0.281   9.978  21.724  0.00  0.00    +0.000 A 
ATOM      8  N   UNL     1       0.809   8.761  21.883  0.00  0.00    +0.000 NA
ATOM      9  C   UNL     1       1.373   8.303  20.751  0.00  0.00    +0.000 A 
ATOM     10  S   UNL     1       2.046   6.742  20.676  0.00  0.00    +0.000 S 
ATOM     11  H   UNL     1       1.549  10.826  17.637  0.00  0.00    +0.000 HD
ENDROOT
BRANCH   1  17
ATOM     12  C   UNL     1       2.488   4.403  18.417  0.00  0.00    +0.000 A 
ATOM     13  C   UNL     1       3.081   3.356  17.703  0.00  0.00    +0.000 A 
ATOM     14  C   UNL     1       4.072   3.600  16.752  0.00  0.00    +0.000 A 
ATOM     15  C   UNL     1       4.523   4.897  16.514  0.00  0.00    +0.000 A 
ATOM     16  C   UNL     1       3.990   5.943  17.279  0.00  0.00    +0.000 A 
ATOM     17  C   UNL     1       2.957   5.732  18.230  0.00  0.00    +0.000 A 
BRANCH  15  18
ATOM     18  C   UNL     1       5.495   5.075  15.389  0.00  0.00    +0.000 C 
ATOM     19  O   UNL     1       5.941   6.186  15.147  0.00  0.00    +0.000 OA
ATOM     20  N   UNL     1       5.893   3.956  14.684  0.00  0.00    +0.000 N 
ATOM     21  H   UNL     1       5.398   3.076  14.738  0.00  0.00    +0.000 HD
BRANCH  20  22
ATOM     22  C   UNL     1       6.899   4.081  13.646  0.00  0.00    +0.000 C 
BRANCH  22  23
ATOM     23  C   UNL     1       6.342   3.900  12.221  0.00  0.00    +0.000 C 
BRANCH  23  24
ATOM     24  N   UNL     1       5.326   2.833  12.070  0.00  0.00    +0.000 NA
ATOM     25  C   UNL     1       4.173   3.297  11.291  0.00  0.00    +0.000 C 
ATOM     26  C   UNL     1       5.928   1.679  11.389  0.00  0.00    +0.000 C 
ENDBRANCH  23  24
ENDBRANCH  22  23
ENDBRANCH  20  22
ENDBRANCH  15  18
BRANCH  12  28
ATOM     27  C   UNL     1       0.757   2.950  19.148  0.00  0.00    +0.000 C 
ATOM     28  O   UNL     1       1.489   4.165  19.331  0.00  0.00    +0.000 OA
ENDBRANCH  12  28
ENDBRANCH   1  17
BRANCH   5  29
ATOM     29  C   UNL     1      -0.163  12.020  18.044  0.00  0.00    +0.000 C 
ATOM     30  C   UNL     1      -0.110  13.134  19.092  0.00  0.00    +0.000 C 
BRANCH  29  31
ATOM     31  C   UNL     1      -1.526  11.332  17.904  0.00  0.00    +0.000 A 
ATOM     32  C   UNL     1      -2.630  11.931  18.540  0.00  0.00    +0.000 A 
ATOM     33  C   UNL     1      -3.906  11.396  18.436  0.00  0.00    +0.000 A 
ATOM     34  C   UNL     1      -4.128  10.255  17.667  0.00  0.00    +0.000 A 
ATOM     35  C   UNL     1      -3.051   9.643  17.030  0.00  0.00    +0.000 A 
ATOM     36  C   UNL     1      -1.755  10.166  17.154  0.00  0.00    +0.000 A 
ENDBRANCH  29  31
ENDBRANCH   5  29
TORSDOF 8
ENDMDL
MODEL 2
REMARK VINA RESULT:      -8.3      4.143      9.270
REMARK  Name = 
REMARK  12 active torsions:
REMARK  status: ('A' for Active; 'I' for Inactive)
REMARK    1  A    between atoms: C_1  and  O_2
REMARK    2  A    between atoms: O_2  and  C_3
REMARK    3  A    between atoms: C_6  and  C_7
REMARK    4  A    between atoms: N_9  and  C_10
REMARK    5  A    between atoms: C_10  and  C_11
REMARK    6  A    between atoms: C_11  and  N_12
REMARK    7  A    between atoms: N_12  and  C_13
REMARK    8  A    between atoms: N_12  and  C_14
REMARK    9  A    between atoms: C_16  and  C_17
REMARK   10  A    between atoms: N_21  and  C_22
REMARK   11  A    between atoms: C_22  and  C_23
REMARK   12  A    between atoms: C_22  and  C_24
REMARK                            x       y       z     vdW  Elec       q    Type
REMARK                         _______ _______ _______ _____ _____    ______ ____
ROOT
ATOM      1  C   UNL     1       1.425   9.300  18.976  0.00  0.00    +0.000 A 
ATOM      2  C   UNL     1       2.046   8.439  18.080  0.00  0.00    +0.000 A 
ATOM      3  C   UNL     1       2.442   7.182  18.664  0.00  0.00    +0.000 A 
ATOM      4  C   UNL     1       3.242   6.110  18.192  0.00  0.00    +0.000 A 
ATOM      5  N   UNL     1       3.810   6.126  16.940  0.00  0.00    +0.000 N 
ATOM      6  N   UNL     1       3.444   5.062  19.021  0.00  0.00    +0.000 NA
ATOM      7  C   UNL     1       2.863   5.065  20.235  0.00  0.00    +0.000 A 
ATOM      8  N   UNL     1       2.124   6.033  20.786  0.00  0.00    +0.000 NA
ATOM      9  C   UNL     1       1.965   7.080  19.958  0.00  0.00    +0.000 A 
ATOM     10  S   UNL     1       1.127   8.474  20.458  0.00  0.00    +0.000 S 
ATOM     11  H   UNL     1       3.390   6.703  16.227  0.00  0.00    +0.000 HD
ENDROOT
BRANCH   1  17
ATOM     12  C   UNL     1      -0.286  11.170  18.657  0.00  0.00    +0.000 A 
ATOM     13  C   UNL     1      -0.544  12.525  18.421  0.00  0.00    +0.000 A 
ATOM     14  C   UNL     1       0.486  13.466  18.405  0.00  0.00    +0.000 A 
ATOM     15  C   UNL     1       1.809  13.071  18.588  0.00  0.00    +0.000 A 
ATOM     16  C   UNL     1       2.086  11.707  18.747  0.00  0.00    +0.000 A 
ATOM     17  C   UNL     1       1.058  10.729  18.802  0.00  0.00    +0.000 A 
BRANCH  15  18
ATOM     18  C   UNL     1       2.830  14.163  18.681  0.00  0.00    +0.000 C 
ATOM     19  O   UNL     1       2.868  14.871  19.674  0.00  0.00    +0.000 OA
ATOM     20  N   UNL     1       3.734  14.303  17.646  0.00  0.00    +0.000 N 
ATOM     21  H   UNL     1       3.600  13.865  16.744  0.00  0.00    +0.000 HD
BRANCH  20  22
ATOM     22  C   UNL     1       4.791  15.293  17.744  0.00  0.00    +0.000 C 
BRANCH  22  23
ATOM     23  C   UNL     1       6.197  14.682  17.900  0.00  0.00    +0.000 C 
BRANCH  23  24
ATOM     24  N   UNL     1       6.782  14.781  19.257  0.00  0.00    +0.000 NA
ATOM     25  C   UNL     1       8.226  14.524  19.238  0.00  0.00    +0.000 C 
ATOM     26  C   UNL     1       6.545  16.128  19.794  0.00  0.00    +0.000 C 
ENDBRANCH  23  24
ENDBRANCH  22  23
ENDBRANCH  20  22
ENDBRANCH  15  18
BRANCH  12  28
ATOM     27  C   UNL     1      -1.947   9.969  17.458  0.00  0.00    +0.000 C 
ATOM     28  O   UNL     1      -1.305  10.249  18.705  0.00  0.00    +0.000 OA
ENDBRANCH  12  28
ENDBRANCH   1  17
BRANCH   5  29
ATOM     29  C   UNL     1       4.989   5.349  16.587  0.00  0.00    +0.000 C 
ATOM     30  C   UNL     1       4.743   3.854  16.807  0.00  0.00    +0.000 C 
BRANCH  29  31
ATOM     31  C   UNL     1       6.184   5.924  17.357  0.00  0.00    +0.000 A 
ATOM     32  C   UNL     1       6.612   7.223  17.026  0.00  0.00    +0.000 A 
ATOM     33  C   UNL     1       7.662   7.835  17.696  0.00  0.00    +0.000 A 
ATOM     34  C   UNL     1       8.303   7.177  18.744  0.00  0.00    +0.000 A 
ATOM     35  C   UNL     1       7.899   5.889  19.089  0.00  0.00    +0.000 A 
ATOM     36  C   UNL     1       6.856   5.257  18.396  0.00  0.00    +0.000 A 
ENDBRANCH  29  31
ENDBRANCH   5  29
TORSDOF 8
ENDMDL
MODEL 3
REMARK VINA RESULT:      -8.3      1.040      2.585
REMARK  Name = 
REMARK  12 active torsions:
REMARK  status: ('A' for Active; 'I' for Inactive)
REMARK    1  A    between atoms: C_1  and  O_2
REMARK    2  A    between atoms: O_2  and  C_3
REMARK    3  A    between atoms: C_6  and  C_7
REMARK    4  A    between atoms: N_9  and  C_10
REMARK    5  A    between atoms: C_10  and  C_11
REMARK    6  A    between atoms: C_11  and  N_12
REMARK    7  A    between atoms: N_12  and  C_13
REMARK    8  A    between atoms: N_12  and  C_14
REMARK    9  A    between atoms: C_16  and  C_17
REMARK   10  A    between atoms: N_21  and  C_22
REMARK   11  A    between atoms: C_22  and  C_23
REMARK   12  A    between atoms: C_22  and  C_24
REMARK                            x       y       z     vdW  Elec       q    Type
REMARK                         _______ _______ _______ _____ _____    ______ ____
ROOT
ATOM      1  C   UNL     1       2.363   6.849  19.078  0.00  0.00    +0.000 A 
ATOM      2  C   UNL     1       2.024   8.155  18.749  0.00  0.00    +0.000 A 
ATOM      3  C   UNL     1       1.388   8.877  19.824  0.00  0.00    +0.000 A 
ATOM      4  C   UNL     1       0.727  10.130  19.884  0.00  0.00    +0.000 A 
ATOM      5  N   UNL     1       0.605  10.940  18.778  0.00  0.00    +0.000 N 
ATOM      6  N   UNL     1       0.204  10.512  21.070  0.00  0.00    +0.000 NA
ATOM      7  C   UNL     1       0.353   9.708  22.140  0.00  0.00    +0.000 A 
ATOM      8  N   UNL     1       0.922   8.500  22.183  0.00  0.00    +0.000 NA
ATOM      9  C   UNL     1       1.405   8.126  20.985  0.00  0.00    +0.000 A 
ATOM     10  S   UNL     1       2.109   6.593  20.763  0.00  0.00    +0.000 S 
ATOM     11  H   UNL     1       1.269  10.832  18.026  0.00  0.00    +0.000 HD
ENDROOT
BRANCH   1  17
ATOM     12  C   UNL     1       2.208   4.489  18.113  0.00  0.00    +0.000 A 
ATOM     13  C   UNL     1       2.771   3.485  17.317  0.00  0.00    +0.000 A 
ATOM     14  C   UNL     1       3.904   3.727  16.541  0.00  0.00    +0.000 A 
ATOM     15  C   UNL     1       4.529   4.971  16.568  0.00  0.00    +0.000 A 
ATOM     16  C   UNL     1       4.019   5.959  17.420  0.00  0.00    +0.000 A 
ATOM     17  C   UNL     1       2.848   5.755  18.197  0.00  0.00    +0.000 A 
BRANCH  15  18
ATOM     18  C   UNL     1       5.660   5.177  15.609  0.00  0.00    +0.000 C 
ATOM     19  O   UNL     1       6.506   6.025  15.845  0.00  0.00    +0.000 OA
ATOM     20  N   UNL     1       5.733   4.359  14.497  0.00  0.00    +0.000 N 
ATOM     21  H   UNL     1       4.953   3.796  14.186  0.00  0.00    +0.000 HD
BRANCH  20  22
ATOM     22  C   UNL     1       6.864   4.473  13.595  0.00  0.00    +0.000 C 
BRANCH  22  23
ATOM     23  C   UNL     1       6.584   3.925  12.182  0.00  0.00    +0.000 C 
BRANCH  23  24
ATOM     24  N   UNL     1       5.590   2.830  12.115  0.00  0.00    +0.000 NA
ATOM     25  C   UNL     1       4.373   3.252  11.411  0.00  0.00    +0.000 C 
ATOM     26  C   UNL     1       6.175   1.682  11.407  0.00  0.00    +0.000 C 
ENDBRANCH  23  24
ENDBRANCH  22  23
ENDBRANCH  20  22
ENDBRANCH  15  18
BRANCH  12  28
ATOM     27  C   UNL     1       0.887   2.914  19.303  0.00  0.00    +0.000 C 
ATOM     28  O   UNL     1       1.072   4.259  18.853  0.00  0.00    +0.000 OA
ENDBRANCH  12  28
ENDBRANCH   1  17
BRANCH   5  29
ATOM     29  C   UNL     1      -0.434  11.948  18.636  0.00  0.00    +0.000 C 
ATOM     30  C   UNL     1      -1.299  11.671  17.404  0.00  0.00    +0.000 C 
BRANCH  29  31
ATOM     31  C   UNL     1       0.238  13.327  18.653  0.00  0.00    +0.000 A 
ATOM     32  C   UNL     1       1.618  13.386  18.382  0.00  0.00    +0.000 A 
ATOM     33  C   UNL     1       2.299  14.594  18.340  0.00  0.00    +0.000 A 
ATOM     34  C   UNL     1       1.615  15.791  18.543  0.00  0.00    +0.000 A 
ATOM     35  C   UNL     1       0.250  15.759  18.816  0.00  0.00    +0.000 A 
ATOM     36  C   UNL     1      -0.438  14.538  18.885  0.00  0.00    +0.000 A 
ENDBRANCH  29  31
ENDBRANCH   5  29
TORSDOF 8
ENDMDL
MODEL 4
REMARK VINA RESULT:      -8.3      4.392      9.255
REMARK  Name = 
REMARK  12 active torsions:
REMARK  status: ('A' for Active; 'I' for Inactive)
REMARK    1  A    between atoms: C_1  and  O_2
REMARK    2  A    between atoms: O_2  and  C_3
REMARK    3  A    between atoms: C_6  and  C_7
REMARK    4  A    between atoms: N_9  and  C_10
REMARK    5  A    between atoms: C_10  and  C_11
REMARK    6  A    between atoms: C_11  and  N_12
REMARK    7  A    between atoms: N_12  and  C_13
REMARK    8  A    between atoms: N_12  and  C_14
REMARK    9  A    between atoms: C_16  and  C_17
REMARK   10  A    between atoms: N_21  and  C_22
REMARK   11  A    between atoms: C_22  and  C_23
REMARK   12  A    between atoms: C_22  and  C_24
REMARK                            x       y       z     vdW  Elec       q    Type
REMARK                         _______ _______ _______ _____ _____    ______ ____
ROOT
ATOM      1  C   UNL     1       1.383   9.577  18.900  0.00  0.00    +0.000 A 
ATOM      2  C   UNL     1       2.028   8.717  18.021  0.00  0.00    +0.000 A 
ATOM      3  C   UNL     1       2.405   7.458  18.615  0.00  0.00    +0.000 A 
ATOM      4  C   UNL     1       3.218   6.386  18.166  0.00  0.00    +0.000 A 
ATOM      5  N   UNL     1       3.822   6.401  16.930  0.00  0.00    +0.000 N 
ATOM      6  N   UNL     1       3.395   5.336  18.999  0.00  0.00    +0.000 NA
ATOM      7  C   UNL     1       2.778   5.339  20.196  0.00  0.00    +0.000 A 
ATOM      8  N   UNL     1       2.026   6.308  20.727  0.00  0.00    +0.000 NA
ATOM      9  C   UNL     1       1.892   7.356  19.895  0.00  0.00    +0.000 A 
ATOM     10  S   UNL     1       1.041   8.750  20.372  0.00  0.00    +0.000 S 
ATOM     11  H   UNL     1       3.422   6.980  16.206  0.00  0.00    +0.000 HD
ENDROOT
BRANCH   1  17
ATOM     12  C   UNL     1      -0.319  11.475  18.738  0.00  0.00    +0.000 A 
ATOM     13  C   UNL     1      -0.582  12.826  18.482  0.00  0.00    +0.000 A 
ATOM     14  C   UNL     1       0.454  13.739  18.284  0.00  0.00    +0.000 A 
ATOM     15  C   UNL     1       1.782  13.319  18.302  0.00  0.00    +0.000 A 
ATOM     16  C   UNL     1       2.052  11.956  18.480  0.00  0.00    +0.000 A 
ATOM     17  C   UNL     1       1.023  11.007  18.717  0.00  0.00    +0.000 A 
BRANCH  15  18
ATOM     18  C   UNL     1       2.826  14.388  18.207  0.00  0.00    +0.000 C 
ATOM     19  O   UNL     1       2.533  15.544  18.471  0.00  0.00    +0.000 OA
ATOM     20  N   UNL     1       4.113  14.018  17.864  0.00  0.00    +0.000 N 
ATOM     21  H   UNL     1       4.328  13.117  17.459  0.00  0.00    +0.000 HD
BRANCH  20  22
ATOM     22  C   UNL     1       5.167  15.015  17.850  0.00  0.00    +0.000 C 
BRANCH  22  23
ATOM     23  C   UNL     1       6.584  14.414  17.781  0.00  0.00    +0.000 C 
BRANCH  23  24
ATOM     24  N   UNL     1       7.688  15.400  17.748  0.00  0.00    +0.000 NA
ATOM     25  C   UNL     1       7.373  16.585  18.554  0.00  0.00    +0.000 C 
ATOM     26  C   UNL     1       8.913  14.780  18.272  0.00  0.00    +0.000 C 
ENDBRANCH  23  24
ENDBRANCH  22  23
ENDBRANCH  20  22
ENDBRANCH  15  18
BRANCH  12  28
ATOM     27  C   UNL     1      -2.162  10.279  17.834  0.00  0.00    +0.000 C 
ATOM     28  O   UNL     1      -1.339  10.582  18.965  0.00  0.00    +0.000 OA
ENDBRANCH  12  28
ENDBRANCH   1  17
BRANCH   5  29
ATOM     29  C   UNL     1       5.009   5.623  16.611  0.00  0.00    +0.000 C 
ATOM     30  C   UNL     1       4.770   4.134  16.870  0.00  0.00    +0.000 C 
BRANCH  29  31
ATOM     31  C   UNL     1       6.192   6.228  17.377  0.00  0.00    +0.000 A 
ATOM     32  C   UNL     1       6.832   5.420  18.336  0.00  0.00    +0.000 A 
ATOM     33  C   UNL     1       7.933   5.874  19.049  0.00  0.00    +0.000 A 
ATOM     34  C   UNL     1       8.450   7.145  18.806  0.00  0.00    +0.000 A 
ATOM     35  C   UNL     1       7.833   7.963  17.864  0.00  0.00    +0.000 A 
ATOM     36  C   UNL     1       6.704   7.519  17.159  0.00  0.00    +0.000 A 
ENDBRANCH  29  31
ENDBRANCH   5  29
TORSDOF 8
ENDMDL
MODEL 5
REMARK VINA RESULT:      -8.2      4.068      9.317
REMARK  Name = 
REMARK  12 active torsions:
REMARK  status: ('A' for Active; 'I' for Inactive)
REMARK    1  A    between atoms: C_1  and  O_2
REMARK    2  A    between atoms: O_2  and  C_3
REMARK    3  A    between atoms: C_6  and  C_7
REMARK    4  A    between atoms: N_9  and  C_10
REMARK    5  A    between atoms: C_10  and  C_11
REMARK    6  A    between atoms: C_11  and  N_12
REMARK    7  A    between atoms: N_12  and  C_13
REMARK    8  A    between atoms: N_12  and  C_14
REMARK    9  A    between atoms: C_16  and  C_17
REMARK   10  A    between atoms: N_21  and  C_22
REMARK   11  A    between atoms: C_22  and  C_23
REMARK   12  A    between atoms: C_22  and  C_24
REMARK                            x       y       z     vdW  Elec       q    Type
REMARK                         _______ _______ _______ _____ _____    ______ ____
ROOT
ATOM      1  C   UNL     1       1.606   9.306  18.798  0.00  0.00    +0.000 A 
ATOM      2  C   UNL     1       2.499   8.597  18.005  0.00  0.00    +0.000 A 
ATOM      3  C   UNL     1       2.875   7.319  18.556  0.00  0.00    +0.000 A 
ATOM      4  C   UNL     1       3.866   6.370  18.199  0.00  0.00    +0.000 A 
ATOM      5  N   UNL     1       4.701   6.564  17.123  0.00  0.00    +0.000 N 
ATOM      6  N   UNL     1       3.978   5.258  18.958  0.00  0.00    +0.000 NA
ATOM      7  C   UNL     1       3.137   5.086  19.995  0.00  0.00    +0.000 A 
ATOM      8  N   UNL     1       2.198   5.929  20.436  0.00  0.00    +0.000 NA
ATOM      9  C   UNL     1       2.127   7.043  19.686  0.00  0.00    +0.000 A 
ATOM     10  S   UNL     1       1.061   8.305  20.090  0.00  0.00    +0.000 S 
ATOM     11  H   UNL     1       4.399   7.179  16.382  0.00  0.00    +0.000 HD
ENDROOT
BRANCH   1  17
ATOM     12  C   UNL     1      -0.229  11.077  18.635  0.00  0.00    +0.000 A 
ATOM     13  C   UNL     1      -0.582  12.416  18.431  0.00  0.00    +0.000 A 
ATOM     14  C   UNL     1       0.389  13.413  18.335  0.00  0.00    +0.000 A 
ATOM     15  C   UNL     1       1.743  13.094  18.405  0.00  0.00    +0.000 A 
ATOM     16  C   UNL     1       2.108  11.747  18.532  0.00  0.00    +0.000 A 
ATOM     17  C   UNL     1       1.145  10.713  18.666  0.00  0.00    +0.000 A 
BRANCH  15  18
ATOM     18  C   UNL     1       2.704  14.241  18.421  0.00  0.00    +0.000 C 
ATOM     19  O   UNL     1       2.406  15.272  19.004  0.00  0.00    +0.000 OA
ATOM     20  N   UNL     1       3.931  14.076  17.806  0.00  0.00    +0.000 N 
ATOM     21  H   UNL     1       4.117  13.319  17.162  0.00  0.00    +0.000 HD
BRANCH  20  22
ATOM     22  C   UNL     1       4.919  15.136  17.878  0.00  0.00    +0.000 C 
BRANCH  22  23
ATOM     23  C   UNL     1       6.373  14.629  17.833  0.00  0.00    +0.000 C 
BRANCH  23  24
ATOM     24  N   UNL     1       7.329  15.372  18.685  0.00  0.00    +0.000 NA
ATOM     25  C   UNL     1       7.855  14.529  19.764  0.00  0.00    +0.000 C 
ATOM     26  C   UNL     1       8.451  15.846  17.862  0.00  0.00    +0.000 C 
ENDBRANCH  23  24
ENDBRANCH  22  23
ENDBRANCH  20  22
ENDBRANCH  15  18
BRANCH  12  28
ATOM     27  C   UNL     1      -2.073   9.952  17.648  0.00  0.00    +0.000 C 
ATOM     28  O   UNL     1      -1.187  10.099  18.761  0.00  0.00    +0.000 OA
ENDBRANCH  12  28
ENDBRANCH   1  17
BRANCH   5  29
ATOM     29  C   UNL     1       6.002   5.924  16.995  0.00  0.00    +0.000 C 
ATOM     30  C   UNL     1       7.130   6.923  17.266  0.00  0.00    +0.000 C 
BRANCH  29  31
ATOM     31  C   UNL     1       6.062   5.242  15.623  0.00  0.00    +0.000 A 
ATOM     32  C   UNL     1       7.240   5.396  14.867  0.00  0.00    +0.000 A 
ATOM     33  C   UNL     1       7.394   4.783  13.631  0.00  0.00    +0.000 A 
ATOM     34  C   UNL     1       6.384   3.971  13.120  0.00  0.00    +0.000 A 
ATOM     35  C   UNL     1       5.209   3.805  13.849  0.00  0.00    +0.000 A 
ATOM     36  C   UNL     1       5.038   4.443  15.086  0.00  0.00    +0.000 A 
ENDBRANCH  29  31
ENDBRANCH   5  29
TORSDOF 8
ENDMDL
MODEL 6
REMARK VINA RESULT:      -8.0      4.042      9.376
REMARK  Name = 
REMARK  12 active torsions:
REMARK  status: ('A' for Active; 'I' for Inactive)
REMARK    1  A    between atoms: C_1  and  O_2
REMARK    2  A    between atoms: O_2  and  C_3
REMARK    3  A    between atoms: C_6  and  C_7
REMARK    4  A    between atoms: N_9  and  C_10
REMARK    5  A    between atoms: C_10  and  C_11
REMARK    6  A    between atoms: C_11  and  N_12
REMARK    7  A    between atoms: N_12  and  C_13
REMARK    8  A    between atoms: N_12  and  C_14
REMARK    9  A    between atoms: C_16  and  C_17
REMARK   10  A    between atoms: N_21  and  C_22
REMARK   11  A    between atoms: C_22  and  C_23
REMARK   12  A    between atoms: C_22  and  C_24
REMARK                            x       y       z     vdW  Elec       q    Type
REMARK                         _______ _______ _______ _____ _____    ______ ____
ROOT
ATOM      1  C   UNL     1       1.578   9.301  18.773  0.00  0.00    +0.000 A 
ATOM      2  C   UNL     1       2.519   8.618  18.013  0.00  0.00    +0.000 A 
ATOM      3  C   UNL     1       2.895   7.341  18.568  0.00  0.00    +0.000 A 
ATOM      4  C   UNL     1       3.919   6.414  18.245  0.00  0.00    +0.000 A 
ATOM      5  N   UNL     1       4.797   6.635  17.209  0.00  0.00    +0.000 N 
ATOM      6  N   UNL     1       4.019   5.297  18.998  0.00  0.00    +0.000 NA
ATOM      7  C   UNL     1       3.136   5.097  19.995  0.00  0.00    +0.000 A 
ATOM      8  N   UNL     1       2.163   5.918  20.402  0.00  0.00    +0.000 NA
ATOM      9  C   UNL     1       2.104   7.038  19.661  0.00  0.00    +0.000 A 
ATOM     10  S   UNL     1       0.997   8.276  20.030  0.00  0.00    +0.000 S 
ATOM     11  H   UNL     1       4.515   7.253  16.462  0.00  0.00    +0.000 HD
ENDROOT
BRANCH   1  17
ATOM     12  C   UNL     1      -0.282  11.044  18.598  0.00  0.00    +0.000 A 
ATOM     13  C   UNL     1      -0.654  12.376  18.388  0.00  0.00    +0.000 A 
ATOM     14  C   UNL     1       0.301  13.388  18.292  0.00  0.00    +0.000 A 
ATOM     15  C   UNL     1       1.660  13.089  18.367  0.00  0.00    +0.000 A 
ATOM     16  C   UNL     1       2.045  11.748  18.500  0.00  0.00    +0.000 A 
ATOM     17  C   UNL     1       1.097  10.700  18.634  0.00  0.00    +0.000 A 
BRANCH  15  18
ATOM     18  C   UNL     1       2.604  14.251  18.382  0.00  0.00    +0.000 C 
ATOM     19  O   UNL     1       2.290  15.277  18.964  0.00  0.00    +0.000 OA
ATOM     20  N   UNL     1       3.833  14.103  17.767  0.00  0.00    +0.000 N 
ATOM     21  H   UNL     1       4.031  13.349  17.124  0.00  0.00    +0.000 HD
BRANCH  20  22
ATOM     22  C   UNL     1       4.805  15.178  17.838  0.00  0.00    +0.000 C 
BRANCH  22  23
ATOM     23  C   UNL     1       6.265  14.688  17.882  0.00  0.00    +0.000 C 
BRANCH  23  24
ATOM     24  N   UNL     1       7.199  15.551  18.641  0.00  0.00    +0.000 NA
ATOM     25  C   UNL     1       8.463  15.738  17.920  0.00  0.00    +0.000 C 
ATOM     26  C   UNL     1       6.579  16.864  18.864  0.00  0.00    +0.000 C 
ENDBRANCH  23  24
ENDBRANCH  22  23
ENDBRANCH  20  22
ENDBRANCH  15  18
BRANCH  12  28
ATOM     27  C   UNL     1      -2.173   9.958  17.658  0.00  0.00    +0.000 C 
ATOM     28  O   UNL     1      -1.225  10.052  18.725  0.00  0.00    +0.000 OA
ENDBRANCH  12  28
ENDBRANCH   1  17
BRANCH   5  29
ATOM     29  C   UNL     1       6.114   6.021  17.133  0.00  0.00    +0.000 C 
ATOM     30  C   UNL     1       7.213   7.054  17.394  0.00  0.00    +0.000 C 
BRANCH  29  31
ATOM     31  C   UNL     1       6.221   5.294  15.787  0.00  0.00    +0.000 A 
ATOM     32  C   UNL     1       5.137   4.489  15.390  0.00  0.00    +0.000 A 
ATOM     33  C   UNL     1       5.134   3.825  14.171  0.00  0.00    +0.000 A 
ATOM     34  C   UNL     1       6.206   3.966  13.293  0.00  0.00    +0.000 A 
ATOM     35  C   UNL     1       7.292   4.756  13.664  0.00  0.00    +0.000 A 
ATOM     36  C   UNL     1       7.311   5.408  14.906  0.00  0.00    +0.000 A 
ENDBRANCH  29  31
ENDBRANCH   5  29
TORSDOF 8
ENDMDL
MODEL 7
REMARK VINA RESULT:      -7.9      4.048      9.407
REMARK  Name = 
REMARK  12 active torsions:
REMARK  status: ('A' for Active; 'I' for Inactive)
REMARK    1  A    between atoms: C_1  and  O_2
REMARK    2  A    between atoms: O_2  and  C_3
REMARK    3  A    between atoms: C_6  and  C_7
REMARK    4  A    between atoms: N_9  and  C_10
REMARK    5  A    between atoms: C_10  and  C_11
REMARK    6  A    between atoms: C_11  and  N_12
REMARK    7  A    between atoms: N_12  and  C_13
REMARK    8  A    between atoms: N_12  and  C_14
REMARK    9  A    between atoms: C_16  and  C_17
REMARK   10  A    between atoms: N_21  and  C_22
REMARK   11  A    between atoms: C_22  and  C_23
REMARK   12  A    between atoms: C_22  and  C_24
REMARK                            x       y       z     vdW  Elec       q    Type
REMARK                         _______ _______ _______ _____ _____    ______ ____
ROOT
ATOM      1  C   UNL     1       1.261   9.353  18.970  0.00  0.00    +0.000 A 
ATOM      2  C   UNL     1       1.930   8.538  18.066  0.00  0.00    +0.000 A 
ATOM      3  C   UNL     1       2.404   7.303  18.641  0.00  0.00    +0.000 A 
ATOM      4  C   UNL     1       3.267   6.286  18.160  0.00  0.00    +0.000 A 
ATOM      5  N   UNL     1       3.827   6.344  16.905  0.00  0.00    +0.000 N 
ATOM      6  N   UNL     1       3.536   5.246  18.981  0.00  0.00    +0.000 NA
ATOM      7  C   UNL     1       2.960   5.206  20.197  0.00  0.00    +0.000 A 
ATOM      8  N   UNL     1       2.166   6.124  20.757  0.00  0.00    +0.000 NA
ATOM      9  C   UNL     1       1.940   7.164  19.936  0.00  0.00    +0.000 A 
ATOM     10  S   UNL     1       1.020   8.501  20.448  0.00  0.00    +0.000 S 
ATOM     11  H   UNL     1       3.369   6.898  16.197  0.00  0.00    +0.000 HD
ENDROOT
BRANCH   1  17
ATOM     12  C   UNL     1      -0.533  11.105  18.478  0.00  0.00    +0.000 A 
ATOM     13  C   UNL     1      -0.865  12.447  18.266  0.00  0.00    +0.000 A 
ATOM     14  C   UNL     1       0.074  13.462  18.451  0.00  0.00    +0.000 A 
ATOM     15  C   UNL     1       1.383  13.159  18.817  0.00  0.00    +0.000 A 
ATOM     16  C   UNL     1       1.746  11.812  18.955  0.00  0.00    +0.000 A 
ATOM     17  C   UNL     1       0.806  10.759  18.807  0.00  0.00    +0.000 A 
BRANCH  15  18
ATOM     18  C   UNL     1       2.284  14.317  19.114  0.00  0.00    +0.000 C 
ATOM     19  O   UNL     1       2.088  15.391  18.568  0.00  0.00    +0.000 OA
ATOM     20  N   UNL     1       3.293  14.140  20.043  0.00  0.00    +0.000 N 
ATOM     21  H   UNL     1       3.590  13.225  20.353  0.00  0.00    +0.000 HD
BRANCH  20  22
ATOM     22  C   UNL     1       4.127  15.266  20.419  0.00  0.00    +0.000 C 
BRANCH  22  23
ATOM     23  C   UNL     1       5.598  15.117  19.983  0.00  0.00    +0.000 C 
BRANCH  23  24
ATOM     24  N   UNL     1       5.912  15.638  18.633  0.00  0.00    +0.000 NA
ATOM     25  C   UNL     1       6.995  16.627  18.678  0.00  0.00    +0.000 C 
ATOM     26  C   UNL     1       6.320  14.525  17.764  0.00  0.00    +0.000 C 
ENDBRANCH  23  24
ENDBRANCH  22  23
ENDBRANCH  20  22
ENDBRANCH  15  18
BRANCH  12  28
ATOM     27  C   UNL     1      -2.129  10.064  17.060  0.00  0.00    +0.000 C 
ATOM     28  O   UNL     1      -1.467  10.107  18.327  0.00  0.00    +0.000 OA
ENDBRANCH  12  28
ENDBRANCH   1  17
BRANCH   5  29
ATOM     29  C   UNL     1       5.050   5.643  16.543  0.00  0.00    +0.000 C 
ATOM     30  C   UNL     1       4.888   4.132  16.730  0.00  0.00    +0.000 C 
BRANCH  29  31
ATOM     31  C   UNL     1       6.207   6.268  17.331  0.00  0.00    +0.000 A 
ATOM     32  C   UNL     1       6.858   5.465  18.286  0.00  0.00    +0.000 A 
ATOM     33  C   UNL     1       7.937   5.938  19.019  0.00  0.00    +0.000 A 
ATOM     34  C   UNL     1       8.421   7.227  18.802  0.00  0.00    +0.000 A 
ATOM     35  C   UNL     1       7.792   8.042  17.864  0.00  0.00    +0.000 A 
ATOM     36  C   UNL     1       6.685   7.577  17.139  0.00  0.00    +0.000 A 
ENDBRANCH  29  31
ENDBRANCH   5  29
TORSDOF 8
ENDMDL
MODEL 8
REMARK VINA RESULT:      -7.8      3.996      9.857
REMARK  Name = 
REMARK  12 active torsions:
REMARK  status: ('A' for Active; 'I' for Inactive)
REMARK    1  A    between atoms: C_1  and  O_2
REMARK    2  A    between atoms: O_2  and  C_3
REMARK    3  A    between atoms: C_6  and  C_7
REMARK    4  A    between atoms: N_9  and  C_10
REMARK    5  A    between atoms: C_10  and  C_11
REMARK    6  A    between atoms: C_11  and  N_12
REMARK    7  A    between atoms: N_12  and  C_13
REMARK    8  A    between atoms: N_12  and  C_14
REMARK    9  A    between atoms: C_16  and  C_17
REMARK   10  A    between atoms: N_21  and  C_22
REMARK   11  A    between atoms: C_22  and  C_23
REMARK   12  A    between atoms: C_22  and  C_24
REMARK                            x       y       z     vdW  Elec       q    Type
REMARK                         _______ _______ _______ _____ _____    ______ ____
ROOT
ATOM      1  C   UNL     1       1.430   9.342  18.903  0.00  0.00    +0.000 A 
ATOM      2  C   UNL     1       2.074   8.502  18.004  0.00  0.00    +0.000 A 
ATOM      3  C   UNL     1       2.494   7.250  18.581  0.00  0.00    +0.000 A 
ATOM      4  C   UNL     1       3.321   6.199  18.106  0.00  0.00    +0.000 A 
ATOM      5  N   UNL     1       3.894   6.236  16.856  0.00  0.00    +0.000 N 
ATOM      6  N   UNL     1       3.542   5.150  18.928  0.00  0.00    +0.000 NA
ATOM      7  C   UNL     1       2.955   5.132  20.140  0.00  0.00    +0.000 A 
ATOM      8  N   UNL     1       2.193   6.079  20.694  0.00  0.00    +0.000 NA
ATOM      9  C   UNL     1       2.014   7.128  19.872  0.00  0.00    +0.000 A 
ATOM     10  S   UNL     1       1.144   8.500  20.378  0.00  0.00    +0.000 S 
ATOM     11  H   UNL     1       3.464   6.808  16.145  0.00  0.00    +0.000 HD
ENDROOT
BRANCH   1  17
ATOM     12  C   UNL     1      -0.322  11.179  18.611  0.00  0.00    +0.000 A 
ATOM     13  C   UNL     1      -0.611  12.529  18.382  0.00  0.00    +0.000 A 
ATOM     14  C   UNL     1       0.400  13.490  18.354  0.00  0.00    +0.000 A 
ATOM     15  C   UNL     1       1.733  13.122  18.519  0.00  0.00    +0.000 A 
ATOM     16  C   UNL     1       2.039  11.763  18.672  0.00  0.00    +0.000 A 
ATOM     17  C   UNL     1       1.032  10.765  18.738  0.00  0.00    +0.000 A 
BRANCH  15  18
ATOM     18  C   UNL     1       2.733  14.233  18.601  0.00  0.00    +0.000 C 
ATOM     19  O   UNL     1       3.874  14.049  18.208  0.00  0.00    +0.000 OA
ATOM     20  N   UNL     1       2.312  15.458  19.083  0.00  0.00    +0.000 N 
ATOM     21  H   UNL     1       1.443  15.573  19.587  0.00  0.00    +0.000 HD
BRANCH  20  22
ATOM     22  C   UNL     1       3.232  16.580  19.094  0.00  0.00    +0.000 C 
BRANCH  22  23
ATOM     23  C   UNL     1       3.978  16.754  20.431  0.00  0.00    +0.000 C 
BRANCH  23  24
ATOM     24  N   UNL     1       5.408  17.119  20.313  0.00  0.00    +0.000 NA
ATOM     25  C   UNL     1       5.880  17.002  18.929  0.00  0.00    +0.000 C 
ATOM     26  C   UNL     1       5.598  18.504  20.765  0.00  0.00    +0.000 C 
ENDBRANCH  23  24
ENDBRANCH  22  23
ENDBRANCH  20  22
ENDBRANCH  15  18
BRANCH  12  28
ATOM     27  C   UNL     1      -2.541  10.584  18.009  0.00  0.00    +0.000 C 
ATOM     28  O   UNL     1      -1.322  10.237  18.670  0.00  0.00    +0.000 OA
ENDBRANCH  12  28
ENDBRANCH   1  17
BRANCH   5  29
ATOM     29  C   UNL     1       5.091   5.488  16.504  0.00  0.00    +0.000 C 
ATOM     30  C   UNL     1       4.865   3.984  16.679  0.00  0.00    +0.000 C 
BRANCH  29  31
ATOM     31  C   UNL     1       6.263   6.060  17.310  0.00  0.00    +0.000 A 
ATOM     32  C   UNL     1       6.683   7.370  17.014  0.00  0.00    +0.000 A 
ATOM     33  C   UNL     1       7.711   7.980  17.719  0.00  0.00    +0.000 A 
ATOM     34  C   UNL     1       8.338   7.308  18.767  0.00  0.00    +0.000 A 
ATOM     35  C   UNL     1       7.941   6.010  19.078  0.00  0.00    +0.000 A 
ATOM     36  C   UNL     1       6.920   5.380  18.351  0.00  0.00    +0.000 A 
ENDBRANCH  29  31
ENDBRANCH   5  29
TORSDOF 8
ENDMDL
MODEL 9
REMARK VINA RESULT:      -7.7      3.724     10.042
REMARK  Name = 
REMARK  12 active torsions:
REMARK  status: ('A' for Active; 'I' for Inactive)
REMARK    1  A    between atoms: C_1  and  O_2
REMARK    2  A    between atoms: O_2  and  C_3
REMARK    3  A    between atoms: C_6  and  C_7
REMARK    4  A    between atoms: N_9  and  C_10
REMARK    5  A    between atoms: C_10  and  C_11
REMARK    6  A    between atoms: C_11  and  N_12
REMARK    7  A    between atoms: N_12  and  C_13
REMARK    8  A    between atoms: N_12  and  C_14
REMARK    9  A    between atoms: C_16  and  C_17
REMARK   10  A    between atoms: N_21  and  C_22
REMARK   11  A    between atoms: C_22  and  C_23
REMARK   12  A    between atoms: C_22  and  C_24
REMARK                            x       y       z     vdW  Elec       q    Type
REMARK                         _______ _______ _______ _____ _____    ______ ____
ROOT
ATOM      1  C   UNL     1       1.476   9.286  18.826  0.00  0.00    +0.000 A 
ATOM      2  C   UNL     1       2.150   8.498  17.902  0.00  0.00    +0.000 A 
ATOM      3  C   UNL     1       2.595   7.234  18.435  0.00  0.00    +0.000 A 
ATOM      4  C   UNL     1       3.452   6.223  17.929  0.00  0.00    +0.000 A 
ATOM      5  N   UNL     1       4.038   6.324  16.688  0.00  0.00    +0.000 N 
ATOM      6  N   UNL     1       3.690   5.148  18.712  0.00  0.00    +0.000 NA
ATOM      7  C   UNL     1       3.090   5.067  19.914  0.00  0.00    +0.000 A 
ATOM      8  N   UNL     1       2.298   5.974  20.496  0.00  0.00    +0.000 NA
ATOM      9  C   UNL     1       2.103   7.050  19.714  0.00  0.00    +0.000 A 
ATOM     10  S   UNL     1       1.193   8.378  20.262  0.00  0.00    +0.000 S 
ATOM     11  H   UNL     1       3.603   6.913  15.995  0.00  0.00    +0.000 HD
ENDROOT
BRANCH   1  17
ATOM     12  C   UNL     1      -0.321  11.098  18.700  0.00  0.00    +0.000 A 
ATOM     13  C   UNL     1      -0.647  12.446  18.513  0.00  0.00    +0.000 A 
ATOM     14  C   UNL     1       0.344  13.423  18.416  0.00  0.00    +0.000 A 
ATOM     15  C   UNL     1       1.692  13.074  18.468  0.00  0.00    +0.000 A 
ATOM     16  C   UNL     1       2.029  11.718  18.578  0.00  0.00    +0.000 A 
ATOM     17  C   UNL     1       1.045  10.704  18.712  0.00  0.00    +0.000 A 
BRANCH  15  18
ATOM     18  C   UNL     1       2.678  14.200  18.484  0.00  0.00    +0.000 C 
ATOM     19  O   UNL     1       3.839  13.990  18.166  0.00  0.00    +0.000 OA
ATOM     20  N   UNL     1       2.226  15.462  18.819  0.00  0.00    +0.000 N 
ATOM     21  H   UNL     1       1.333  15.617  19.266  0.00  0.00    +0.000 HD
BRANCH  20  22
ATOM     22  C   UNL     1       3.137  16.590  18.758  0.00  0.00    +0.000 C 
BRANCH  22  23
ATOM     23  C   UNL     1       3.164  17.431  20.049  0.00  0.00    +0.000 C 
BRANCH  23  24
ATOM     24  N   UNL     1       1.967  17.305  20.911  0.00  0.00    +0.000 NA
ATOM     25  C   UNL     1       2.307  16.737  22.221  0.00  0.00    +0.000 C 
ATOM     26  C   UNL     1       1.366  18.631  21.109  0.00  0.00    +0.000 C 
ENDBRANCH  23  24
ENDBRANCH  22  23
ENDBRANCH  20  22
ENDBRANCH  15  18
BRANCH  12  28
ATOM     27  C   UNL     1      -2.155   9.974  17.694  0.00  0.00    +0.000 C 
ATOM     28  O   UNL     1      -1.298  10.140  18.827  0.00  0.00    +0.000 OA
ENDBRANCH  12  28
ENDBRANCH   1  17
BRANCH   5  29
ATOM     29  C   UNL     1       5.258   5.619  16.321  0.00  0.00    +0.000 C 
ATOM     30  C   UNL     1       5.042   4.104  16.354  0.00  0.00    +0.000 C 
BRANCH  29  31
ATOM     31  C   UNL     1       6.389   6.128  17.223  0.00  0.00    +0.000 A 
ATOM     32  C   UNL     1       6.845   7.444  17.022  0.00  0.00    +0.000 A 
ATOM     33  C   UNL     1       7.839   7.998  17.816  0.00  0.00    +0.000 A 
ATOM     34  C   UNL     1       8.394   7.261  18.860  0.00  0.00    +0.000 A 
ATOM     35  C   UNL     1       7.962   5.955  19.077  0.00  0.00    +0.000 A 
ATOM     36  C   UNL     1       6.975   5.382  18.261  0.00  0.00    +0.000 A 
ENDBRANCH  29  31
ENDBRANCH   5  29
TORSDOF 8
ENDMDL
