MODEL 1
REMARK VINA RESULT:      -9.0      0.000      0.000
REMARK  Name = 
REMARK  9 active torsions:
REMARK  status: ('A' for Active; 'I' for Inactive)
REMARK    1  A    between atoms: C_1  and  O_2
REMARK    2  A    between atoms: O_2  and  C_3
REMARK    3  A    between atoms: C_6  and  C_7
REMARK    4  A    between atoms: C_7  and  N_8
REMARK    5  A    between atoms: C_14  and  C_15
REMARK    6  A    between atoms: C_15  and  C_16
REMARK    7  A    between atoms: N_18  and  C_19
REMARK    8  A    between atoms: C_19  and  C_20
REMARK    9  A    between atoms: C_24  and  C_25
REMARK                            x       y       z     vdW  Elec       q    Type
REMARK                         _______ _______ _______ _____ _____    ______ ____
ROOT
ATOM      1  N   UNL     1       2.932   4.179  17.900  0.00  0.00    +0.000 NA
ATOM      2  C   UNL     1       2.137   2.935  17.886  0.00  0.00    +0.000 C 
ATOM      3  C   UNL     1       1.673   2.465  19.271  0.00  0.00    +0.000 C 
ATOM      4  N   UNL     1       1.102   3.529  20.062  0.00  0.00    +0.000 N 
ATOM      5  C   UNL     1       1.638   4.788  20.013  0.00  0.00    +0.000 C 
ATOM      6  O   UNL     1       1.537   5.506  21.008  0.00  0.00    +0.000 OA
ATOM      7  C   UNL     1       2.218   5.266  18.655  0.00  0.00    +0.000 C 
ATOM      8  H   UNL     1       0.717   3.295  20.969  0.00  0.00    +0.000 HD
ENDROOT
BRANCH   1   9
ATOM      9  C   UNL     1       4.333   3.956  18.292  0.00  0.00    +0.000 C 
BRANCH   9  13
ATOM     10  C   UNL     1       7.034   5.049  15.087  0.00  0.00    +0.000 A 
ATOM     11  C   UNL     1       6.086   4.046  14.884  0.00  0.00    +0.000 A 
ATOM     12  C   UNL     1       5.235   3.659  15.928  0.00  0.00    +0.000 A 
ATOM     13  C   UNL     1       5.329   4.260  17.194  0.00  0.00    +0.000 A 
ATOM     14  C   UNL     1       6.290   5.253  17.378  0.00  0.00    +0.000 A 
ATOM     15  F   UNL     1       6.383   5.878  18.561  0.00  0.00    +0.000 F 
ATOM     16  C   UNL     1       7.143   5.639  16.348  0.00  0.00    +0.000 A 
BRANCH  10  18
ATOM     17  C   UNL     1       7.708   5.088  12.812  0.00  0.00    +0.000 C 
ATOM     18  O   UNL     1       7.907   5.527  14.152  0.00  0.00    +0.000 OA
ENDBRANCH  10  18
ENDBRANCH   9  13
ENDBRANCH   1   9
BRANCH   7  19
ATOM     19  C   UNL     1       3.095   6.510  18.834  0.00  0.00    +0.000 C 
BRANCH  19  20
ATOM     20  C   UNL     1       2.599   7.765  18.160  0.00  0.00    +0.000 C 
ATOM     21  O   UNL     1       3.102   8.199  17.128  0.00  0.00    +0.000 OA
ATOM     22  N   UNL     1       1.610   8.402  18.872  0.00  0.00    +0.000 N 
ATOM     23  H   UNL     1       0.916   7.776  19.276  0.00  0.00    +0.000 HD
BRANCH  22  24
ATOM     24  C   UNL     1       1.153   9.692  18.444  0.00  0.00    +0.000 C 
BRANCH  24  25
ATOM     25  C   UNL     1       0.450  10.434  19.529  0.00  0.00    +0.000 A 
ATOM     26  C   UNL     1       0.897  10.783  20.791  0.00  0.00    +0.000 A 
ATOM     27  N   UNL     1      -0.141  11.400  21.413  0.00  0.00    +0.000 N 
ATOM     28  N   UNL     1      -1.241  11.490  20.658  0.00  0.00    +0.000 NA
ATOM     29  C   UNL     1      -0.907  10.917  19.489  0.00  0.00    +0.000 A 
ATOM     30  H   UNL     1      -0.175  11.773  22.355  0.00  0.00    +0.000 HD
BRANCH  29  31
ATOM     31  C   UNL     1      -1.889  10.800  18.403  0.00  0.00    +0.000 A 
ATOM     32  C   UNL     1      -3.080  11.540  18.398  0.00  0.00    +0.000 A 
ATOM     33  C   UNL     1      -3.962  11.487  17.315  0.00  0.00    +0.000 A 
ATOM     34  C   UNL     1      -3.683  10.656  16.240  0.00  0.00    +0.000 A 
ATOM     35  C   UNL     1      -2.535   9.873  16.246  0.00  0.00    +0.000 A 
ATOM     36  C   UNL     1      -1.641   9.948  17.318  0.00  0.00    +0.000 A 
ENDBRANCH  29  31
ENDBRANCH  24  25
ENDBRANCH  22  24
ENDBRANCH  19  20
ENDBRANCH   7  19
TORSDOF 8
ENDMDL
MODEL 2
REMARK VINA RESULT:      -8.9      2.287      2.882
REMARK  Name = 
REMARK  9 active torsions:
REMARK  status: ('A' for Active; 'I' for Inactive)
REMARK    1  A    between atoms: C_1  and  O_2
REMARK    2  A    between atoms: O_2  and  C_3
REMARK    3  A    between atoms: C_6  and  C_7
REMARK    4  A    between atoms: C_7  and  N_8
REMARK    5  A    between atoms: C_14  and  C_15
REMARK    6  A    between atoms: C_15  and  C_16
REMARK    7  A    between atoms: N_18  and  C_19
REMARK    8  A    between atoms: C_19  and  C_20
REMARK    9  A    between atoms: C_24  and  C_25
REMARK                            x       y       z     vdW  Elec       q    Type
REMARK                         _______ _______ _______ _____ _____    ______ ____
ROOT
ATOM      1  N   UNL     1       3.030   4.295  18.193  0.00  0.00    +0.000 NA
ATOM      2  C   UNL     1       2.727   3.190  17.259  0.00  0.00    +0.000 C 
ATOM      3  C   UNL     1       2.343   1.872  17.943  0.00  0.00    +0.000 C 
ATOM      4  N   UNL     1       1.369   2.048  18.994  0.00  0.00    +0.000 N 
ATOM      5  C   UNL     1       1.429   3.144  19.813  0.00  0.00    +0.000 C 
ATOM      6  O   UNL     1       0.997   3.040  20.961  0.00  0.00    +0.000 OA
ATOM      7  C   UNL     1       1.917   4.478  19.188  0.00  0.00    +0.000 C 
ATOM      8  H   UNL     1       1.015   1.221  19.460  0.00  0.00    +0.000 HD
ENDROOT
BRANCH   1   9
ATOM      9  C   UNL     1       4.380   4.200  18.769  0.00  0.00    +0.000 C 
BRANCH   9  13
ATOM     10  C   UNL     1       7.078   7.284  17.363  0.00  0.00    +0.000 A 
ATOM     11  C   UNL     1       5.884   7.043  16.683  0.00  0.00    +0.000 A 
ATOM     12  C   UNL     1       5.024   6.021  17.107  0.00  0.00    +0.000 A 
ATOM     13  C   UNL     1       5.353   5.216  18.210  0.00  0.00    +0.000 A 
ATOM     14  C   UNL     1       6.556   5.467  18.870  0.00  0.00    +0.000 A 
ATOM     15  F   UNL     1       6.885   4.746  19.952  0.00  0.00    +0.000 F 
ATOM     16  C   UNL     1       7.417   6.477  18.450  0.00  0.00    +0.000 A 
BRANCH  10  18
ATOM     17  C   UNL     1       8.336   9.151  18.114  0.00  0.00    +0.000 C 
ATOM     18  O   UNL     1       7.990   8.256  17.062  0.00  0.00    +0.000 OA
ENDBRANCH  10  18
ENDBRANCH   9  13
ENDBRANCH   1   9
BRANCH   7  19
ATOM     19  C   UNL     1       2.282   5.498  20.272  0.00  0.00    +0.000 C 
BRANCH  19  20
ATOM     20  C   UNL     1       2.025   6.943  19.925  0.00  0.00    +0.000 C 
ATOM     21  O   UNL     1       2.312   7.418  18.830  0.00  0.00    +0.000 OA
ATOM     22  N   UNL     1       1.538   7.671  20.986  0.00  0.00    +0.000 N 
ATOM     23  H   UNL     1       0.834   7.186  21.539  0.00  0.00    +0.000 HD
BRANCH  22  24
ATOM     24  C   UNL     1       1.400   9.094  20.860  0.00  0.00    +0.000 C 
BRANCH  24  25
ATOM     25  C   UNL     1       0.409   9.655  21.822  0.00  0.00    +0.000 A 
ATOM     26  C   UNL     1      -0.019   9.154  23.039  0.00  0.00    +0.000 A 
ATOM     27  N   UNL     1      -0.969  10.010  23.496  0.00  0.00    +0.000 N 
ATOM     28  N   UNL     1      -1.200  11.042  22.678  0.00  0.00    +0.000 NA
ATOM     29  C   UNL     1      -0.360  10.860  21.645  0.00  0.00    +0.000 A 
ATOM     30  H   UNL     1      -1.510   9.947  24.352  0.00  0.00    +0.000 HD
BRANCH  29  31
ATOM     31  C   UNL     1      -0.350  11.795  20.512  0.00  0.00    +0.000 A 
ATOM     32  C   UNL     1       0.424  12.964  20.522  0.00  0.00    +0.000 A 
ATOM     33  C   UNL     1       0.494  13.797  19.402  0.00  0.00    +0.000 A 
ATOM     34  C   UNL     1      -0.248  13.493  18.271  0.00  0.00    +0.000 A 
ATOM     35  C   UNL     1      -1.065  12.368  18.256  0.00  0.00    +0.000 A 
ATOM     36  C   UNL     1      -1.111  11.521  19.367  0.00  0.00    +0.000 A 
ENDBRANCH  29  31
ENDBRANCH  24  25
ENDBRANCH  22  24
ENDBRANCH  19  20
ENDBRANCH   7  19
TORSDOF 8
ENDMDL
MODEL 3
REMARK VINA RESULT:      -8.8      1.786      2.390
REMARK  Name = 
REMARK  9 active torsions:
REMARK  status: ('A' for Active; 'I' for Inactive)
REMARK    1  A    between atoms: C_1  and  O_2
REMARK    2  A    between atoms: O_2  and  C_3
REMARK    3  A    between atoms: C_6  and  C_7
REMARK    4  A    between atoms: C_7  and  N_8
REMARK    5  A    between atoms: C_14  and  C_15
REMARK    6  A    between atoms: C_15  and  C_16
REMARK    7  A    between atoms: N_18  and  C_19
REMARK    8  A    between atoms: C_19  and  C_20
REMARK    9  A    between atoms: C_24  and  C_25
REMARK                            x       y       z     vdW  Elec       q    Type
REMARK                         _______ _______ _______ _____ _____    ______ ____
ROOT
ATOM      1  N   UNL     1       2.887   4.001  17.919  0.00  0.00    +0.000 NA
ATOM      2  C   UNL     1       2.113   2.743  17.864  0.00  0.00    +0.000 C 
ATOM      3  C   UNL     1       1.689   2.201  19.234  0.00  0.00    +0.000 C 
ATOM      4  N   UNL     1       1.117   3.215  20.086  0.00  0.00    +0.000 N 
ATOM      5  C   UNL     1       1.629   4.486  20.086  0.00  0.00    +0.000 C 
ATOM      6  O   UNL     1       1.537   5.154  21.116  0.00  0.00    +0.000 OA
ATOM      7  C   UNL     1       2.170   5.038  18.740  0.00  0.00    +0.000 C 
ATOM      8  H   UNL     1       0.756   2.932  20.989  0.00  0.00    +0.000 HD
ENDROOT
BRANCH   1   9
ATOM      9  C   UNL     1       4.299   3.786  18.271  0.00  0.00    +0.000 C 
BRANCH   9  13
ATOM     10  C   UNL     1       6.983   5.037  15.110  0.00  0.00    +0.000 A 
ATOM     11  C   UNL     1       5.759   4.449  14.789  0.00  0.00    +0.000 A 
ATOM     12  C   UNL     1       4.903   4.005  15.805  0.00  0.00    +0.000 A 
ATOM     13  C   UNL     1       5.264   4.131  17.157  0.00  0.00    +0.000 A 
ATOM     14  C   UNL     1       6.496   4.712  17.455  0.00  0.00    +0.000 A 
ATOM     15  F   UNL     1       6.858   4.886  18.735  0.00  0.00    +0.000 F 
ATOM     16  C   UNL     1       7.355   5.150  16.451  0.00  0.00    +0.000 A 
BRANCH  10  18
ATOM     17  C   UNL     1       7.744   5.112  12.863  0.00  0.00    +0.000 C 
ATOM     18  O   UNL     1       7.896   5.524  14.217  0.00  0.00    +0.000 OA
ENDBRANCH  10  18
ENDBRANCH   9  13
ENDBRANCH   1   9
BRANCH   7  19
ATOM     19  C   UNL     1       3.029   6.287  18.959  0.00  0.00    +0.000 C 
BRANCH  19  20
ATOM     20  C   UNL     1       2.330   7.608  18.752  0.00  0.00    +0.000 C 
ATOM     21  O   UNL     1       2.429   8.249  17.709  0.00  0.00    +0.000 OA
ATOM     22  N   UNL     1       1.666   8.046  19.874  0.00  0.00    +0.000 N 
ATOM     23  H   UNL     1       1.161   7.316  20.373  0.00  0.00    +0.000 HD
BRANCH  22  24
ATOM     24  C   UNL     1       1.092   9.361  19.885  0.00  0.00    +0.000 C 
BRANCH  24  25
ATOM     25  C   UNL     1       0.368   9.652  21.156  0.00  0.00    +0.000 A 
ATOM     26  C   UNL     1       0.006   8.796  22.181  0.00  0.00    +0.000 A 
ATOM     27  N   UNL     1      -0.682   9.543  23.083  0.00  0.00    +0.000 N 
ATOM     28  N   UNL     1      -0.800  10.828  22.737  0.00  0.00    +0.000 NA
ATOM     29  C   UNL     1      -0.154  10.932  21.563  0.00  0.00    +0.000 A 
ATOM     30  H   UNL     1      -1.111   9.239  23.950  0.00  0.00    +0.000 HD
BRANCH  29  31
ATOM     31  C   UNL     1      -0.098  12.213  20.848  0.00  0.00    +0.000 A 
ATOM     32  C   UNL     1       0.617  13.311  21.349  0.00  0.00    +0.000 A 
ATOM     33  C   UNL     1       0.737  14.495  20.615  0.00  0.00    +0.000 A 
ATOM     34  C   UNL     1       0.104  14.610  19.386  0.00  0.00    +0.000 A 
ATOM     35  C   UNL     1      -0.655  13.555  18.893  0.00  0.00    +0.000 A 
ATOM     36  C   UNL     1      -0.751  12.362  19.616  0.00  0.00    +0.000 A 
ENDBRANCH  29  31
ENDBRANCH  24  25
ENDBRANCH  22  24
ENDBRANCH  19  20
ENDBRANCH   7  19
TORSDOF 8
ENDMDL
MODEL 4
REMARK VINA RESULT:      -8.7      2.213      2.802
REMARK  Name = 
REMARK  9 active torsions:
REMARK  status: ('A' for Active; 'I' for Inactive)
REMARK    1  A    between atoms: C_1  and  O_2
REMARK    2  A    between atoms: O_2  and  C_3
REMARK    3  A    between atoms: C_6  and  C_7
REMARK    4  A    between atoms: C_7  and  N_8
REMARK    5  A    between atoms: C_14  and  C_15
REMARK    6  A    between atoms: C_15  and  C_16
REMARK    7  A    between atoms: N_18  and  C_19
REMARK    8  A    between atoms: C_19  and  C_20
REMARK    9  A    between atoms: C_24  and  C_25
REMARK                            x       y       z     vdW  Elec       q    Type
REMARK                         _______ _______ _______ _____ _____    ______ ____
ROOT
ATOM      1  N   UNL     1       3.529   4.050  18.333  0.00  0.00    +0.000 NA
ATOM      2  C   UNL     1       3.384   2.891  17.429  0.00  0.00    +0.000 C 
ATOM      3  C   UNL     1       3.025   1.578  18.137  0.00  0.00    +0.000 C 
ATOM      4  N   UNL     1       1.952   1.729  19.089  0.00  0.00    +0.000 N 
ATOM      5  C   UNL     1       1.867   2.859  19.860  0.00  0.00    +0.000 C 
ATOM      6  O   UNL     1       1.342   2.771  20.970  0.00  0.00    +0.000 OA
ATOM      7  C   UNL     1       2.322   4.196  19.219  0.00  0.00    +0.000 C 
ATOM      8  H   UNL     1       1.611   0.899  19.561  0.00  0.00    +0.000 HD
ENDROOT
BRANCH   1   9
ATOM      9  C   UNL     1       4.826   4.071  19.028  0.00  0.00    +0.000 C 
BRANCH   9  13
ATOM     10  C   UNL     1       7.426   7.285  17.736  0.00  0.00    +0.000 A 
ATOM     11  C   UNL     1       7.796   6.486  18.819  0.00  0.00    +0.000 A 
ATOM     12  C   UNL     1       6.942   5.470  19.268  0.00  0.00    +0.000 A 
ATOM     13  C   UNL     1       5.701   5.247  18.650  0.00  0.00    +0.000 A 
ATOM     14  C   UNL     1       5.347   6.063  17.576  0.00  0.00    +0.000 A 
ATOM     15  F   UNL     1       4.188   5.855  16.935  0.00  0.00    +0.000 F 
ATOM     16  C   UNL     1       6.187   7.078  17.128  0.00  0.00    +0.000 A 
BRANCH  10  18
ATOM     17  C   UNL     1       8.402   9.429  18.018  0.00  0.00    +0.000 C 
ATOM     18  O   UNL     1       8.173   8.292  17.193  0.00  0.00    +0.000 OA
ENDBRANCH  10  18
ENDBRANCH   9  13
ENDBRANCH   1   9
BRANCH   7  19
ATOM     19  C   UNL     1       2.521   5.281  20.282  0.00  0.00    +0.000 C 
BRANCH  19  20
ATOM     20  C   UNL     1       2.131   6.680  19.873  0.00  0.00    +0.000 C 
ATOM     21  O   UNL     1       2.206   7.071  18.713  0.00  0.00    +0.000 OA
ATOM     22  N   UNL     1       1.785   7.474  20.942  0.00  0.00    +0.000 N 
ATOM     23  H   UNL     1       1.211   7.009  21.642  0.00  0.00    +0.000 HD
BRANCH  22  24
ATOM     24  C   UNL     1       1.550   8.874  20.732  0.00  0.00    +0.000 C 
BRANCH  24  25
ATOM     25  C   UNL     1       0.606   9.446  21.734  0.00  0.00    +0.000 A 
ATOM     26  C   UNL     1       0.466   9.156  23.079  0.00  0.00    +0.000 A 
ATOM     27  N   UNL     1      -0.571   9.909  23.531  0.00  0.00    +0.000 N 
ATOM     28  N   UNL     1      -1.125  10.679  22.589  0.00  0.00    +0.000 NA
ATOM     29  C   UNL     1      -0.416  10.428  21.475  0.00  0.00    +0.000 A 
ATOM     30  H   UNL     1      -0.962   9.939  24.466  0.00  0.00    +0.000 HD
BRANCH  29  31
ATOM     31  C   UNL     1      -0.761  11.079  20.205  0.00  0.00    +0.000 A 
ATOM     32  C   UNL     1      -0.572  12.453  20.001  0.00  0.00    +0.000 A 
ATOM     33  C   UNL     1      -0.819  13.043  18.757  0.00  0.00    +0.000 A 
ATOM     34  C   UNL     1      -1.302  12.269  17.713  0.00  0.00    +0.000 A 
ATOM     35  C   UNL     1      -1.548  10.915  17.906  0.00  0.00    +0.000 A 
ATOM     36  C   UNL     1      -1.274  10.322  19.142  0.00  0.00    +0.000 A 
ENDBRANCH  29  31
ENDBRANCH  24  25
ENDBRANCH  22  24
ENDBRANCH  19  20
ENDBRANCH   7  19
TORSDOF 8
ENDMDL
MODEL 5
REMARK VINA RESULT:      -8.5      2.503      3.218
REMARK  Name = 
REMARK  9 active torsions:
REMARK  status: ('A' for Active; 'I' for Inactive)
REMARK    1  A    between atoms: C_1  and  O_2
REMARK    2  A    between atoms: O_2  and  C_3
REMARK    3  A    between atoms: C_6  and  C_7
REMARK    4  A    between atoms: C_7  and  N_8
REMARK    5  A    between atoms: C_14  and  C_15
REMARK    6  A    between atoms: C_15  and  C_16
REMARK    7  A    between atoms: N_18  and  C_19
REMARK    8  A    between atoms: C_19  and  C_20
REMARK    9  A    between atoms: C_24  and  C_25
REMARK                            x       y       z     vdW  Elec       q    Type
REMARK                         _______ _______ _______ _____ _____    ______ ____
ROOT
ATOM      1  N   UNL     1       3.311   4.157  18.203  0.00  0.00    +0.000 NA
ATOM      2  C   UNL     1       2.905   2.938  17.474  0.00  0.00    +0.000 C 
ATOM      3  C   UNL     1       2.400   1.802  18.373  0.00  0.00    +0.000 C 
ATOM      4  N   UNL     1       1.450   2.250  19.362  0.00  0.00    +0.000 N 
ATOM      5  C   UNL     1       1.615   3.463  19.978  0.00  0.00    +0.000 C 
ATOM      6  O   UNL     1       1.178   3.602  21.120  0.00  0.00    +0.000 OA
ATOM      7  C   UNL     1       2.223   4.614  19.135  0.00  0.00    +0.000 C 
ATOM      8  H   UNL     1       1.022   1.554  19.962  0.00  0.00    +0.000 HD
ENDROOT
BRANCH   1   9
ATOM      9  C   UNL     1       4.649   4.041  18.806  0.00  0.00    +0.000 C 
BRANCH   9  13
ATOM     10  C   UNL     1       7.384   7.207  17.684  0.00  0.00    +0.000 A 
ATOM     11  C   UNL     1       7.650   6.426  18.809  0.00  0.00    +0.000 A 
ATOM     12  C   UNL     1       6.751   5.426  19.202  0.00  0.00    +0.000 A 
ATOM     13  C   UNL     1       5.565   5.202  18.483  0.00  0.00    +0.000 A 
ATOM     14  C   UNL     1       5.314   6.000  17.368  0.00  0.00    +0.000 A 
ATOM     15  F   UNL     1       4.212   5.790  16.632  0.00  0.00    +0.000 F 
ATOM     16  C   UNL     1       6.200   7.000  16.975  0.00  0.00    +0.000 A 
BRANCH  10  18
ATOM     17  C   UNL     1       8.400   9.323  18.034  0.00  0.00    +0.000 C 
ATOM     18  O   UNL     1       8.185   8.197  17.189  0.00  0.00    +0.000 OA
ENDBRANCH  10  18
ENDBRANCH   9  13
ENDBRANCH   1   9
BRANCH   7  19
ATOM     19  C   UNL     1       2.684   5.771  20.029  0.00  0.00    +0.000 C 
BRANCH  19  20
ATOM     20  C   UNL     1       2.237   7.147  19.602  0.00  0.00    +0.000 C 
ATOM     21  O   UNL     1       2.633   7.677  18.568  0.00  0.00    +0.000 OA
ATOM     22  N   UNL     1       1.433   7.762  20.534  0.00  0.00    +0.000 N 
ATOM     23  H   UNL     1       0.739   7.150  20.957  0.00  0.00    +0.000 HD
BRANCH  22  24
ATOM     24  C   UNL     1       1.063   9.136  20.347  0.00  0.00    +0.000 C 
BRANCH  24  25
ATOM     25  C   UNL     1       0.380   9.706  21.543  0.00  0.00    +0.000 A 
ATOM     26  C   UNL     1      -0.039   9.078  22.702  0.00  0.00    +0.000 A 
ATOM     27  N   UNL     1      -0.654  10.027  23.456  0.00  0.00    +0.000 N 
ATOM     28  N   UNL     1      -0.669  11.236  22.887  0.00  0.00    +0.000 NA
ATOM     29  C   UNL     1      -0.031  11.077  21.715  0.00  0.00    +0.000 A 
ATOM     30  H   UNL     1      -1.096   9.918  24.362  0.00  0.00    +0.000 HD
BRANCH  29  31
ATOM     31  C   UNL     1       0.122  12.203  20.785  0.00  0.00    +0.000 A 
ATOM     32  C   UNL     1      -0.624  12.292  19.601  0.00  0.00    +0.000 A 
ATOM     33  C   UNL     1      -0.535  13.413  18.770  0.00  0.00    +0.000 A 
ATOM     34  C   UNL     1       0.337  14.442  19.093  0.00  0.00    +0.000 A 
ATOM     35  C   UNL     1       1.126  14.352  20.234  0.00  0.00    +0.000 A 
ATOM     36  C   UNL     1       1.015  13.243  21.078  0.00  0.00    +0.000 A 
ENDBRANCH  29  31
ENDBRANCH  24  25
ENDBRANCH  22  24
ENDBRANCH  19  20
ENDBRANCH   7  19
TORSDOF 8
ENDMDL
MODEL 6
REMARK VINA RESULT:      -8.5      2.563      3.236
REMARK  Name = 
REMARK  9 active torsions:
REMARK  status: ('A' for Active; 'I' for Inactive)
REMARK    1  A    between atoms: C_1  and  O_2
REMARK    2  A    between atoms: O_2  and  C_3
REMARK    3  A    between atoms: C_6  and  C_7
REMARK    4  A    between atoms: C_7  and  N_8
REMARK    5  A    between atoms: C_14  and  C_15
REMARK    6  A    between atoms: C_15  and  C_16
REMARK    7  A    between atoms: N_18  and  C_19
REMARK    8  A    between atoms: C_19  and  C_20
REMARK    9  A    between atoms: C_24  and  C_25
REMARK                            x       y       z     vdW  Elec       q    Type
REMARK                         _______ _______ _______ _____ _____    ______ ____
ROOT
ATOM      1  N   UNL     1       3.712   4.042  18.429  0.00  0.00    +0.000 NA
ATOM      2  C   UNL     1       3.498   2.767  17.714  0.00  0.00    +0.000 C 
ATOM      3  C   UNL     1       3.134   1.586  18.623  0.00  0.00    +0.000 C 
ATOM      4  N   UNL     1       2.105   1.912  19.581  0.00  0.00    +0.000 N 
ATOM      5  C   UNL     1       2.083   3.146  20.176  0.00  0.00    +0.000 C 
ATOM      6  O   UNL     1       1.601   3.241  21.305  0.00  0.00    +0.000 OA
ATOM      7  C   UNL     1       2.547   4.358  19.326  0.00  0.00    +0.000 C 
ATOM      8  H   UNL     1       1.762   1.173  20.183  0.00  0.00    +0.000 HD
ENDROOT
BRANCH   1   9
ATOM      9  C   UNL     1       5.036   4.124  19.065  0.00  0.00    +0.000 C 
BRANCH   9  13
ATOM     10  C   UNL     1       7.480   7.387  17.603  0.00  0.00    +0.000 A 
ATOM     11  C   UNL     1       6.300   7.053  16.939  0.00  0.00    +0.000 A 
ATOM     12  C   UNL     1       5.523   5.974  17.382  0.00  0.00    +0.000 A 
ATOM     13  C   UNL     1       5.925   5.204  18.487  0.00  0.00    +0.000 A 
ATOM     14  C   UNL     1       7.113   5.549  19.129  0.00  0.00    +0.000 A 
ATOM     15  F   UNL     1       7.508   4.864  20.212  0.00  0.00    +0.000 F 
ATOM     16  C   UNL     1       7.892   6.617  18.692  0.00  0.00    +0.000 A 
BRANCH  10  18
ATOM     17  C   UNL     1       7.987   9.694  17.832  0.00  0.00    +0.000 C 
ATOM     18  O   UNL     1       8.314   8.422  17.283  0.00  0.00    +0.000 OA
ENDBRANCH  10  18
ENDBRANCH   9  13
ENDBRANCH   1   9
BRANCH   7  19
ATOM     19  C   UNL     1       2.819   5.581  20.207  0.00  0.00    +0.000 C 
BRANCH  19  20
ATOM     20  C   UNL     1       2.279   6.893  19.692  0.00  0.00    +0.000 C 
ATOM     21  O   UNL     1       2.530   7.311  18.566  0.00  0.00    +0.000 OA
ATOM     22  N   UNL     1       1.575   7.594  20.644  0.00  0.00    +0.000 N 
ATOM     23  H   UNL     1       0.958   7.021  21.215  0.00  0.00    +0.000 HD
BRANCH  22  24
ATOM     24  C   UNL     1       1.142   8.931  20.356  0.00  0.00    +0.000 C 
BRANCH  24  25
ATOM     25  C   UNL     1       0.459   9.567  21.519  0.00  0.00    +0.000 A 
ATOM     26  C   UNL     1      -0.035   8.991  22.676  0.00  0.00    +0.000 A 
ATOM     27  N   UNL     1      -0.612   9.991  23.390  0.00  0.00    +0.000 N 
ATOM     28  N   UNL     1      -0.534  11.187  22.799  0.00  0.00    +0.000 NA
ATOM     29  C   UNL     1       0.129  10.964  21.651  0.00  0.00    +0.000 A 
ATOM     30  H   UNL     1      -1.088   9.929  24.284  0.00  0.00    +0.000 HD
BRANCH  29  31
ATOM     31  C   UNL     1       0.381  12.058  20.705  0.00  0.00    +0.000 A 
ATOM     32  C   UNL     1      -0.449  12.286  19.597  0.00  0.00    +0.000 A 
ATOM     33  C   UNL     1      -0.251  13.385  18.757  0.00  0.00    +0.000 A 
ATOM     34  C   UNL     1       0.809  14.248  18.990  0.00  0.00    +0.000 A 
ATOM     35  C   UNL     1       1.677  14.014  20.051  0.00  0.00    +0.000 A 
ATOM     36  C   UNL     1       1.461  12.930  20.906  0.00  0.00    +0.000 A 
ENDBRANCH  29  31
ENDBRANCH  24  25
ENDBRANCH  22  24
ENDBRANCH  19  20
ENDBRANCH   7  19
TORSDOF 8
ENDMDL
MODEL 7
REMARK VINA RESULT:      -8.3      2.057      2.920
REMARK  Name = 
REMARK  9 active torsions:
REMARK  status: ('A' for Active; 'I' for Inactive)
REMARK    1  A    between atoms: C_1  and  O_2
REMARK    2  A    between atoms: O_2  and  C_3
REMARK    3  A    between atoms: C_6  and  C_7
REMARK    4  A    between atoms: C_7  and  N_8
REMARK    5  A    between atoms: C_14  and  C_15
REMARK    6  A    between atoms: C_15  and  C_16
REMARK    7  A    between atoms: N_18  and  C_19
REMARK    8  A    between atoms: C_19  and  C_20
REMARK    9  A    between atoms: C_24  and  C_25
REMARK                            x       y       z     vdW  Elec       q    Type
REMARK                         _______ _______ _______ _____ _____    ______ ____
ROOT
ATOM      1  N   UNL     1       2.998   4.695  17.999  0.00  0.00    +0.000 NA
ATOM      2  C   UNL     1       2.414   3.338  17.984  0.00  0.00    +0.000 C 
ATOM      3  C   UNL     1       2.116   2.763  19.375  0.00  0.00    +0.000 C 
ATOM      4  N   UNL     1       1.430   3.698  20.233  0.00  0.00    +0.000 N 
ATOM      5  C   UNL     1       1.752   5.029  20.201  0.00  0.00    +0.000 C 
ATOM      6  O   UNL     1       1.596   5.693  21.225  0.00  0.00    +0.000 OA
ATOM      7  C   UNL     1       2.165   5.631  18.831  0.00  0.00    +0.000 C 
ATOM      8  H   UNL     1       1.142   3.380  21.151  0.00  0.00    +0.000 HD
ENDROOT
BRANCH   1   9
ATOM      9  C   UNL     1       4.437   4.693  18.306  0.00  0.00    +0.000 C 
BRANCH   9  13
ATOM     10  C   UNL     1       7.043   5.198  14.883  0.00  0.00    +0.000 A 
ATOM     11  C   UNL     1       5.666   5.375  14.739  0.00  0.00    +0.000 A 
ATOM     12  C   UNL     1       4.812   5.175  15.832  0.00  0.00    +0.000 A 
ATOM     13  C   UNL     1       5.322   4.781  17.080  0.00  0.00    +0.000 A 
ATOM     14  C   UNL     1       6.699   4.600  17.199  0.00  0.00    +0.000 A 
ATOM     15  F   UNL     1       7.227   4.263  18.386  0.00  0.00    +0.000 F 
ATOM     16  C   UNL     1       7.553   4.791  16.117  0.00  0.00    +0.000 A 
BRANCH  10  18
ATOM     17  C   UNL     1       7.625   4.942  12.596  0.00  0.00    +0.000 C 
ATOM     18  O   UNL     1       7.980   5.378  13.904  0.00  0.00    +0.000 OA
ENDBRANCH  10  18
ENDBRANCH   9  13
ENDBRANCH   1   9
BRANCH   7  19
ATOM     19  C   UNL     1       2.839   6.995  19.006  0.00  0.00    +0.000 C 
BRANCH  19  20
ATOM     20  C   UNL     1       2.292   8.112  18.151  0.00  0.00    +0.000 C 
ATOM     21  O   UNL     1       2.715   8.344  17.023  0.00  0.00    +0.000 OA
ATOM     22  N   UNL     1       1.358   8.880  18.807  0.00  0.00    +0.000 N 
ATOM     23  H   UNL     1       0.697   8.347  19.368  0.00  0.00    +0.000 HD
BRANCH  22  24
ATOM     24  C   UNL     1       0.868  10.076  18.184  0.00  0.00    +0.000 C 
BRANCH  24  25
ATOM     25  C   UNL     1       1.475  11.307  18.765  0.00  0.00    +0.000 A 
ATOM     26  C   UNL     1       2.358  12.208  18.197  0.00  0.00    +0.000 A 
ATOM     27  N   UNL     1       2.650  13.122  19.158  0.00  0.00    +0.000 N 
ATOM     28  N   UNL     1       2.024  12.899  20.318  0.00  0.00    +0.000 NA
ATOM     29  C   UNL     1       1.285  11.797  20.106  0.00  0.00    +0.000 A 
ATOM     30  H   UNL     1       3.277  13.918  19.096  0.00  0.00    +0.000 HD
BRANCH  29  31
ATOM     31  C   UNL     1       0.471  11.222  21.185  0.00  0.00    +0.000 A 
ATOM     32  C   UNL     1       0.801  10.003  21.793  0.00  0.00    +0.000 A 
ATOM     33  C   UNL     1       0.070   9.512  22.879  0.00  0.00    +0.000 A 
ATOM     34  C   UNL     1      -1.031  10.217  23.343  0.00  0.00    +0.000 A 
ATOM     35  C   UNL     1      -1.409  11.402  22.723  0.00  0.00    +0.000 A 
ATOM     36  C   UNL     1      -0.661  11.905  21.654  0.00  0.00    +0.000 A 
ENDBRANCH  29  31
ENDBRANCH  24  25
ENDBRANCH  22  24
ENDBRANCH  19  20
ENDBRANCH   7  19
TORSDOF 8
ENDMDL
MODEL 8
REMARK VINA RESULT:      -8.3      2.140      2.657
REMARK  Name = 
REMARK  9 active torsions:
REMARK  status: ('A' for Active; 'I' for Inactive)
REMARK    1  A    between atoms: C_1  and  O_2
REMARK    2  A    between atoms: O_2  and  C_3
REMARK    3  A    between atoms: C_6  and  C_7
REMARK    4  A    between atoms: C_7  and  N_8
REMARK    5  A    between atoms: C_14  and  C_15
REMARK    6  A    between atoms: C_15  and  C_16
REMARK    7  A    between atoms: N_18  and  C_19
REMARK    8  A    between atoms: C_19  and  C_20
REMARK    9  A    between atoms: C_24  and  C_25
REMARK                            x       y       z     vdW  Elec       q    Type
REMARK                         _______ _______ _______ _____ _____    ______ ____
ROOT
ATOM      1  N   UNL     1       2.662   4.625  18.248  0.00  0.00    +0.000 NA
ATOM      2  C   UNL     1       2.255   3.444  17.460  0.00  0.00    +0.000 C 
ATOM      3  C   UNL     1       2.203   2.136  18.260  0.00  0.00    +0.000 C 
ATOM      4  N   UNL     1       1.516   2.277  19.521  0.00  0.00    +0.000 N 
ATOM      5  C   UNL     1       1.663   3.419  20.263  0.00  0.00    +0.000 C 
ATOM      6  O   UNL     1       1.552   3.340  21.486  0.00  0.00    +0.000 OA
ATOM      7  C   UNL     1       1.826   4.756  19.492  0.00  0.00    +0.000 C 
ATOM      8  H   UNL     1       1.385   1.448  20.088  0.00  0.00    +0.000 HD
ENDROOT
BRANCH   1   9
ATOM      9  C   UNL     1       4.117   4.697  18.457  0.00  0.00    +0.000 C 
BRANCH   9  13
ATOM     10  C   UNL     1       6.171   4.638  14.644  0.00  0.00    +0.000 A 
ATOM     11  C   UNL     1       6.164   3.496  15.446  0.00  0.00    +0.000 A 
ATOM     12  C   UNL     1       5.535   3.519  16.698  0.00  0.00    +0.000 A 
ATOM     13  C   UNL     1       4.918   4.688  17.172  0.00  0.00    +0.000 A 
ATOM     14  C   UNL     1       4.945   5.821  16.359  0.00  0.00    +0.000 A 
ATOM     15  F   UNL     1       4.332   6.944  16.760  0.00  0.00    +0.000 F 
ATOM     16  C   UNL     1       5.573   5.807  15.117  0.00  0.00    +0.000 A 
BRANCH  10  18
ATOM     17  C   UNL     1       6.450   3.686  12.488  0.00  0.00    +0.000 C 
ATOM     18  O   UNL     1       6.732   4.741  13.402  0.00  0.00    +0.000 OA
ENDBRANCH  10  18
ENDBRANCH   9  13
ENDBRANCH   1   9
BRANCH   7  19
ATOM     19  C   UNL     1       2.341   5.867  20.412  0.00  0.00    +0.000 C 
BRANCH  19  20
ATOM     20  C   UNL     1       1.995   7.276  19.997  0.00  0.00    +0.000 C 
ATOM     21  O   UNL     1       2.268   7.720  18.886  0.00  0.00    +0.000 OA
ATOM     22  N   UNL     1       1.440   8.015  21.016  0.00  0.00    +0.000 N 
ATOM     23  H   UNL     1       0.761   7.507  21.580  0.00  0.00    +0.000 HD
BRANCH  22  24
ATOM     24  C   UNL     1       1.210   9.418  20.824  0.00  0.00    +0.000 C 
BRANCH  24  25
ATOM     25  C   UNL     1       0.239   9.972  21.810  0.00  0.00    +0.000 A 
ATOM     26  C   UNL     1      -0.325   9.376  22.924  0.00  0.00    +0.000 A 
ATOM     27  N   UNL     1      -1.186  10.283  23.454  0.00  0.00    +0.000 N 
ATOM     28  N   UNL     1      -1.232  11.436  22.780  0.00  0.00    +0.000 NA
ATOM     29  C   UNL     1      -0.359  11.283  21.771  0.00  0.00    +0.000 A 
ATOM     30  H   UNL     1      -1.783  10.178  24.267  0.00  0.00    +0.000 HD
BRANCH  29  31
ATOM     31  C   UNL     1      -0.160  12.351  20.782  0.00  0.00    +0.000 A 
ATOM     32  C   UNL     1       0.651  13.464  21.047  0.00  0.00    +0.000 A 
ATOM     33  C   UNL     1       0.904  14.427  20.065  0.00  0.00    +0.000 A 
ATOM     34  C   UNL     1       0.311  14.310  18.817  0.00  0.00    +0.000 A 
ATOM     35  C   UNL     1      -0.539  13.243  18.548  0.00  0.00    +0.000 A 
ATOM     36  C   UNL     1      -0.768  12.267  19.522  0.00  0.00    +0.000 A 
ENDBRANCH  29  31
ENDBRANCH  24  25
ENDBRANCH  22  24
ENDBRANCH  19  20
ENDBRANCH   7  19
TORSDOF 8
ENDMDL
MODEL 9
REMARK VINA RESULT:      -8.3      3.350      9.654
REMARK  Name = 
REMARK  9 active torsions:
REMARK  status: ('A' for Active; 'I' for Inactive)
REMARK    1  A    between atoms: C_1  and  O_2
REMARK    2  A    between atoms: O_2  and  C_3
REMARK    3  A    between atoms: C_6  and  C_7
REMARK    4  A    between atoms: C_7  and  N_8
REMARK    5  A    between atoms: C_14  and  C_15
REMARK    6  A    between atoms: C_15  and  C_16
REMARK    7  A    between atoms: N_18  and  C_19
REMARK    8  A    between atoms: C_19  and  C_20
REMARK    9  A    between atoms: C_24  and  C_25
REMARK                            x       y       z     vdW  Elec       q    Type
REMARK                         _______ _______ _______ _____ _____    ______ ____
ROOT
ATOM      1  N   UNL     1      -0.399  11.446  18.725  0.00  0.00    +0.000 NA
ATOM      2  C   UNL     1      -0.638  12.877  19.003  0.00  0.00    +0.000 C 
ATOM      3  C   UNL     1      -0.646  13.239  20.494  0.00  0.00    +0.000 C 
ATOM      4  N   UNL     1       0.467  12.670  21.215  0.00  0.00    +0.000 N 
ATOM      5  C   UNL     1       0.911  11.409  20.914  0.00  0.00    +0.000 C 
ATOM      6  O   UNL     1       1.438  10.747  21.808  0.00  0.00    +0.000 OA
ATOM      7  C   UNL     1       0.837  10.960  19.431  0.00  0.00    +0.000 C 
ATOM      8  H   UNL     1       0.572  12.906  22.194  0.00  0.00    +0.000 HD
ENDROOT
BRANCH   1   9
ATOM      9  C   UNL     1      -1.601  10.619  18.919  0.00  0.00    +0.000 C 
BRANCH   9  13
ATOM     10  C   UNL     1      -5.306  12.052  17.192  0.00  0.00    +0.000 A 
ATOM     11  C   UNL     1      -4.361  11.421  16.382  0.00  0.00    +0.000 A 
ATOM     12  C   UNL     1      -3.143  10.990  16.925  0.00  0.00    +0.000 A 
ATOM     13  C   UNL     1      -2.847  11.196  18.282  0.00  0.00    +0.000 A 
ATOM     14  C   UNL     1      -3.801  11.838  19.072  0.00  0.00    +0.000 A 
ATOM     15  F   UNL     1      -3.571  12.017  20.381  0.00  0.00    +0.000 F 
ATOM     16  C   UNL     1      -5.011  12.274  18.538  0.00  0.00    +0.000 A 
BRANCH  10  18
ATOM     17  C   UNL     1      -6.785  13.892  16.958  0.00  0.00    +0.000 C 
ATOM     18  O   UNL     1      -6.532  12.501  16.791  0.00  0.00    +0.000 OA
ENDBRANCH  10  18
ENDBRANCH   9  13
ENDBRANCH   1   9
BRANCH   7  19
ATOM     19  C   UNL     1       1.010   9.443  19.302  0.00  0.00    +0.000 C 
BRANCH  19  20
ATOM     20  C   UNL     1       1.977   8.981  18.240  0.00  0.00    +0.000 C 
ATOM     21  O   UNL     1       2.184   9.624  17.215  0.00  0.00    +0.000 OA
ATOM     22  N   UNL     1       2.510   7.740  18.503  0.00  0.00    +0.000 N 
ATOM     23  H   UNL     1       2.771   7.594  19.475  0.00  0.00    +0.000 HD
BRANCH  22  24
ATOM     24  C   UNL     1       3.317   7.096  17.507  0.00  0.00    +0.000 C 
BRANCH  24  25
ATOM     25  C   UNL     1       4.398   6.262  18.107  0.00  0.00    +0.000 A 
ATOM     26  C   UNL     1       5.770   6.431  18.061  0.00  0.00    +0.000 A 
ATOM     27  N   UNL     1       6.312   5.372  18.716  0.00  0.00    +0.000 N 
ATOM     28  N   UNL     1       5.404   4.517  19.197  0.00  0.00    +0.000 NA
ATOM     29  C   UNL     1       4.216   5.042  18.850  0.00  0.00    +0.000 A 
ATOM     30  H   UNL     1       7.294   5.162  18.863  0.00  0.00    +0.000 HD
BRANCH  29  31
ATOM     31  C   UNL     1       2.965   4.350  19.185  0.00  0.00    +0.000 A 
ATOM     32  C   UNL     1       2.274   3.570  18.246  0.00  0.00    +0.000 A 
ATOM     33  C   UNL     1       1.134   2.845  18.604  0.00  0.00    +0.000 A 
ATOM     34  C   UNL     1       0.644   2.926  19.899  0.00  0.00    +0.000 A 
ATOM     35  C   UNL     1       1.281   3.735  20.834  0.00  0.00    +0.000 A 
ATOM     36  C   UNL     1       2.437   4.437  20.481  0.00  0.00    +0.000 A 
ENDBRANCH  29  31
ENDBRANCH  24  25
ENDBRANCH  22  24
ENDBRANCH  19  20
ENDBRANCH   7  19
TORSDOF 8
ENDMDL
