MODEL 1
REMARK VINA RESULT:      -8.4      0.000      0.000
REMARK  Name = 
REMARK  6 active torsions:
REMARK  status: ('A' for Active; 'I' for Inactive)
REMARK    1  A    between atoms: N_3  and  C_4
REMARK    2  A    between atoms: C_4  and  C_5
REMARK    3  A    between atoms: C_8  and  C_9
REMARK    4  A    between atoms: N_10  and  O_11
REMARK    5  A    between atoms: N_12  and  C_13
REMARK    6  A    between atoms: N_21  and  C_22
REMARK                            x       y       z     vdW  Elec       q    Type
REMARK                         _______ _______ _______ _____ _____    ______ ____
ROOT
ATOM      1  C   UNL     1       6.925   6.803  17.954  0.00  0.00    +0.000 A 
ATOM      2  C   UNL     1       7.072   5.824  18.913  0.00  0.00    +0.000 A 
ATOM      3  C   UNL     1       5.965   4.936  18.944  0.00  0.00    +0.000 A 
ATOM      4  C   UNL     1       4.980   5.278  18.035  0.00  0.00    +0.000 A 
ATOM      5  S   UNL     1       5.433   6.651  17.121  0.00  0.00    +0.000 S 
ENDROOT
BRANCH   4   6
ATOM      6  C   UNL     1       3.681   4.616  17.857  0.00  0.00    +0.000 C 
ATOM      7  N   UNL     1       3.609   3.718  16.902  0.00  0.00    +0.000 NA
ATOM      8  N   UNL     1       2.607   4.862  18.697  0.00  0.00    +0.000 N 
ATOM      9  H   UNL     1       1.834   4.219  18.571  0.00  0.00    +0.000 HD
BRANCH   8  10
ATOM     10  C   UNL     1       2.296   6.096  19.297  0.00  0.00    +0.000 A 
ATOM     11  C   UNL     1       1.849   6.190  20.626  0.00  0.00    +0.000 A 
ATOM     12  C   UNL     1       1.363   7.392  21.142  0.00  0.00    +0.000 A 
ATOM     13  C   UNL     1       1.337   8.529  20.340  0.00  0.00    +0.000 A 
ATOM     14  C   UNL     1       1.831   8.460  19.038  0.00  0.00    +0.000 A 
ATOM     15 BR   UNL     1       1.781  10.002  17.944  0.00  0.00    +0.000 Br
ATOM     16  C   UNL     1       2.322   7.259  18.520  0.00  0.00    +0.000 A 
ENDBRANCH   8  10
BRANCH   7  17
ATOM     17  O   UNL     1       2.343   3.104  16.857  0.00  0.00    +0.000 OA
ATOM     18  H   UNL     1       2.384   2.630  16.003  0.00  0.00    +0.000 HD
ENDBRANCH   7  17
ENDBRANCH   4   6
BRANCH   1  19
ATOM     19  C   UNL     1       7.913   7.849  17.569  0.00  0.00    +0.000 C 
BRANCH  19  22
ATOM     20  O   UNL     1       8.598  10.430  17.872  0.00  0.00    +0.000 OA
ATOM     21  C   UNL     1       8.895   9.680  18.796  0.00  0.00    +0.000 C 
ATOM     22  N   UNL     1       8.628   8.335  18.727  0.00  0.00    +0.000 N 
ATOM     23  N   UNL     1       9.497  10.057  19.971  0.00  0.00    +0.000 N 
ATOM     24  H   UNL     1       8.849   7.712  19.487  0.00  0.00    +0.000 HD
ATOM     25  H   UNL     1       9.920   9.337  20.540  0.00  0.00    +0.000 HD
BRANCH  23  26
ATOM     26  C   UNL     1       9.742  11.394  20.381  0.00  0.00    +0.000 A 
ATOM     27  C   UNL     1       8.935  12.081  21.295  0.00  0.00    +0.000 A 
ATOM     28  C   UNL     1       9.253  13.385  21.685  0.00  0.00    +0.000 A 
ATOM     29  C   UNL     1      10.378  14.021  21.169  0.00  0.00    +0.000 A 
ATOM     30  C   UNL     1      11.189  13.355  20.254  0.00  0.00    +0.000 A 
ATOM     31  C   UNL     1      10.868  12.051  19.874  0.00  0.00    +0.000 A 
ATOM     32  F   UNL     1      11.664  11.423  18.991  0.00  0.00    +0.000 F 
ENDBRANCH  23  26
ENDBRANCH  19  22
ENDBRANCH   1  19
TORSDOF 6
ENDMDL
MODEL 2
REMARK VINA RESULT:      -8.2      2.610      3.103
REMARK  Name = 
REMARK  6 active torsions:
REMARK  status: ('A' for Active; 'I' for Inactive)
REMARK    1  A    between atoms: N_3  and  C_4
REMARK    2  A    between atoms: C_4  and  C_5
REMARK    3  A    between atoms: C_8  and  C_9
REMARK    4  A    between atoms: N_10  and  O_11
REMARK    5  A    between atoms: N_12  and  C_13
REMARK    6  A    between atoms: N_21  and  C_22
REMARK                            x       y       z     vdW  Elec       q    Type
REMARK                         _______ _______ _______ _____ _____    ______ ____
ROOT
ATOM      1  C   UNL     1       7.919   6.933  18.407  0.00  0.00    +0.000 A 
ATOM      2  C   UNL     1       8.052   5.623  18.816  0.00  0.00    +0.000 A 
ATOM      3  C   UNL     1       7.296   4.732  18.010  0.00  0.00    +0.000 A 
ATOM      4  C   UNL     1       6.572   5.383  17.028  0.00  0.00    +0.000 A 
ATOM      5  S   UNL     1       6.856   7.069  17.067  0.00  0.00    +0.000 S 
ENDROOT
BRANCH   4   6
ATOM      6  C   UNL     1       5.638   4.772  16.074  0.00  0.00    +0.000 C 
ATOM      7  N   UNL     1       6.012   4.761  14.816  0.00  0.00    +0.000 NA
ATOM      8  N   UNL     1       4.461   4.164  16.480  0.00  0.00    +0.000 N 
ATOM      9  H   UNL     1       3.999   3.637  15.749  0.00  0.00    +0.000 HD
BRANCH   8  10
ATOM     10  C   UNL     1       3.650   4.575  17.555  0.00  0.00    +0.000 A 
ATOM     11  C   UNL     1       3.216   5.903  17.699  0.00  0.00    +0.000 A 
ATOM     12  C   UNL     1       2.579   6.335  18.863  0.00  0.00    +0.000 A 
ATOM     13  C   UNL     1       2.348   5.434  19.898  0.00  0.00    +0.000 A 
ATOM     14  C   UNL     1       2.723   4.101  19.743  0.00  0.00    +0.000 A 
ATOM     15 BR   UNL     1       2.421   2.880  21.156  0.00  0.00    +0.000 Br
ATOM     16  C   UNL     1       3.357   3.665  18.576  0.00  0.00    +0.000 A 
ENDBRANCH   8  10
BRANCH   7  17
ATOM     17  O   UNL     1       5.076   4.100  13.998  0.00  0.00    +0.000 OA
ATOM     18  H   UNL     1       4.623   3.521  14.643  0.00  0.00    +0.000 HD
ENDBRANCH   7  17
ENDBRANCH   4   6
BRANCH   1  19
ATOM     19  C   UNL     1       8.626   8.127  18.947  0.00  0.00    +0.000 C 
BRANCH  19  22
ATOM     20  O   UNL     1       9.410  10.596  19.659  0.00  0.00    +0.000 OA
ATOM     21  C   UNL     1       8.845  10.501  18.576  0.00  0.00    +0.000 C 
ATOM     22  N   UNL     1       8.367   9.293  18.133  0.00  0.00    +0.000 N 
ATOM     23  N   UNL     1       8.628  11.531  17.692  0.00  0.00    +0.000 N 
ATOM     24  H   UNL     1       7.919   9.197  17.235  0.00  0.00    +0.000 HD
ATOM     25  H   UNL     1       7.942  11.393  16.964  0.00  0.00    +0.000 HD
BRANCH  23  26
ATOM     26  C   UNL     1       9.149  12.845  17.814  0.00  0.00    +0.000 A 
ATOM     27  C   UNL     1       8.403  13.931  18.287  0.00  0.00    +0.000 A 
ATOM     28  C   UNL     1       8.988  15.194  18.417  0.00  0.00    +0.000 A 
ATOM     29  C   UNL     1      10.323  15.390  18.078  0.00  0.00    +0.000 A 
ATOM     30  C   UNL     1      11.078  14.324  17.600  0.00  0.00    +0.000 A 
ATOM     31  C   UNL     1      10.489  13.064  17.478  0.00  0.00    +0.000 A 
ATOM     32  F   UNL     1      11.235  12.046  17.016  0.00  0.00    +0.000 F 
ENDBRANCH  23  26
ENDBRANCH  19  22
ENDBRANCH   1  19
TORSDOF 6
ENDMDL
MODEL 3
REMARK VINA RESULT:      -8.2      2.548      3.084
REMARK  Name = 
REMARK  6 active torsions:
REMARK  status: ('A' for Active; 'I' for Inactive)
REMARK    1  A    between atoms: N_3  and  C_4
REMARK    2  A    between atoms: C_4  and  C_5
REMARK    3  A    between atoms: C_8  and  C_9
REMARK    4  A    between atoms: N_10  and  O_11
REMARK    5  A    between atoms: N_12  and  C_13
REMARK    6  A    between atoms: N_21  and  C_22
REMARK                            x       y       z     vdW  Elec       q    Type
REMARK                         _______ _______ _______ _____ _____    ______ ____
ROOT
ATOM      1  C   UNL     1       8.021   6.945  18.440  0.00  0.00    +0.000 A 
ATOM      2  C   UNL     1       8.010   5.687  19.003  0.00  0.00    +0.000 A 
ATOM      3  C   UNL     1       7.451   4.716  18.132  0.00  0.00    +0.000 A 
ATOM      4  C   UNL     1       7.012   5.260  16.938  0.00  0.00    +0.000 A 
ATOM      5  S   UNL     1       7.327   6.939  16.871  0.00  0.00    +0.000 S 
ENDROOT
BRANCH   4   6
ATOM      6  C   UNL     1       6.325   4.551  15.850  0.00  0.00    +0.000 C 
ATOM      7  N   UNL     1       6.911   4.575  14.676  0.00  0.00    +0.000 NA
ATOM      8  N   UNL     1       5.163   3.826  16.060  0.00  0.00    +0.000 N 
ATOM      9  H   UNL     1       4.892   3.251  15.271  0.00  0.00    +0.000 HD
BRANCH   8  10
ATOM     10  C   UNL     1       4.141   4.153  16.970  0.00  0.00    +0.000 A 
ATOM     11  C   UNL     1       3.268   3.186  17.494  0.00  0.00    +0.000 A 
ATOM     12  C   UNL     1       2.145   3.552  18.239  0.00  0.00    +0.000 A 
ATOM     13  C   UNL     1       1.890   4.897  18.489  0.00  0.00    +0.000 A 
ATOM     14  C   UNL     1       2.781   5.862  18.021  0.00  0.00    +0.000 A 
ATOM     15 BR   UNL     1       2.425   7.690  18.349  0.00  0.00    +0.000 Br
ATOM     16  C   UNL     1       3.908   5.498  17.280  0.00  0.00    +0.000 A 
ENDBRANCH   8  10
BRANCH   7  17
ATOM     17  O   UNL     1       6.203   3.819  13.723  0.00  0.00    +0.000 OA
ATOM     18  H   UNL     1       6.870   3.153  13.463  0.00  0.00    +0.000 HD
ENDBRANCH   7  17
ENDBRANCH   4   6
BRANCH   1  19
ATOM     19  C   UNL     1       8.607   8.189  19.012  0.00  0.00    +0.000 C 
BRANCH  19  22
ATOM     20  O   UNL     1       9.337  10.692  19.661  0.00  0.00    +0.000 OA
ATOM     21  C   UNL     1       8.797  10.553  18.569  0.00  0.00    +0.000 C 
ATOM     22  N   UNL     1       8.348   9.323  18.155  0.00  0.00    +0.000 N 
ATOM     23  N   UNL     1       8.584  11.550  17.649  0.00  0.00    +0.000 N 
ATOM     24  H   UNL     1       7.921   9.192  17.252  0.00  0.00    +0.000 HD
ATOM     25  H   UNL     1       7.916  11.378  16.911  0.00  0.00    +0.000 HD
BRANCH  23  26
ATOM     26  C   UNL     1       9.081  12.876  17.739  0.00  0.00    +0.000 A 
ATOM     27  C   UNL     1       8.304  13.966  18.149  0.00  0.00    +0.000 A 
ATOM     28  C   UNL     1       8.867  15.242  18.252  0.00  0.00    +0.000 A 
ATOM     29  C   UNL     1      10.209  15.447  17.949  0.00  0.00    +0.000 A 
ATOM     30  C   UNL     1      10.995  14.376  17.534  0.00  0.00    +0.000 A 
ATOM     31  C   UNL     1      10.429  13.104  17.439  0.00  0.00    +0.000 A 
ATOM     32  F   UNL     1      11.204  12.082  17.040  0.00  0.00    +0.000 F 
ENDBRANCH  23  26
ENDBRANCH  19  22
ENDBRANCH   1  19
TORSDOF 6
ENDMDL
MODEL 4
REMARK VINA RESULT:      -8.2      2.640      3.332
REMARK  Name = 
REMARK  6 active torsions:
REMARK  status: ('A' for Active; 'I' for Inactive)
REMARK    1  A    between atoms: N_3  and  C_4
REMARK    2  A    between atoms: C_4  and  C_5
REMARK    3  A    between atoms: C_8  and  C_9
REMARK    4  A    between atoms: N_10  and  O_11
REMARK    5  A    between atoms: N_12  and  C_13
REMARK    6  A    between atoms: N_21  and  C_22
REMARK                            x       y       z     vdW  Elec       q    Type
REMARK                         _______ _______ _______ _____ _____    ______ ____
ROOT
ATOM      1  C   UNL     1       8.048   7.034  18.523  0.00  0.00    +0.000 A 
ATOM      2  C   UNL     1       8.049   5.757  19.043  0.00  0.00    +0.000 A 
ATOM      3  C   UNL     1       7.507   4.810  18.136  0.00  0.00    +0.000 A 
ATOM      4  C   UNL     1       7.068   5.389  16.958  0.00  0.00    +0.000 A 
ATOM      5  S   UNL     1       7.364   7.074  16.951  0.00  0.00    +0.000 S 
ENDROOT
BRANCH   4   6
ATOM      6  C   UNL     1       6.397   4.710  15.842  0.00  0.00    +0.000 C 
ATOM      7  N   UNL     1       6.992   4.778  14.674  0.00  0.00    +0.000 NA
ATOM      8  N   UNL     1       5.239   3.969  16.019  0.00  0.00    +0.000 N 
ATOM      9  H   UNL     1       4.980   3.417  15.209  0.00  0.00    +0.000 HD
BRANCH   8  10
ATOM     10  C   UNL     1       4.207   4.258  16.930  0.00  0.00    +0.000 A 
ATOM     11  C   UNL     1       3.354   3.263  17.435  0.00  0.00    +0.000 A 
ATOM     12  C   UNL     1       2.221   3.591  18.181  0.00  0.00    +0.000 A 
ATOM     13  C   UNL     1       1.935   4.926  18.453  0.00  0.00    +0.000 A 
ATOM     14  C   UNL     1       2.806   5.918  18.006  0.00  0.00    +0.000 A 
ATOM     15 BR   UNL     1       2.409   7.732  18.364  0.00  0.00    +0.000 Br
ATOM     16  C   UNL     1       3.943   5.592  17.262  0.00  0.00    +0.000 A 
ENDBRANCH   8  10
BRANCH   7  17
ATOM     17  O   UNL     1       6.298   4.046  13.691  0.00  0.00    +0.000 OA
ATOM     18  H   UNL     1       7.000   3.893  13.027  0.00  0.00    +0.000 HD
ENDBRANCH   7  17
ENDBRANCH   4   6
BRANCH   1  19
ATOM     19  C   UNL     1       8.616   8.264  19.142  0.00  0.00    +0.000 C 
BRANCH  19  22
ATOM     20  O   UNL     1       9.742  10.650  19.650  0.00  0.00    +0.000 OA
ATOM     21  C   UNL     1       9.109  10.563  18.603  0.00  0.00    +0.000 C 
ATOM     22  N   UNL     1       8.461   9.402  18.265  0.00  0.00    +0.000 N 
ATOM     23  N   UNL     1       8.974  11.558  17.665  0.00  0.00    +0.000 N 
ATOM     24  H   UNL     1       7.954   9.311  17.398  0.00  0.00    +0.000 HD
ATOM     25  H   UNL     1       8.237  11.466  16.981  0.00  0.00    +0.000 HD
BRANCH  23  26
ATOM     26  C   UNL     1       9.661  12.799  17.674  0.00  0.00    +0.000 A 
ATOM     27  C   UNL     1      10.919  12.989  17.088  0.00  0.00    +0.000 A 
ATOM     28  C   UNL     1      11.526  14.249  17.099  0.00  0.00    +0.000 A 
ATOM     29  C   UNL     1      10.887  15.333  17.693  0.00  0.00    +0.000 A 
ATOM     30  C   UNL     1       9.639  15.161  18.285  0.00  0.00    +0.000 A 
ATOM     31  C   UNL     1       9.037  13.902  18.265  0.00  0.00    +0.000 A 
ATOM     32  F   UNL     1       7.831  13.756  18.840  0.00  0.00    +0.000 F 
ENDBRANCH  23  26
ENDBRANCH  19  22
ENDBRANCH   1  19
TORSDOF 6
ENDMDL
MODEL 5
REMARK VINA RESULT:      -8.1      2.184      2.759
REMARK  Name = 
REMARK  6 active torsions:
REMARK  status: ('A' for Active; 'I' for Inactive)
REMARK    1  A    between atoms: N_3  and  C_4
REMARK    2  A    between atoms: C_4  and  C_5
REMARK    3  A    between atoms: C_8  and  C_9
REMARK    4  A    between atoms: N_10  and  O_11
REMARK    5  A    between atoms: N_12  and  C_13
REMARK    6  A    between atoms: N_21  and  C_22
REMARK                            x       y       z     vdW  Elec       q    Type
REMARK                         _______ _______ _______ _____ _____    ______ ____
ROOT
ATOM      1  C   UNL     1       5.992   5.352  17.500  0.00  0.00    +0.000 A 
ATOM      2  C   UNL     1       5.030   4.649  16.806  0.00  0.00    +0.000 A 
ATOM      3  C   UNL     1       3.902   4.347  17.613  0.00  0.00    +0.000 A 
ATOM      4  C   UNL     1       4.044   4.791  18.915  0.00  0.00    +0.000 A 
ATOM      5  S   UNL     1       5.528   5.612  19.130  0.00  0.00    +0.000 S 
ENDROOT
BRANCH   4   6
ATOM      6  C   UNL     1       3.099   4.584  20.022  0.00  0.00    +0.000 C 
ATOM      7  N   UNL     1       2.952   3.349  20.441  0.00  0.00    +0.000 NA
ATOM      8  N   UNL     1       2.455   5.639  20.649  0.00  0.00    +0.000 N 
ATOM      9  H   UNL     1       1.970   5.375  21.498  0.00  0.00    +0.000 HD
BRANCH   8  10
ATOM     10  C   UNL     1       2.018   6.824  20.027  0.00  0.00    +0.000 A 
ATOM     11  C   UNL     1       2.298   7.109  18.681  0.00  0.00    +0.000 A 
ATOM     12  C   UNL     1       2.028   8.365  18.136  0.00  0.00    +0.000 A 
ATOM     13  C   UNL     1       1.451   9.353  18.928  0.00  0.00    +0.000 A 
ATOM     14  C   UNL     1       1.117   9.062  20.250  0.00  0.00    +0.000 A 
ATOM     15 BR   UNL     1       0.346  10.410  21.330  0.00  0.00    +0.000 Br
ATOM     16  C   UNL     1       1.382   7.804  20.796  0.00  0.00    +0.000 A 
ENDBRANCH   8  10
BRANCH   7  17
ATOM     17  O   UNL     1       2.075   3.271  21.538  0.00  0.00    +0.000 OA
ATOM     18  H   UNL     1       1.207   3.197  21.093  0.00  0.00    +0.000 HD
ENDBRANCH   7  17
ENDBRANCH   4   6
BRANCH   1  19
ATOM     19  C   UNL     1       7.262   5.917  16.966  0.00  0.00    +0.000 C 
BRANCH  19  22
ATOM     20  O   UNL     1       8.501   7.542  18.710  0.00  0.00    +0.000 OA
ATOM     21  C   UNL     1       7.890   8.092  17.800  0.00  0.00    +0.000 C 
ATOM     22  N   UNL     1       7.189   7.358  16.877  0.00  0.00    +0.000 N 
ATOM     23  N   UNL     1       7.831   9.447  17.580  0.00  0.00    +0.000 N 
ATOM     24  H   UNL     1       6.700   7.796  16.113  0.00  0.00    +0.000 HD
ATOM     25  H   UNL     1       7.106   9.796  16.969  0.00  0.00    +0.000 HD
BRANCH  23  26
ATOM     26  C   UNL     1       8.583  10.429  18.275  0.00  0.00    +0.000 A 
ATOM     27  C   UNL     1       9.452  10.132  19.331  0.00  0.00    +0.000 A 
ATOM     28  C   UNL     1      10.193  11.143  19.949  0.00  0.00    +0.000 A 
ATOM     29  C   UNL     1      10.078  12.463  19.523  0.00  0.00    +0.000 A 
ATOM     30  C   UNL     1       9.214  12.778  18.477  0.00  0.00    +0.000 A 
ATOM     31  C   UNL     1       8.482  11.762  17.861  0.00  0.00    +0.000 A 
ATOM     32  F   UNL     1       7.655  12.085  16.853  0.00  0.00    +0.000 F 
ENDBRANCH  23  26
ENDBRANCH  19  22
ENDBRANCH   1  19
TORSDOF 6
ENDMDL
MODEL 6
REMARK VINA RESULT:      -8.1      2.699      3.297
REMARK  Name = 
REMARK  6 active torsions:
REMARK  status: ('A' for Active; 'I' for Inactive)
REMARK    1  A    between atoms: N_3  and  C_4
REMARK    2  A    between atoms: C_4  and  C_5
REMARK    3  A    between atoms: C_8  and  C_9
REMARK    4  A    between atoms: N_10  and  O_11
REMARK    5  A    between atoms: N_12  and  C_13
REMARK    6  A    between atoms: N_21  and  C_22
REMARK                            x       y       z     vdW  Elec       q    Type
REMARK                         _______ _______ _______ _____ _____    ______ ____
ROOT
ATOM      1  C   UNL     1       8.025   7.209  18.536  0.00  0.00    +0.000 A 
ATOM      2  C   UNL     1       8.040   5.928  19.046  0.00  0.00    +0.000 A 
ATOM      3  C   UNL     1       7.271   5.031  18.259  0.00  0.00    +0.000 A 
ATOM      4  C   UNL     1       6.655   5.653  17.188  0.00  0.00    +0.000 A 
ATOM      5  S   UNL     1       7.055   7.314  17.125  0.00  0.00    +0.000 S 
ENDROOT
BRANCH   4   6
ATOM      6  C   UNL     1       5.738   5.034  16.221  0.00  0.00    +0.000 C 
ATOM      7  N   UNL     1       6.172   4.932  14.987  0.00  0.00    +0.000 NA
ATOM      8  N   UNL     1       4.512   4.511  16.599  0.00  0.00    +0.000 N 
ATOM      9  H   UNL     1       4.059   3.966  15.875  0.00  0.00    +0.000 HD
BRANCH   8  10
ATOM     10  C   UNL     1       3.672   5.024  17.606  0.00  0.00    +0.000 A 
ATOM     11  C   UNL     1       3.341   6.386  17.681  0.00  0.00    +0.000 A 
ATOM     12  C   UNL     1       2.670   6.908  18.788  0.00  0.00    +0.000 A 
ATOM     13  C   UNL     1       2.301   6.066  19.832  0.00  0.00    +0.000 A 
ATOM     14  C   UNL     1       2.574   4.703  19.742  0.00  0.00    +0.000 A 
ATOM     15 BR   UNL     1       2.085   3.561  21.169  0.00  0.00    +0.000 Br
ATOM     16  C   UNL     1       3.241   4.177  18.633  0.00  0.00    +0.000 A 
ENDBRANCH   8  10
BRANCH   7  17
ATOM     17  O   UNL     1       5.243   4.273  14.159  0.00  0.00    +0.000 OA
ATOM     18  H   UNL     1       4.527   4.936  14.098  0.00  0.00    +0.000 HD
ENDBRANCH   7  17
ENDBRANCH   4   6
BRANCH   1  19
ATOM     19  C   UNL     1       8.781   8.391  19.034  0.00  0.00    +0.000 C 
BRANCH  19  22
ATOM     20  O   UNL     1       9.946  10.771  19.479  0.00  0.00    +0.000 OA
ATOM     21  C   UNL     1       9.153  10.724  18.545  0.00  0.00    +0.000 C 
ATOM     22  N   UNL     1       8.472   9.568  18.255  0.00  0.00    +0.000 N 
ATOM     23  N   UNL     1       8.856  11.761  17.694  0.00  0.00    +0.000 N 
ATOM     24  H   UNL     1       7.834   9.511  17.478  0.00  0.00    +0.000 HD
ATOM     25  H   UNL     1       8.019  11.689  17.134  0.00  0.00    +0.000 HD
BRANCH  23  26
ATOM     26  C   UNL     1       9.521  13.014  17.657  0.00  0.00    +0.000 A 
ATOM     27  C   UNL     1      10.781  13.202  17.078  0.00  0.00    +0.000 A 
ATOM     28  C   UNL     1      11.366  14.472  17.042  0.00  0.00    +0.000 A 
ATOM     29  C   UNL     1      10.701  15.569  17.582  0.00  0.00    +0.000 A 
ATOM     30  C   UNL     1       9.450  15.399  18.167  0.00  0.00    +0.000 A 
ATOM     31  C   UNL     1       8.870  14.130  18.195  0.00  0.00    +0.000 A 
ATOM     32  F   UNL     1       7.661  13.986  18.762  0.00  0.00    +0.000 F 
ENDBRANCH  23  26
ENDBRANCH  19  22
ENDBRANCH   1  19
TORSDOF 6
ENDMDL
MODEL 7
REMARK VINA RESULT:      -8.1      5.774      8.270
REMARK  Name = 
REMARK  6 active torsions:
REMARK  status: ('A' for Active; 'I' for Inactive)
REMARK    1  A    between atoms: N_3  and  C_4
REMARK    2  A    between atoms: C_4  and  C_5
REMARK    3  A    between atoms: C_8  and  C_9
REMARK    4  A    between atoms: N_10  and  O_11
REMARK    5  A    between atoms: N_12  and  C_13
REMARK    6  A    between atoms: N_21  and  C_22
REMARK                            x       y       z     vdW  Elec       q    Type
REMARK                         _______ _______ _______ _____ _____    ______ ____
ROOT
ATOM      1  C   UNL     1       1.203   8.011  20.721  0.00  0.00    +0.000 A 
ATOM      2  C   UNL     1       0.561   8.744  21.696  0.00  0.00    +0.000 A 
ATOM      3  C   UNL     1       0.283  10.070  21.271  0.00  0.00    +0.000 A 
ATOM      4  C   UNL     1       0.751  10.331  19.996  0.00  0.00    +0.000 A 
ATOM      5  S   UNL     1       1.486   8.947  19.312  0.00  0.00    +0.000 S 
ENDROOT
BRANCH   4   6
ATOM      6  C   UNL     1       0.692  11.615  19.285  0.00  0.00    +0.000 C 
ATOM      7  N   UNL     1       1.569  12.523  19.645  0.00  0.00    +0.000 NA
ATOM      8  N   UNL     1      -0.184  11.836  18.234  0.00  0.00    +0.000 N 
ATOM      9  H   UNL     1      -0.004  12.694  17.726  0.00  0.00    +0.000 HD
BRANCH   8  10
ATOM     10  C   UNL     1      -1.483  11.308  18.121  0.00  0.00    +0.000 A 
ATOM     11  C   UNL     1      -1.779  10.223  17.279  0.00  0.00    +0.000 A 
ATOM     12  C   UNL     1      -3.098   9.838  17.032  0.00  0.00    +0.000 A 
ATOM     13  C   UNL     1      -4.144  10.523  17.642  0.00  0.00    +0.000 A 
ATOM     14  C   UNL     1      -3.860  11.564  18.523  0.00  0.00    +0.000 A 
ATOM     15 BR   UNL     1      -5.283  12.504  19.341  0.00  0.00    +0.000 Br
ATOM     16  C   UNL     1      -2.541  11.949  18.777  0.00  0.00    +0.000 A 
ENDBRANCH   8  10
BRANCH   7  17
ATOM     17  O   UNL     1       1.465  13.689  18.862  0.00  0.00    +0.000 OA
ATOM     18  H   UNL     1       1.599  13.334  17.961  0.00  0.00    +0.000 HD
ENDBRANCH   7  17
ENDBRANCH   4   6
BRANCH   1  19
ATOM     19  C   UNL     1       1.572   6.569  20.769  0.00  0.00    +0.000 C 
BRANCH  19  22
ATOM     20  O   UNL     1       2.071   5.466  18.370  0.00  0.00    +0.000 OA
ATOM     21  C   UNL     1       3.052   5.823  19.014  0.00  0.00    +0.000 C 
ATOM     22  N   UNL     1       2.913   6.362  20.269  0.00  0.00    +0.000 N 
ATOM     23  N   UNL     1       4.357   5.749  18.593  0.00  0.00    +0.000 N 
ATOM     24  H   UNL     1       3.708   6.678  20.800  0.00  0.00    +0.000 HD
ATOM     25  H   UNL     1       5.084   5.830  19.289  0.00  0.00    +0.000 HD
BRANCH  23  26
ATOM     26  C   UNL     1       4.784   5.386  17.289  0.00  0.00    +0.000 A 
ATOM     27  C   UNL     1       5.088   6.318  16.290  0.00  0.00    +0.000 A 
ATOM     28  C   UNL     1       5.540   5.895  15.036  0.00  0.00    +0.000 A 
ATOM     29  C   UNL     1       5.693   4.539  14.763  0.00  0.00    +0.000 A 
ATOM     30  C   UNL     1       5.390   3.598  15.743  0.00  0.00    +0.000 A 
ATOM     31  C   UNL     1       4.945   4.028  16.994  0.00  0.00    +0.000 A 
ATOM     32  F   UNL     1       4.659   3.105  17.928  0.00  0.00    +0.000 F 
ENDBRANCH  23  26
ENDBRANCH  19  22
ENDBRANCH   1  19
TORSDOF 6
ENDMDL
MODEL 8
REMARK VINA RESULT:      -8.1      5.498      6.894
REMARK  Name = 
REMARK  6 active torsions:
REMARK  status: ('A' for Active; 'I' for Inactive)
REMARK    1  A    between atoms: N_3  and  C_4
REMARK    2  A    between atoms: C_4  and  C_5
REMARK    3  A    between atoms: C_8  and  C_9
REMARK    4  A    between atoms: N_10  and  O_11
REMARK    5  A    between atoms: N_12  and  C_13
REMARK    6  A    between atoms: N_21  and  C_22
REMARK                            x       y       z     vdW  Elec       q    Type
REMARK                         _______ _______ _______ _____ _____    ______ ____
ROOT
ATOM      1  C   UNL     1       3.143   7.548  17.963  0.00  0.00    +0.000 A 
ATOM      2  C   UNL     1       3.875   7.681  16.802  0.00  0.00    +0.000 A 
ATOM      3  C   UNL     1       4.906   6.710  16.706  0.00  0.00    +0.000 A 
ATOM      4  C   UNL     1       4.964   5.882  17.813  0.00  0.00    +0.000 A 
ATOM      5  S   UNL     1       3.734   6.265  18.937  0.00  0.00    +0.000 S 
ENDROOT
BRANCH   4   6
ATOM      6  C   UNL     1       5.950   4.823  18.066  0.00  0.00    +0.000 C 
ATOM      7  N   UNL     1       7.158   5.025  17.595  0.00  0.00    +0.000 NA
ATOM      8  N   UNL     1       5.652   3.705  18.828  0.00  0.00    +0.000 N 
ATOM      9  H   UNL     1       6.462   3.144  19.066  0.00  0.00    +0.000 HD
BRANCH   8  10
ATOM     10  C   UNL     1       4.407   3.049  18.877  0.00  0.00    +0.000 A 
ATOM     11  C   UNL     1       3.791   2.528  17.728  0.00  0.00    +0.000 A 
ATOM     12  C   UNL     1       2.478   2.056  17.762  0.00  0.00    +0.000 A 
ATOM     13  C   UNL     1       1.765   2.080  18.957  0.00  0.00    +0.000 A 
ATOM     14  C   UNL     1       2.387   2.542  20.116  0.00  0.00    +0.000 A 
ATOM     15 BR   UNL     1       1.413   2.587  21.737  0.00  0.00    +0.000 Br
ATOM     16  C   UNL     1       3.703   3.010  20.085  0.00  0.00    +0.000 A 
ENDBRANCH   8  10
BRANCH   7  17
ATOM     17  O   UNL     1       8.036   3.981  17.944  0.00  0.00    +0.000 OA
ATOM     18  H   UNL     1       8.290   4.232  18.855  0.00  0.00    +0.000 HD
ENDBRANCH   7  17
ENDBRANCH   4   6
BRANCH   1  19
ATOM     19  C   UNL     1       1.936   8.321  18.367  0.00  0.00    +0.000 C 
BRANCH  19  22
ATOM     20  O   UNL     1       1.026  10.486  19.672  0.00  0.00    +0.000 OA
ATOM     21  C   UNL     1       1.497  10.686  18.558  0.00  0.00    +0.000 C 
ATOM     22  N   UNL     1       1.954   9.645  17.788  0.00  0.00    +0.000 N 
ATOM     23  N   UNL     1       1.636  11.913  17.956  0.00  0.00    +0.000 N 
ATOM     24  H   UNL     1       2.361   9.798  16.879  0.00  0.00    +0.000 HD
ATOM     25  H   UNL     1       1.795  11.936  16.958  0.00  0.00    +0.000 HD
BRANCH  23  26
ATOM     26  C   UNL     1       1.399  13.167  18.575  0.00  0.00    +0.000 A 
ATOM     27  C   UNL     1       2.385  13.890  19.257  0.00  0.00    +0.000 A 
ATOM     28  C   UNL     1       2.094  15.139  19.814  0.00  0.00    +0.000 A 
ATOM     29  C   UNL     1       0.819  15.683  19.698  0.00  0.00    +0.000 A 
ATOM     30  C   UNL     1      -0.176  14.976  19.028  0.00  0.00    +0.000 A 
ATOM     31  C   UNL     1       0.123  13.732  18.470  0.00  0.00    +0.000 A 
ATOM     32  F   UNL     1      -0.849  13.065  17.825  0.00  0.00    +0.000 F 
ENDBRANCH  23  26
ENDBRANCH  19  22
ENDBRANCH   1  19
TORSDOF 6
ENDMDL
MODEL 9
REMARK VINA RESULT:      -8.1      6.616      9.436
REMARK  Name = 
REMARK  6 active torsions:
REMARK  status: ('A' for Active; 'I' for Inactive)
REMARK    1  A    between atoms: N_3  and  C_4
REMARK    2  A    between atoms: C_4  and  C_5
REMARK    3  A    between atoms: C_8  and  C_9
REMARK    4  A    between atoms: N_10  and  O_11
REMARK    5  A    between atoms: N_12  and  C_13
REMARK    6  A    between atoms: N_21  and  C_22
REMARK                            x       y       z     vdW  Elec       q    Type
REMARK                         _______ _______ _______ _____ _____    ______ ____
ROOT
ATOM      1  C   UNL     1       0.404   9.671  21.161  0.00  0.00    +0.000 A 
ATOM      2  C   UNL     1      -0.313  10.492  22.005  0.00  0.00    +0.000 A 
ATOM      3  C   UNL     1      -0.788  11.654  21.344  0.00  0.00    +0.000 A 
ATOM      4  C   UNL     1      -0.393  11.715  20.020  0.00  0.00    +0.000 A 
ATOM      5  S   UNL     1       0.516  10.333  19.583  0.00  0.00    +0.000 S 
ENDROOT
BRANCH   4   6
ATOM      6  C   UNL     1      -0.652  12.809  19.074  0.00  0.00    +0.000 C 
ATOM      7  N   UNL     1      -0.238  14.001  19.433  0.00  0.00    +0.000 NA
ATOM      8  N   UNL     1      -1.229  12.590  17.834  0.00  0.00    +0.000 N 
ATOM      9  H   UNL     1      -1.193  13.395  17.219  0.00  0.00    +0.000 HD
BRANCH   8  10
ATOM     10  C   UNL     1      -2.214  11.629  17.541  0.00  0.00    +0.000 A 
ATOM     11  C   UNL     1      -1.990  10.579  16.637  0.00  0.00    +0.000 A 
ATOM     12  C   UNL     1      -3.032   9.752  16.213  0.00  0.00    +0.000 A 
ATOM     13  C   UNL     1      -4.317   9.953  16.708  0.00  0.00    +0.000 A 
ATOM     14  C   UNL     1      -4.540  10.956  17.649  0.00  0.00    +0.000 A 
ATOM     15 BR   UNL     1      -6.290  11.237  18.310  0.00  0.00    +0.000 Br
ATOM     16  C   UNL     1      -3.497  11.781  18.078  0.00  0.00    +0.000 A 
ENDBRANCH   8  10
BRANCH   7  17
ATOM     17  O   UNL     1      -0.481  14.962  18.434  0.00  0.00    +0.000 OA
ATOM     18  H   UNL     1      -1.454  15.049  18.476  0.00  0.00    +0.000 HD
ENDBRANCH   7  17
ENDBRANCH   4   6
BRANCH   1  19
ATOM     19  C   UNL     1       0.977   8.331  21.471  0.00  0.00    +0.000 C 
BRANCH  19  22
ATOM     20  O   UNL     1       1.628   5.747  21.129  0.00  0.00    +0.000 OA
ATOM     21  C   UNL     1       2.078   6.532  20.301  0.00  0.00    +0.000 C 
ATOM     22  N   UNL     1       1.840   7.880  20.404  0.00  0.00    +0.000 N 
ATOM     23  N   UNL     1       2.835   6.193  19.206  0.00  0.00    +0.000 N 
ATOM     24  H   UNL     1       2.187   8.532  19.719  0.00  0.00    +0.000 HD
ATOM     25  H   UNL     1       3.356   6.926  18.745  0.00  0.00    +0.000 HD
BRANCH  23  26
ATOM     26  C   UNL     1       3.101   4.871  18.763  0.00  0.00    +0.000 A 
ATOM     27  C   UNL     1       4.177   4.104  19.225  0.00  0.00    +0.000 A 
ATOM     28  C   UNL     1       4.361   2.793  18.776  0.00  0.00    +0.000 A 
ATOM     29  C   UNL     1       3.475   2.230  17.862  0.00  0.00    +0.000 A 
ATOM     30  C   UNL     1       2.403   2.980  17.387  0.00  0.00    +0.000 A 
ATOM     31  C   UNL     1       2.222   4.287  17.844  0.00  0.00    +0.000 A 
ATOM     32  F   UNL     1       1.180   4.995  17.377  0.00  0.00    +0.000 F 
ENDBRANCH  23  26
ENDBRANCH  19  22
ENDBRANCH   1  19
TORSDOF 6
ENDMDL
