MODEL 1
REMARK VINA RESULT:      -7.0      0.000      0.000
REMARK  Name = 
REMARK  11 active torsions:
REMARK  status: ('A' for Active; 'I' for Inactive)
REMARK    1  A    between atoms: C_1  and  O_2
REMARK    2  A    between atoms: O_2  and  C_3
REMARK    3  A    between atoms: C_4  and  C_5
REMARK    4  A    between atoms: C_5  and  C_6
REMARK    5  A    between atoms: C_7  and  C_8
REMARK    6  A    between atoms: C_7  and  C_9
REMARK    7  A    between atoms: C_9  and  C_10
REMARK    8  A    between atoms: C_10  and  C_11
REMARK    9  A    between atoms: C_11  and  O_13
REMARK   10  A    between atoms: C_17  and  C_18
REMARK   11  A    between atoms: C_19  and  C_20
REMARK                            x       y       z     vdW  Elec       q    Type
REMARK                         _______ _______ _______ _____ _____    ______ ____
ROOT
ATOM      1  C   UNL     1       3.174   6.233  18.359  0.00  0.00    +0.000 A 
ATOM      2  C   UNL     1       3.915   5.488  17.418  0.00  0.00    +0.000 A 
ATOM      3  C   UNL     1       3.730   4.096  17.397  0.00  0.00    +0.000 A 
ATOM      4  C   UNL     1       2.896   3.446  18.311  0.00  0.00    +0.000 A 
ATOM      5 CL   UNL     1       2.780   1.726  18.151  0.00  0.00    +0.000 Cl
ATOM      6  C   UNL     1       2.208   4.168  19.298  0.00  0.00    +0.000 A 
ATOM      7  C   UNL     1       1.322   3.473  20.300  0.00  0.00    +0.000 C 
ATOM      8  C   UNL     1       2.353   5.582  19.321  0.00  0.00    +0.000 A 
ATOM      9  C   UNL     1       1.678   6.418  20.387  0.00  0.00    +0.000 C 
ENDROOT
BRANCH   1  11
ATOM     10  C   UNL     1       2.296   8.342  17.702  0.00  0.00    +0.000 C 
ATOM     11  O   UNL     1       3.249   7.603  18.468  0.00  0.00    +0.000 OA
ENDBRANCH   1  11
BRANCH   2  12
ATOM     12  C   UNL     1       4.859   6.131  16.424  0.00  0.00    +0.000 C 
BRANCH  12  13
ATOM     13  C   UNL     1       5.983   6.950  17.006  0.00  0.00    +0.000 C 
ATOM     14  C   UNL     1       7.112   6.502  17.583  0.00  0.00    +0.000 C 
ATOM     15  C   UNL     1       7.486   5.046  17.712  0.00  0.00    +0.000 C 
BRANCH  14  16
ATOM     16  C   UNL     1       8.076   7.503  18.184  0.00  0.00    +0.000 C 
BRANCH  16  17
ATOM     17  C   UNL     1       7.884   8.928  17.668  0.00  0.00    +0.000 C 
BRANCH  17  18
ATOM     18  C   UNL     1       8.798   9.884  18.395  0.00  0.00    +0.000 C 
ATOM     19  O   UNL     1       9.159  10.979  17.981  0.00  0.00    +0.000 OA
BRANCH  18  20
ATOM     20  O   UNL     1       9.194   9.408  19.597  0.00  0.00    +0.000 OA
ATOM     21  H   UNL     1      10.158   9.278  19.669  0.00  0.00    +0.000 HD
ENDBRANCH  18  20
ENDBRANCH  17  18
ENDBRANCH  16  17
ENDBRANCH  14  16
ENDBRANCH  12  13
ENDBRANCH   2  12
TORSDOF 7
ENDMDL
MODEL 2
REMARK VINA RESULT:      -6.9      3.235      4.510
REMARK  Name = 
REMARK  11 active torsions:
REMARK  status: ('A' for Active; 'I' for Inactive)
REMARK    1  A    between atoms: C_1  and  O_2
REMARK    2  A    between atoms: O_2  and  C_3
REMARK    3  A    between atoms: C_4  and  C_5
REMARK    4  A    between atoms: C_5  and  C_6
REMARK    5  A    between atoms: C_7  and  C_8
REMARK    6  A    between atoms: C_7  and  C_9
REMARK    7  A    between atoms: C_9  and  C_10
REMARK    8  A    between atoms: C_10  and  C_11
REMARK    9  A    between atoms: C_11  and  O_13
REMARK   10  A    between atoms: C_17  and  C_18
REMARK   11  A    between atoms: C_19  and  C_20
REMARK                            x       y       z     vdW  Elec       q    Type
REMARK                         _______ _______ _______ _____ _____    ______ ____
ROOT
ATOM      1  C   UNL     1       2.892   6.279  18.869  0.00  0.00    +0.000 A 
ATOM      2  C   UNL     1       3.727   5.664  17.913  0.00  0.00    +0.000 A 
ATOM      3  C   UNL     1       3.670   4.266  17.801  0.00  0.00    +0.000 A 
ATOM      4  C   UNL     1       2.872   3.487  18.643  0.00  0.00    +0.000 A 
ATOM      5 CL   UNL     1       2.918   1.777  18.376  0.00  0.00    +0.000 Cl
ATOM      6  C   UNL     1       2.090   4.080  19.647  0.00  0.00    +0.000 A 
ATOM      7  C   UNL     1       1.242   3.246  20.573  0.00  0.00    +0.000 C 
ATOM      8  C   UNL     1       2.105   5.498  19.761  0.00  0.00    +0.000 A 
ATOM      9  C   UNL     1       1.324   6.200  20.851  0.00  0.00    +0.000 C 
ENDROOT
BRANCH   1  11
ATOM     10  C   UNL     1       2.072   8.376  18.110  0.00  0.00    +0.000 C 
ATOM     11  O   UNL     1       2.838   7.640  19.064  0.00  0.00    +0.000 OA
ENDBRANCH   1  11
BRANCH   2  12
ATOM     12  C   UNL     1       4.637   6.451  16.994  0.00  0.00    +0.000 C 
BRANCH  12  13
ATOM     13  C   UNL     1       5.155   5.717  15.783  0.00  0.00    +0.000 C 
ATOM     14  C   UNL     1       6.318   5.052  15.660  0.00  0.00    +0.000 C 
ATOM     15  C   UNL     1       7.324   4.880  16.771  0.00  0.00    +0.000 C 
BRANCH  14  16
ATOM     16  C   UNL     1       6.685   4.457  14.317  0.00  0.00    +0.000 C 
BRANCH  16  17
ATOM     17  C   UNL     1       5.558   3.651  13.673  0.00  0.00    +0.000 C 
BRANCH  17  18
ATOM     18  C   UNL     1       5.893   3.323  12.238  0.00  0.00    +0.000 C 
ATOM     19  O   UNL     1       7.022   3.250  11.769  0.00  0.00    +0.000 OA
BRANCH  18  20
ATOM     20  O   UNL     1       4.790   3.102  11.488  0.00  0.00    +0.000 OA
ATOM     21  H   UNL     1       4.889   3.372  10.555  0.00  0.00    +0.000 HD
ENDBRANCH  18  20
ENDBRANCH  17  18
ENDBRANCH  16  17
ENDBRANCH  14  16
ENDBRANCH  12  13
ENDBRANCH   2  12
TORSDOF 7
ENDMDL
MODEL 3
REMARK VINA RESULT:      -6.7      3.144      6.403
REMARK  Name = 
REMARK  11 active torsions:
REMARK  status: ('A' for Active; 'I' for Inactive)
REMARK    1  A    between atoms: C_1  and  O_2
REMARK    2  A    between atoms: O_2  and  C_3
REMARK    3  A    between atoms: C_4  and  C_5
REMARK    4  A    between atoms: C_5  and  C_6
REMARK    5  A    between atoms: C_7  and  C_8
REMARK    6  A    between atoms: C_7  and  C_9
REMARK    7  A    between atoms: C_9  and  C_10
REMARK    8  A    between atoms: C_10  and  C_11
REMARK    9  A    between atoms: C_11  and  O_13
REMARK   10  A    between atoms: C_17  and  C_18
REMARK   11  A    between atoms: C_19  and  C_20
REMARK                            x       y       z     vdW  Elec       q    Type
REMARK                         _______ _______ _______ _____ _____    ______ ____
ROOT
ATOM      1  C   UNL     1       4.112   5.977  17.225  0.00  0.00    +0.000 A 
ATOM      2  C   UNL     1       3.076   6.653  17.901  0.00  0.00    +0.000 A 
ATOM      3  C   UNL     1       2.171   5.880  18.646  0.00  0.00    +0.000 A 
ATOM      4  C   UNL     1       2.236   4.485  18.675  0.00  0.00    +0.000 A 
ATOM      5 CL   UNL     1       1.044   3.683  19.640  0.00  0.00    +0.000 Cl
ATOM      6  C   UNL     1       3.219   3.795  17.950  0.00  0.00    +0.000 A 
ATOM      7  C   UNL     1       3.285   2.289  17.959  0.00  0.00    +0.000 C 
ATOM      8  C   UNL     1       4.168   4.554  17.212  0.00  0.00    +0.000 A 
ATOM      9  C   UNL     1       5.225   3.875  16.368  0.00  0.00    +0.000 C 
ENDROOT
BRANCH   1  11
ATOM     10  C   UNL     1       6.238   7.039  17.192  0.00  0.00    +0.000 C 
ATOM     11  O   UNL     1       5.074   6.618  16.479  0.00  0.00    +0.000 OA
ENDBRANCH   1  11
BRANCH   2  12
ATOM     12  C   UNL     1       2.932   8.160  17.882  0.00  0.00    +0.000 C 
BRANCH  12  13
ATOM     13  C   UNL     1       1.553   8.701  18.163  0.00  0.00    +0.000 C 
ATOM     14  C   UNL     1       1.185   9.990  18.282  0.00  0.00    +0.000 C 
ATOM     15  C   UNL     1       2.115  11.164  18.102  0.00  0.00    +0.000 C 
BRANCH  14  16
ATOM     16  C   UNL     1      -0.246  10.312  18.657  0.00  0.00    +0.000 C 
BRANCH  16  17
ATOM     17  C   UNL     1      -1.250  10.045  17.537  0.00  0.00    +0.000 C 
BRANCH  17  18
ATOM     18  C   UNL     1      -2.096  11.269  17.279  0.00  0.00    +0.000 C 
ATOM     19  O   UNL     1      -3.297  11.267  17.039  0.00  0.00    +0.000 OA
BRANCH  18  20
ATOM     20  O   UNL     1      -1.380  12.415  17.345  0.00  0.00    +0.000 OA
ATOM     21  H   UNL     1      -1.835  13.184  16.952  0.00  0.00    +0.000 HD
ENDBRANCH  18  20
ENDBRANCH  17  18
ENDBRANCH  16  17
ENDBRANCH  14  16
ENDBRANCH  12  13
ENDBRANCH   2  12
TORSDOF 7
ENDMDL
MODEL 4
REMARK VINA RESULT:      -6.6      2.988      6.118
REMARK  Name = 
REMARK  11 active torsions:
REMARK  status: ('A' for Active; 'I' for Inactive)
REMARK    1  A    between atoms: C_1  and  O_2
REMARK    2  A    between atoms: O_2  and  C_3
REMARK    3  A    between atoms: C_4  and  C_5
REMARK    4  A    between atoms: C_5  and  C_6
REMARK    5  A    between atoms: C_7  and  C_8
REMARK    6  A    between atoms: C_7  and  C_9
REMARK    7  A    between atoms: C_9  and  C_10
REMARK    8  A    between atoms: C_10  and  C_11
REMARK    9  A    between atoms: C_11  and  O_13
REMARK   10  A    between atoms: C_17  and  C_18
REMARK   11  A    between atoms: C_19  and  C_20
REMARK                            x       y       z     vdW  Elec       q    Type
REMARK                         _______ _______ _______ _____ _____    ______ ____
ROOT
ATOM      1  C   UNL     1       3.719   5.836  17.530  0.00  0.00    +0.000 A 
ATOM      2  C   UNL     1       2.753   6.518  18.297  0.00  0.00    +0.000 A 
ATOM      3  C   UNL     1       1.957   5.757  19.169  0.00  0.00    +0.000 A 
ATOM      4  C   UNL     1       2.057   4.365  19.239  0.00  0.00    +0.000 A 
ATOM      5 CL   UNL     1       1.002   3.578  20.362  0.00  0.00    +0.000 Cl
ATOM      6  C   UNL     1       2.965   3.667  18.429  0.00  0.00    +0.000 A 
ATOM      7  C   UNL     1       3.066   2.164  18.483  0.00  0.00    +0.000 C 
ATOM      8  C   UNL     1       3.806   4.416  17.560  0.00  0.00    +0.000 A 
ATOM      9  C   UNL     1       4.774   3.725  16.624  0.00  0.00    +0.000 C 
ENDROOT
BRANCH   1  11
ATOM     10  C   UNL     1       5.809   6.921  17.210  0.00  0.00    +0.000 C 
ATOM     11  O   UNL     1       4.574   6.467  16.655  0.00  0.00    +0.000 OA
ENDBRANCH   1  11
BRANCH   2  12
ATOM     12  C   UNL     1       2.574   8.020  18.242  0.00  0.00    +0.000 C 
BRANCH  12  13
ATOM     13  C   UNL     1       1.792   8.640  19.373  0.00  0.00    +0.000 C 
ATOM     14  C   UNL     1       0.736   9.469  19.284  0.00  0.00    +0.000 C 
ATOM     15  C   UNL     1       0.097   9.902  17.988  0.00  0.00    +0.000 C 
BRANCH  14  16
ATOM     16  C   UNL     1       0.151  10.049  20.554  0.00  0.00    +0.000 C 
BRANCH  16  17
ATOM     17  C   UNL     1      -0.014   9.028  21.679  0.00  0.00    +0.000 C 
BRANCH  17  18
ATOM     18  C   UNL     1      -0.281   9.723  22.992  0.00  0.00    +0.000 C 
ATOM     19  O   UNL     1      -1.279  10.380  23.261  0.00  0.00    +0.000 OA
BRANCH  18  20
ATOM     20  O   UNL     1       0.719   9.543  23.884  0.00  0.00    +0.000 OA
ATOM     21  H   UNL     1       0.651   8.709  24.387  0.00  0.00    +0.000 HD
ENDBRANCH  18  20
ENDBRANCH  17  18
ENDBRANCH  16  17
ENDBRANCH  14  16
ENDBRANCH  12  13
ENDBRANCH   2  12
TORSDOF 7
ENDMDL
MODEL 5
REMARK VINA RESULT:      -6.6      4.271      5.556
REMARK  Name = 
REMARK  11 active torsions:
REMARK  status: ('A' for Active; 'I' for Inactive)
REMARK    1  A    between atoms: C_1  and  O_2
REMARK    2  A    between atoms: O_2  and  C_3
REMARK    3  A    between atoms: C_4  and  C_5
REMARK    4  A    between atoms: C_5  and  C_6
REMARK    5  A    between atoms: C_7  and  C_8
REMARK    6  A    between atoms: C_7  and  C_9
REMARK    7  A    between atoms: C_9  and  C_10
REMARK    8  A    between atoms: C_10  and  C_11
REMARK    9  A    between atoms: C_11  and  O_13
REMARK   10  A    between atoms: C_17  and  C_18
REMARK   11  A    between atoms: C_19  and  C_20
REMARK                            x       y       z     vdW  Elec       q    Type
REMARK                         _______ _______ _______ _____ _____    ______ ____
ROOT
ATOM      1  C   UNL     1       3.237   3.830  19.243  0.00  0.00    +0.000 A 
ATOM      2  C   UNL     1       3.772   4.221  17.999  0.00  0.00    +0.000 A 
ATOM      3  C   UNL     1       3.660   5.574  17.637  0.00  0.00    +0.000 A 
ATOM      4  C   UNL     1       2.988   6.501  18.438  0.00  0.00    +0.000 A 
ATOM      5 CL   UNL     1       2.937   8.127  17.847  0.00  0.00    +0.000 Cl
ATOM      6  C   UNL     1       2.390   6.110  19.646  0.00  0.00    +0.000 A 
ATOM      7  C   UNL     1       1.645   7.100  20.506  0.00  0.00    +0.000 C 
ATOM      8  C   UNL     1       2.516   4.753  20.051  0.00  0.00    +0.000 A 
ATOM      9  C   UNL     1       1.855   4.253  21.317  0.00  0.00    +0.000 C 
ENDROOT
BRANCH   1  11
ATOM     10  C   UNL     1       4.531   2.167  20.344  0.00  0.00    +0.000 C 
ATOM     11  O   UNL     1       3.300   2.541  19.723  0.00  0.00    +0.000 OA
ENDBRANCH   1  11
BRANCH   2  12
ATOM     12  C   UNL     1       4.482   3.257  17.072  0.00  0.00    +0.000 C 
BRANCH  12  13
ATOM     13  C   UNL     1       4.812   3.777  15.696  0.00  0.00    +0.000 C 
ATOM     14  C   UNL     1       5.979   4.293  15.270  0.00  0.00    +0.000 C 
ATOM     15  C   UNL     1       7.223   4.403  16.116  0.00  0.00    +0.000 C 
BRANCH  14  16
ATOM     16  C   UNL     1       6.068   4.840  13.861  0.00  0.00    +0.000 C 
BRANCH  16  17
ATOM     17  C   UNL     1       6.698   3.871  12.863  0.00  0.00    +0.000 C 
BRANCH  17  18
ATOM     18  C   UNL     1       5.630   3.100  12.124  0.00  0.00    +0.000 C 
ATOM     19  O   UNL     1       4.507   3.513  11.861  0.00  0.00    +0.000 OA
BRANCH  18  20
ATOM     20  O   UNL     1       6.044   1.866  11.758  0.00  0.00    +0.000 OA
ATOM     21  H   UNL     1       5.314   1.231  11.629  0.00  0.00    +0.000 HD
ENDBRANCH  18  20
ENDBRANCH  17  18
ENDBRANCH  16  17
ENDBRANCH  14  16
ENDBRANCH  12  13
ENDBRANCH   2  12
TORSDOF 7
ENDMDL
MODEL 6
REMARK VINA RESULT:      -6.6      3.112      6.182
REMARK  Name = 
REMARK  11 active torsions:
REMARK  status: ('A' for Active; 'I' for Inactive)
REMARK    1  A    between atoms: C_1  and  O_2
REMARK    2  A    between atoms: O_2  and  C_3
REMARK    3  A    between atoms: C_4  and  C_5
REMARK    4  A    between atoms: C_5  and  C_6
REMARK    5  A    between atoms: C_7  and  C_8
REMARK    6  A    between atoms: C_7  and  C_9
REMARK    7  A    between atoms: C_9  and  C_10
REMARK    8  A    between atoms: C_10  and  C_11
REMARK    9  A    between atoms: C_11  and  O_13
REMARK   10  A    between atoms: C_17  and  C_18
REMARK   11  A    between atoms: C_19  and  C_20
REMARK                            x       y       z     vdW  Elec       q    Type
REMARK                         _______ _______ _______ _____ _____    ______ ____
ROOT
ATOM      1  C   UNL     1       3.992   5.927  17.294  0.00  0.00    +0.000 A 
ATOM      2  C   UNL     1       3.053   6.666  18.043  0.00  0.00    +0.000 A 
ATOM      3  C   UNL     1       2.155   5.950  18.851  0.00  0.00    +0.000 A 
ATOM      4  C   UNL     1       2.131   4.553  18.875  0.00  0.00    +0.000 A 
ATOM      5 CL   UNL     1       0.961   3.825  19.922  0.00  0.00    +0.000 Cl
ATOM      6  C   UNL     1       3.013   3.804  18.080  0.00  0.00    +0.000 A 
ATOM      7  C   UNL     1       2.981   2.297  18.084  0.00  0.00    +0.000 C 
ATOM      8  C   UNL     1       3.954   4.504  17.277  0.00  0.00    +0.000 A 
ATOM      9  C   UNL     1       4.902   3.762  16.360  0.00  0.00    +0.000 C 
ENDROOT
BRANCH   1  11
ATOM     10  C   UNL     1       6.142   6.925  17.126  0.00  0.00    +0.000 C 
ATOM     11  O   UNL     1       4.938   6.508  16.481  0.00  0.00    +0.000 OA
ENDBRANCH   1  11
BRANCH   2  12
ATOM     12  C   UNL     1       3.006   8.179  18.035  0.00  0.00    +0.000 C 
BRANCH  12  13
ATOM     13  C   UNL     1       1.679   8.802  17.683  0.00  0.00    +0.000 C 
ATOM     14  C   UNL     1       0.796   9.380  18.517  0.00  0.00    +0.000 C 
ATOM     15  C   UNL     1       1.009   9.552  20.001  0.00  0.00    +0.000 C 
BRANCH  14  16
ATOM     16  C   UNL     1      -0.525   9.868  17.962  0.00  0.00    +0.000 C 
BRANCH  16  17
ATOM     17  C   UNL     1      -1.188  10.950  18.812  0.00  0.00    +0.000 C 
BRANCH  17  18
ATOM     18  C   UNL     1      -1.186  12.273  18.086  0.00  0.00    +0.000 C 
ATOM     19  O   UNL     1      -0.668  13.307  18.491  0.00  0.00    +0.000 OA
BRANCH  18  20
ATOM     20  O   UNL     1      -1.826  12.211  16.897  0.00  0.00    +0.000 OA
ATOM     21  H   UNL     1      -2.277  13.041  16.651  0.00  0.00    +0.000 HD
ENDBRANCH  18  20
ENDBRANCH  17  18
ENDBRANCH  16  17
ENDBRANCH  14  16
ENDBRANCH  12  13
ENDBRANCH   2  12
TORSDOF 7
ENDMDL
MODEL 7
REMARK VINA RESULT:      -6.5      2.024      2.263
REMARK  Name = 
REMARK  11 active torsions:
REMARK  status: ('A' for Active; 'I' for Inactive)
REMARK    1  A    between atoms: C_1  and  O_2
REMARK    2  A    between atoms: O_2  and  C_3
REMARK    3  A    between atoms: C_4  and  C_5
REMARK    4  A    between atoms: C_5  and  C_6
REMARK    5  A    between atoms: C_7  and  C_8
REMARK    6  A    between atoms: C_7  and  C_9
REMARK    7  A    between atoms: C_9  and  C_10
REMARK    8  A    between atoms: C_10  and  C_11
REMARK    9  A    between atoms: C_11  and  O_13
REMARK   10  A    between atoms: C_17  and  C_18
REMARK   11  A    between atoms: C_19  and  C_20
REMARK                            x       y       z     vdW  Elec       q    Type
REMARK                         _______ _______ _______ _____ _____    ______ ____
ROOT
ATOM      1  C   UNL     1       2.587   6.320  18.892  0.00  0.00    +0.000 A 
ATOM      2  C   UNL     1       3.247   5.673  17.828  0.00  0.00    +0.000 A 
ATOM      3  C   UNL     1       3.156   4.274  17.758  0.00  0.00    +0.000 A 
ATOM      4  C   UNL     1       2.496   3.525  18.736  0.00  0.00    +0.000 A 
ATOM      5 CL   UNL     1       2.478   1.809  18.503  0.00  0.00    +0.000 Cl
ATOM      6  C   UNL     1       1.895   4.150  19.838  0.00  0.00    +0.000 A 
ATOM      7  C   UNL     1       1.199   3.349  20.909  0.00  0.00    +0.000 C 
ATOM      8  C   UNL     1       1.945   5.569  19.917  0.00  0.00    +0.000 A 
ATOM      9  C   UNL     1       1.360   6.306  21.102  0.00  0.00    +0.000 C 
ENDROOT
BRANCH   1  11
ATOM     10  C   UNL     1       1.829   8.430  18.103  0.00  0.00    +0.000 C 
ATOM     11  O   UNL     1       2.581   7.686  19.062  0.00  0.00    +0.000 OA
ENDBRANCH   1  11
BRANCH   2  12
ATOM     12  C   UNL     1       4.005   6.427  16.755  0.00  0.00    +0.000 C 
BRANCH  12  13
ATOM     13  C   UNL     1       5.409   6.852  17.107  0.00  0.00    +0.000 C 
ATOM     14  C   UNL     1       6.563   6.351  16.631  0.00  0.00    +0.000 C 
ATOM     15  C   UNL     1       6.656   5.263  15.589  0.00  0.00    +0.000 C 
BRANCH  14  16
ATOM     16  C   UNL     1       7.872   6.868  17.188  0.00  0.00    +0.000 C 
BRANCH  16  17
ATOM     17  C   UNL     1       7.927   6.888  18.714  0.00  0.00    +0.000 C 
BRANCH  17  18
ATOM     18  C   UNL     1       8.037   5.485  19.260  0.00  0.00    +0.000 C 
ATOM     19  O   UNL     1       8.090   4.462  18.589  0.00  0.00    +0.000 OA
BRANCH  18  20
ATOM     20  O   UNL     1       8.078   5.458  20.612  0.00  0.00    +0.000 OA
ATOM     21  H   UNL     1       7.711   6.260  21.031  0.00  0.00    +0.000 HD
ENDBRANCH  18  20
ENDBRANCH  17  18
ENDBRANCH  16  17
ENDBRANCH  14  16
ENDBRANCH  12  13
ENDBRANCH   2  12
TORSDOF 7
ENDMDL
MODEL 8
REMARK VINA RESULT:      -6.3      3.759      5.262
REMARK  Name = 
REMARK  11 active torsions:
REMARK  status: ('A' for Active; 'I' for Inactive)
REMARK    1  A    between atoms: C_1  and  O_2
REMARK    2  A    between atoms: O_2  and  C_3
REMARK    3  A    between atoms: C_4  and  C_5
REMARK    4  A    between atoms: C_5  and  C_6
REMARK    5  A    between atoms: C_7  and  C_8
REMARK    6  A    between atoms: C_7  and  C_9
REMARK    7  A    between atoms: C_9  and  C_10
REMARK    8  A    between atoms: C_10  and  C_11
REMARK    9  A    between atoms: C_11  and  O_13
REMARK   10  A    between atoms: C_17  and  C_18
REMARK   11  A    between atoms: C_19  and  C_20
REMARK                            x       y       z     vdW  Elec       q    Type
REMARK                         _______ _______ _______ _____ _____    ______ ____
ROOT
ATOM      1  C   UNL     1       2.806   5.068  18.604  0.00  0.00    +0.000 A 
ATOM      2  C   UNL     1       4.039   4.638  18.071  0.00  0.00    +0.000 A 
ATOM      3  C   UNL     1       4.647   3.516  18.658  0.00  0.00    +0.000 A 
ATOM      4  C   UNL     1       4.100   2.875  19.772  0.00  0.00    +0.000 A 
ATOM      5 CL   UNL     1       4.975   1.508  20.375  0.00  0.00    +0.000 Cl
ATOM      6  C   UNL     1       2.910   3.335  20.356  0.00  0.00    +0.000 A 
ATOM      7  C   UNL     1       2.323   2.662  21.571  0.00  0.00    +0.000 C 
ATOM      8  C   UNL     1       2.257   4.450  19.763  0.00  0.00    +0.000 A 
ATOM      9  C   UNL     1       0.997   5.030  20.368  0.00  0.00    +0.000 C 
ENDROOT
BRANCH   1  11
ATOM     10  C   UNL     1       2.595   7.431  18.463  0.00  0.00    +0.000 C 
ATOM     11  O   UNL     1       2.100   6.139  18.107  0.00  0.00    +0.000 OA
ENDBRANCH   1  11
BRANCH   2  12
ATOM     12  C   UNL     1       4.699   5.310  16.886  0.00  0.00    +0.000 C 
BRANCH  12  13
ATOM     13  C   UNL     1       4.952   4.439  15.682  0.00  0.00    +0.000 C 
ATOM     14  C   UNL     1       6.088   4.333  14.969  0.00  0.00    +0.000 C 
ATOM     15  C   UNL     1       7.370   5.061  15.291  0.00  0.00    +0.000 C 
BRANCH  14  16
ATOM     16  C   UNL     1       6.099   3.457  13.734  0.00  0.00    +0.000 C 
BRANCH  16  17
ATOM     17  C   UNL     1       5.186   3.958  12.616  0.00  0.00    +0.000 C 
BRANCH  17  18
ATOM     18  C   UNL     1       4.885   2.848  11.639  0.00  0.00    +0.000 C 
ATOM     19  O   UNL     1       5.573   1.849  11.461  0.00  0.00    +0.000 OA
BRANCH  18  20
ATOM     20  O   UNL     1       3.738   3.059  10.954  0.00  0.00    +0.000 OA
ATOM     21  H   UNL     1       3.201   2.254  10.831  0.00  0.00    +0.000 HD
ENDBRANCH  18  20
ENDBRANCH  17  18
ENDBRANCH  16  17
ENDBRANCH  14  16
ENDBRANCH  12  13
ENDBRANCH   2  12
TORSDOF 7
ENDMDL
MODEL 9
REMARK VINA RESULT:      -6.3      2.686      5.698
REMARK  Name = 
REMARK  11 active torsions:
REMARK  status: ('A' for Active; 'I' for Inactive)
REMARK    1  A    between atoms: C_1  and  O_2
REMARK    2  A    between atoms: O_2  and  C_3
REMARK    3  A    between atoms: C_4  and  C_5
REMARK    4  A    between atoms: C_5  and  C_6
REMARK    5  A    between atoms: C_7  and  C_8
REMARK    6  A    between atoms: C_7  and  C_9
REMARK    7  A    between atoms: C_9  and  C_10
REMARK    8  A    between atoms: C_10  and  C_11
REMARK    9  A    between atoms: C_11  and  O_13
REMARK   10  A    between atoms: C_17  and  C_18
REMARK   11  A    between atoms: C_19  and  C_20
REMARK                            x       y       z     vdW  Elec       q    Type
REMARK                         _______ _______ _______ _____ _____    ______ ____
ROOT
ATOM      1  C   UNL     1       4.032   5.879  17.225  0.00  0.00    +0.000 A 
ATOM      2  C   UNL     1       3.030   6.579  17.929  0.00  0.00    +0.000 A 
ATOM      3  C   UNL     1       2.132   5.827  18.704  0.00  0.00    +0.000 A 
ATOM      4  C   UNL     1       2.171   4.431  18.738  0.00  0.00    +0.000 A 
ATOM      5 CL   UNL     1       0.992   3.657  19.741  0.00  0.00    +0.000 Cl
ATOM      6  C   UNL     1       3.118   3.719  17.986  0.00  0.00    +0.000 A 
ATOM      7  C   UNL     1       3.154   2.211  18.001  0.00  0.00    +0.000 C 
ATOM      8  C   UNL     1       4.060   4.456  17.217  0.00  0.00    +0.000 A 
ATOM      9  C   UNL     1       5.077   3.752  16.346  0.00  0.00    +0.000 C 
ENDROOT
BRANCH   1  11
ATOM     10  C   UNL     1       6.142   6.969  17.138  0.00  0.00    +0.000 C 
ATOM     11  O   UNL     1       4.984   6.498  16.448  0.00  0.00    +0.000 OA
ENDBRANCH   1  11
BRANCH   2  12
ATOM     12  C   UNL     1       2.916   8.088  17.907  0.00  0.00    +0.000 C 
BRANCH  12  13
ATOM     13  C   UNL     1       1.580   8.661  18.307  0.00  0.00    +0.000 C 
ATOM     14  C   UNL     1       1.239   9.959  18.408  0.00  0.00    +0.000 C 
ATOM     15  C   UNL     1       2.157  11.110  18.081  0.00  0.00    +0.000 C 
BRANCH  14  16
ATOM     16  C   UNL     1      -0.142  10.317  18.915  0.00  0.00    +0.000 C 
BRANCH  16  17
ATOM     17  C   UNL     1      -0.402   9.877  20.355  0.00  0.00    +0.000 C 
BRANCH  17  18
ATOM     18  C   UNL     1       0.489  10.634  21.311  0.00  0.00    +0.000 C 
ATOM     19  O   UNL     1       1.314  10.132  22.064  0.00  0.00    +0.000 OA
BRANCH  18  20
ATOM     20  O   UNL     1       0.290  11.970  21.254  0.00  0.00    +0.000 OA
ATOM     21  H   UNL     1       0.234  12.320  20.345  0.00  0.00    +0.000 HD
ENDBRANCH  18  20
ENDBRANCH  17  18
ENDBRANCH  16  17
ENDBRANCH  14  16
ENDBRANCH  12  13
ENDBRANCH   2  12
TORSDOF 7
ENDMDL
