MODEL 1
REMARK VINA RESULT:      -5.8      0.000      0.000
REMARK  Name = 
REMARK  1 active torsions:
REMARK  status: ('A' for Active; 'I' for Inactive)
REMARK    1  A    between atoms: C_1  and  N_2
REMARK                            x       y       z     vdW  Elec       q    Type
REMARK                         _______ _______ _______ _____ _____    ______ ____
ROOT
ATOM      1  C   UNL     1       1.816   5.043  20.436  0.00  0.00    +0.000 C 
ATOM      2  N   UNL     1       2.239   4.467  19.180  0.00  0.00    +0.000 N 
ATOM      3  C   UNL     1       1.484   3.757  18.271  0.00  0.00    +0.000 A 
ATOM      4  N   UNL     1       2.139   3.411  17.217  0.00  0.00    +0.000 NA
ATOM      5  N   UNL     1       3.395   3.916  17.445  0.00  0.00    +0.000 N 
ATOM      6  C   UNL     1       3.455   4.506  18.638  0.00  0.00    +0.000 A 
ATOM      7  S   UNL     1       4.879   5.227  19.323  0.00  0.00    +0.000 S 
ATOM      8  C   UNL     1       6.108   4.627  18.137  0.00  0.00    +0.000 C 
ATOM      9  C   UNL     1       5.599   4.686  16.701  0.00  0.00    +0.000 C 
ATOM     10  C   UNL     1       6.749   4.558  15.676  0.00  0.00    +0.000 C 
ATOM     11  O   UNL     1       6.832   6.007  15.594  0.00  0.00    +0.000 OA
ATOM     12  C   UNL     1       5.471   6.102  16.092  0.00  0.00    +0.000 C 
ATOM     13  C   UNL     1       4.441   3.742  16.453  0.00  0.00    +0.000 C 
ENDROOT
TORSDOF 0
ENDMDL
MODEL 2
REMARK VINA RESULT:      -5.8      1.904      2.515
REMARK  Name = 
REMARK  1 active torsions:
REMARK  status: ('A' for Active; 'I' for Inactive)
REMARK    1  A    between atoms: C_1  and  N_2
REMARK                            x       y       z     vdW  Elec       q    Type
REMARK                         _______ _______ _______ _____ _____    ______ ____
ROOT
ATOM      1  C   UNL     1       1.495   2.238  19.194  0.00  0.00    +0.000 C 
ATOM      2  N   UNL     1       2.843   2.754  19.271  0.00  0.00    +0.000 N 
ATOM      3  C   UNL     1       3.948   2.167  19.849  0.00  0.00    +0.000 A 
ATOM      4  N   UNL     1       5.027   2.858  19.715  0.00  0.00    +0.000 NA
ATOM      5  N   UNL     1       4.610   3.963  19.016  0.00  0.00    +0.000 N 
ATOM      6  C   UNL     1       3.297   3.911  18.794  0.00  0.00    +0.000 A 
ATOM      7  S   UNL     1       2.375   5.140  17.984  0.00  0.00    +0.000 S 
ATOM      8  C   UNL     1       3.627   6.445  17.913  0.00  0.00    +0.000 C 
ATOM      9  C   UNL     1       5.008   5.900  17.569  0.00  0.00    +0.000 C 
ATOM     10  C   UNL     1       5.975   7.021  17.124  0.00  0.00    +0.000 C 
ATOM     11  O   UNL     1       5.641   6.753  15.735  0.00  0.00    +0.000 OA
ATOM     12  C   UNL     1       5.197   5.422  16.109  0.00  0.00    +0.000 C 
ATOM     13  C   UNL     1       5.564   4.994  18.647  0.00  0.00    +0.000 C 
ENDROOT
TORSDOF 0
ENDMDL
MODEL 3
REMARK VINA RESULT:      -5.7      2.949      4.506
REMARK  Name = 
REMARK  1 active torsions:
REMARK  status: ('A' for Active; 'I' for Inactive)
REMARK    1  A    between atoms: C_1  and  N_2
REMARK                            x       y       z     vdW  Elec       q    Type
REMARK                         _______ _______ _______ _____ _____    ______ ____
ROOT
ATOM      1  C   UNL     1       7.650   7.506  17.398  0.00  0.00    +0.000 C 
ATOM      2  N   UNL     1       7.078   6.373  18.089  0.00  0.00    +0.000 N 
ATOM      3  C   UNL     1       7.403   5.884  19.336  0.00  0.00    +0.000 A 
ATOM      4  N   UNL     1       6.679   4.882  19.700  0.00  0.00    +0.000 NA
ATOM      5  N   UNL     1       5.835   4.698  18.634  0.00  0.00    +0.000 N 
ATOM      6  C   UNL     1       6.111   5.565  17.660  0.00  0.00    +0.000 A 
ATOM      7  S   UNL     1       5.302   5.629  16.125  0.00  0.00    +0.000 S 
ATOM      8  C   UNL     1       4.366   4.084  16.224  0.00  0.00    +0.000 C 
ATOM      9  C   UNL     1       3.773   3.857  17.610  0.00  0.00    +0.000 C 
ATOM     10  C   UNL     1       2.670   2.774  17.595  0.00  0.00    +0.000 C 
ATOM     11  O   UNL     1       1.661   3.811  17.451  0.00  0.00    +0.000 OA
ATOM     12  C   UNL     1       2.593   4.781  17.995  0.00  0.00    +0.000 C 
ATOM     13  C   UNL     1       4.834   3.647  18.671  0.00  0.00    +0.000 C 
ENDROOT
TORSDOF 0
ENDMDL
MODEL 4
REMARK VINA RESULT:      -5.6      1.734      2.210
REMARK  Name = 
REMARK  1 active torsions:
REMARK  status: ('A' for Active; 'I' for Inactive)
REMARK    1  A    between atoms: C_1  and  N_2
REMARK                            x       y       z     vdW  Elec       q    Type
REMARK                         _______ _______ _______ _____ _____    ______ ____
ROOT
ATOM      1  C   UNL     1       2.151   5.119  20.341  0.00  0.00    +0.000 C 
ATOM      2  N   UNL     1       2.765   5.793  19.220  0.00  0.00    +0.000 N 
ATOM      3  C   UNL     1       2.611   7.105  18.827  0.00  0.00    +0.000 A 
ATOM      4  N   UNL     1       3.331   7.424  17.808  0.00  0.00    +0.000 NA
ATOM      5  N   UNL     1       3.993   6.259  17.510  0.00  0.00    +0.000 N 
ATOM      6  C   UNL     1       3.615   5.281  18.332  0.00  0.00    +0.000 A 
ATOM      7  S   UNL     1       4.181   3.641  18.256  0.00  0.00    +0.000 S 
ATOM      8  C   UNL     1       5.045   3.705  16.667  0.00  0.00    +0.000 C 
ATOM      9  C   UNL     1       5.830   5.000  16.489  0.00  0.00    +0.000 C 
ATOM     10  C   UNL     1       6.863   4.895  15.344  0.00  0.00    +0.000 C 
ATOM     11  O   UNL     1       7.889   4.530  16.308  0.00  0.00    +0.000 OA
ATOM     12  C   UNL     1       7.099   5.140  17.363  0.00  0.00    +0.000 C 
ATOM     13  C   UNL     1       4.935   6.219  16.406  0.00  0.00    +0.000 C 
ENDROOT
TORSDOF 0
ENDMDL
MODEL 5
REMARK VINA RESULT:      -5.6      1.828      2.457
REMARK  Name = 
REMARK  1 active torsions:
REMARK  status: ('A' for Active; 'I' for Inactive)
REMARK    1  A    between atoms: C_1  and  N_2
REMARK                            x       y       z     vdW  Elec       q    Type
REMARK                         _______ _______ _______ _____ _____    ______ ____
ROOT
ATOM      1  C   UNL     1       1.698   2.911  18.442  0.00  0.00    +0.000 C 
ATOM      2  N   UNL     1       3.050   3.162  18.885  0.00  0.00    +0.000 N 
ATOM      3  C   UNL     1       3.820   2.405  19.743  0.00  0.00    +0.000 A 
ATOM      4  N   UNL     1       5.010   2.868  19.909  0.00  0.00    +0.000 NA
ATOM      5  N   UNL     1       5.025   3.993  19.123  0.00  0.00    +0.000 N 
ATOM      6  C   UNL     1       3.837   4.182  18.551  0.00  0.00    +0.000 A 
ATOM      7  S   UNL     1       3.430   5.520  17.520  0.00  0.00    +0.000 S 
ATOM      8  C   UNL     1       4.889   6.554  17.795  0.00  0.00    +0.000 C 
ATOM      9  C   UNL     1       6.175   5.736  17.841  0.00  0.00    +0.000 C 
ATOM     10  C   UNL     1       7.429   6.625  17.678  0.00  0.00    +0.000 C 
ATOM     11  O   UNL     1       7.433   6.352  16.250  0.00  0.00    +0.000 OA
ATOM     12  C   UNL     1       6.649   5.153  16.488  0.00  0.00    +0.000 C 
ATOM     13  C   UNL     1       6.229   4.800  19.030  0.00  0.00    +0.000 C 
ENDROOT
TORSDOF 0
ENDMDL
MODEL 6
REMARK VINA RESULT:      -5.5      3.132      4.814
REMARK  Name = 
REMARK  1 active torsions:
REMARK  status: ('A' for Active; 'I' for Inactive)
REMARK    1  A    between atoms: C_1  and  N_2
REMARK                            x       y       z     vdW  Elec       q    Type
REMARK                         _______ _______ _______ _____ _____    ______ ____
ROOT
ATOM      1  C   UNL     1       7.621   7.733  17.326  0.00  0.00    +0.000 C 
ATOM      2  N   UNL     1       7.180   6.624  18.141  0.00  0.00    +0.000 N 
ATOM      3  C   UNL     1       7.817   6.059  19.226  0.00  0.00    +0.000 A 
ATOM      4  N   UNL     1       7.147   5.106  19.776  0.00  0.00    +0.000 NA
ATOM      5  N   UNL     1       6.010   5.036  19.010  0.00  0.00    +0.000 N 
ATOM      6  C   UNL     1       6.060   5.917  18.012  0.00  0.00    +0.000 A 
ATOM      7  S   UNL     1       4.839   6.110  16.791  0.00  0.00    +0.000 S 
ATOM      8  C   UNL     1       3.839   4.644  17.146  0.00  0.00    +0.000 C 
ATOM      9  C   UNL     1       3.670   4.410  18.642  0.00  0.00    +0.000 C 
ATOM     10  C   UNL     1       2.518   3.423  18.945  0.00  0.00    +0.000 C 
ATOM     11  O   UNL     1       1.610   4.544  19.125  0.00  0.00    +0.000 OA
ATOM     12  C   UNL     1       2.747   5.411  19.378  0.00  0.00    +0.000 C 
ATOM     13  C   UNL     1       4.974   4.070  19.332  0.00  0.00    +0.000 C 
ENDROOT
TORSDOF 0
ENDMDL
MODEL 7
REMARK VINA RESULT:      -5.5      3.056      5.022
REMARK  Name = 
REMARK  1 active torsions:
REMARK  status: ('A' for Active; 'I' for Inactive)
REMARK    1  A    between atoms: C_1  and  N_2
REMARK                            x       y       z     vdW  Elec       q    Type
REMARK                         _______ _______ _______ _____ _____    ______ ____
ROOT
ATOM      1  C   UNL     1       5.390   4.887  15.623  0.00  0.00    +0.000 C 
ATOM      2  N   UNL     1       5.399   4.482  17.010  0.00  0.00    +0.000 N 
ATOM      3  C   UNL     1       6.412   4.630  17.934  0.00  0.00    +0.000 A 
ATOM      4  N   UNL     1       6.100   4.206  19.110  0.00  0.00    +0.000 NA
ATOM      5  N   UNL     1       4.816   3.750  18.952  0.00  0.00    +0.000 N 
ATOM      6  C   UNL     1       4.423   3.880  17.686  0.00  0.00    +0.000 A 
ATOM      7  S   UNL     1       2.881   3.375  17.065  0.00  0.00    +0.000 S 
ATOM      8  C   UNL     1       2.285   2.435  18.491  0.00  0.00    +0.000 C 
ATOM      9  C   UNL     1       2.607   3.126  19.812  0.00  0.00    +0.000 C 
ATOM     10  C   UNL     1       1.776   2.551  20.981  0.00  0.00    +0.000 C 
ATOM     11  O   UNL     1       0.790   3.603  20.793  0.00  0.00    +0.000 OA
ATOM     12  C   UNL     1       1.792   4.406  20.116  0.00  0.00    +0.000 C 
ATOM     13  C   UNL     1       4.095   3.198  20.086  0.00  0.00    +0.000 C 
ENDROOT
TORSDOF 0
ENDMDL
MODEL 8
REMARK VINA RESULT:      -5.4      2.710      4.491
REMARK  Name = 
REMARK  1 active torsions:
REMARK  status: ('A' for Active; 'I' for Inactive)
REMARK    1  A    between atoms: C_1  and  N_2
REMARK                            x       y       z     vdW  Elec       q    Type
REMARK                         _______ _______ _______ _____ _____    ______ ____
ROOT
ATOM      1  C   UNL     1       7.694   6.012  18.600  0.00  0.00    +0.000 C 
ATOM      2  N   UNL     1       6.807   5.212  17.786  0.00  0.00    +0.000 N 
ATOM      3  C   UNL     1       7.068   4.623  16.567  0.00  0.00    +0.000 A 
ATOM      4  N   UNL     1       6.083   3.931  16.110  0.00  0.00    +0.000 NA
ATOM      5  N   UNL     1       5.119   4.075  17.076  0.00  0.00    +0.000 N 
ATOM      6  C   UNL     1       5.546   4.877  18.050  0.00  0.00    +0.000 A 
ATOM      7  S   UNL     1       4.608   5.350  19.433  0.00  0.00    +0.000 S 
ATOM      8  C   UNL     1       2.989   4.731  18.914  0.00  0.00    +0.000 C 
ATOM      9  C   UNL     1       3.084   3.365  18.242  0.00  0.00    +0.000 C 
ATOM     10  C   UNL     1       1.707   2.667  18.159  0.00  0.00    +0.000 C 
ATOM     11  O   UNL     1       1.995   1.960  19.395  0.00  0.00    +0.000 OA
ATOM     12  C   UNL     1       3.414   2.178  19.178  0.00  0.00    +0.000 C 
ATOM     13  C   UNL     1       3.835   3.412  16.928  0.00  0.00    +0.000 C 
ENDROOT
TORSDOF 0
ENDMDL
MODEL 9
REMARK VINA RESULT:      -5.4      1.650      2.361
REMARK  Name = 
REMARK  1 active torsions:
REMARK  status: ('A' for Active; 'I' for Inactive)
REMARK    1  A    between atoms: C_1  and  N_2
REMARK                            x       y       z     vdW  Elec       q    Type
REMARK                         _______ _______ _______ _____ _____    ______ ____
ROOT
ATOM      1  C   UNL     1       1.872   2.886  21.557  0.00  0.00    +0.000 C 
ATOM      2  N   UNL     1       2.197   3.976  20.666  0.00  0.00    +0.000 N 
ATOM      3  C   UNL     1       1.856   5.307  20.789  0.00  0.00    +0.000 A 
ATOM      4  N   UNL     1       2.335   6.048  19.850  0.00  0.00    +0.000 NA
ATOM      5  N   UNL     1       3.023   5.159  19.064  0.00  0.00    +0.000 N 
ATOM      6  C   UNL     1       2.898   3.919  19.536  0.00  0.00    +0.000 A 
ATOM      7  S   UNL     1       3.578   2.500  18.801  0.00  0.00    +0.000 S 
ATOM      8  C   UNL     1       4.107   3.213  17.224  0.00  0.00    +0.000 C 
ATOM      9  C   UNL     1       4.728   4.595  17.396  0.00  0.00    +0.000 C 
ATOM     10  C   UNL     1       5.525   5.029  16.144  0.00  0.00    +0.000 C 
ATOM     11  O   UNL     1       6.745   4.522  16.750  0.00  0.00    +0.000 OA
ATOM     12  C   UNL     1       6.126   4.624  18.059  0.00  0.00    +0.000 C 
ATOM     13  C   UNL     1       3.733   5.626  17.886  0.00  0.00    +0.000 C 
ENDROOT
TORSDOF 0
ENDMDL
