MODEL 1
REMARK VINA RESULT:      -8.9      0.000      0.000
REMARK  Name = 
REMARK  6 active torsions:
REMARK  status: ('A' for Active; 'I' for Inactive)
REMARK    1  A    between atoms: C_1  and  O_2
REMARK    2  A    between atoms: O_2  and  C_3
REMARK    3  A    between atoms: C_9  and  C_10
REMARK    4  A    between atoms: C_13  and  C_14
REMARK    5  A    between atoms: C_20  and  O_21
REMARK    6  A    between atoms: O_21  and  C_22
REMARK                            x       y       z     vdW  Elec       q    Type
REMARK                         _______ _______ _______ _____ _____    ______ ____
ROOT
ATOM      1  C   UNL     1       2.585   6.933  18.546  0.00  0.00    +0.000 A 
ATOM      2  C   UNL     1       2.174   6.950  19.865  0.00  0.00    +0.000 A 
ATOM      3  N   UNL     1       1.504   7.970  20.445  0.00  0.00    +0.000 NA
ATOM      4  C   UNL     1       1.241   9.028  19.653  0.00  0.00    +0.000 A 
ATOM      5  N   UNL     1       1.600   9.125  18.360  0.00  0.00    +0.000 NA
ATOM      6  C   UNL     1       2.259   8.071  17.838  0.00  0.00    +0.000 A 
ENDROOT
BRANCH   1  13
ATOM      7  C   UNL     1       6.882   6.203  16.665  0.00  0.00    +0.000 A 
ATOM      8  C   UNL     1       7.006   4.897  16.195  0.00  0.00    +0.000 A 
ATOM      9  C   UNL     1       5.951   3.985  16.313  0.00  0.00    +0.000 A 
ATOM     10  C   UNL     1       4.768   4.427  16.916  0.00  0.00    +0.000 A 
ATOM     11  N   UNL     1       3.596   3.750  17.154  0.00  0.00    +0.000 N 
ATOM     12  C   UNL     1       2.692   4.573  17.770  0.00  0.00    +0.000 A 
ATOM     13  C   UNL     1       3.281   5.812  17.945  0.00  0.00    +0.000 A 
ATOM     14  C   UNL     1       4.608   5.725  17.404  0.00  0.00    +0.000 A 
ATOM     15  C   UNL     1       5.698   6.615  17.289  0.00  0.00    +0.000 A 
ATOM     16  H   UNL     1       3.430   2.786  16.902  0.00  0.00    +0.000 HD
BRANCH   7  18
ATOM     17  C   UNL     1       7.835   8.137  17.641  0.00  0.00    +0.000 C 
ATOM     18  O   UNL     1       7.864   7.157  16.610  0.00  0.00    +0.000 OA
ENDBRANCH   7  18
ENDBRANCH   1  13
BRANCH   4  19
ATOM     19  C   UNL     1       0.482  10.133  20.220  0.00  0.00    +0.000 A 
ATOM     20  C   UNL     1       0.825  10.773  21.399  0.00  0.00    +0.000 A 
ATOM     21  N   UNL     1      -0.104  11.745  21.650  0.00  0.00    +0.000 N 
ATOM     22  C   UNL     1      -1.062  11.754  20.663  0.00  0.00    +0.000 A 
ATOM     23  C   UNL     1      -2.195  12.559  20.513  0.00  0.00    +0.000 A 
ATOM     24  C   UNL     1      -3.012  12.340  19.395  0.00  0.00    +0.000 A 
ATOM     25  C   UNL     1      -2.709  11.352  18.462  0.00  0.00    +0.000 A 
ATOM     26  C   UNL     1      -1.566  10.564  18.633  0.00  0.00    +0.000 A 
ATOM     27  C   UNL     1      -0.722  10.755  19.749  0.00  0.00    +0.000 A 
ATOM     28  H   UNL     1      -0.097  12.363  22.448  0.00  0.00    +0.000 HD
BRANCH  25  29
ATOM     29  O   UNL     1      -3.438  11.049  17.343  0.00  0.00    +0.000 OA
ATOM     30  C   UNL     1      -2.720  10.895  16.128  0.00  0.00    +0.000 C 
ENDBRANCH  25  29
ENDBRANCH   4  19
TORSDOF 4
ENDMDL
MODEL 2
REMARK VINA RESULT:      -8.8      0.979      1.091
REMARK  Name = 
REMARK  6 active torsions:
REMARK  status: ('A' for Active; 'I' for Inactive)
REMARK    1  A    between atoms: C_1  and  O_2
REMARK    2  A    between atoms: O_2  and  C_3
REMARK    3  A    between atoms: C_9  and  C_10
REMARK    4  A    between atoms: C_13  and  C_14
REMARK    5  A    between atoms: C_20  and  O_21
REMARK    6  A    between atoms: O_21  and  C_22
REMARK                            x       y       z     vdW  Elec       q    Type
REMARK                         _______ _______ _______ _____ _____    ______ ____
ROOT
ATOM      1  C   UNL     1       2.665   6.297  18.825  0.00  0.00    +0.000 A 
ATOM      2  C   UNL     1       2.146   6.027  20.076  0.00  0.00    +0.000 A 
ATOM      3  N   UNL     1       1.501   6.929  20.848  0.00  0.00    +0.000 NA
ATOM      4  C   UNL     1       1.381   8.168  20.330  0.00  0.00    +0.000 A 
ATOM      5  N   UNL     1       1.856   8.546  19.130  0.00  0.00    +0.000 NA
ATOM      6  C   UNL     1       2.482   7.597  18.404  0.00  0.00    +0.000 A 
ENDROOT
BRANCH   1  13
ATOM      7  C   UNL     1       6.795   5.997  16.501  0.00  0.00    +0.000 A 
ATOM      8  C   UNL     1       6.906   4.778  15.836  0.00  0.00    +0.000 A 
ATOM      9  C   UNL     1       5.886   3.822  15.908  0.00  0.00    +0.000 A 
ATOM     10  C   UNL     1       4.752   4.130  16.666  0.00  0.00    +0.000 A 
ATOM     11  N   UNL     1       3.621   3.385  16.901  0.00  0.00    +0.000 N 
ATOM     12  C   UNL     1       2.757   4.079  17.705  0.00  0.00    +0.000 A 
ATOM     13  C   UNL     1       3.331   5.299  18.009  0.00  0.00    +0.000 A 
ATOM     14  C   UNL     1       4.606   5.337  17.352  0.00  0.00    +0.000 A 
ATOM     15  C   UNL     1       5.662   6.273  17.277  0.00  0.00    +0.000 A 
ATOM     16  H   UNL     1       3.455   2.462  16.524  0.00  0.00    +0.000 HD
BRANCH   7  18
ATOM     17  C   UNL     1       7.772   7.816  17.658  0.00  0.00    +0.000 C 
ATOM     18  O   UNL     1       7.746   6.983  16.505  0.00  0.00    +0.000 OA
ENDBRANCH   7  18
ENDBRANCH   1  13
BRANCH   4  19
ATOM     19  C   UNL     1       0.655   9.164  21.105  0.00  0.00    +0.000 A 
ATOM     20  C   UNL     1       0.707   9.247  22.486  0.00  0.00    +0.000 A 
ATOM     21  N   UNL     1      -0.101  10.275  22.888  0.00  0.00    +0.000 N 
ATOM     22  C   UNL     1      -0.693  10.869  21.798  0.00  0.00    +0.000 A 
ATOM     23  C   UNL     1      -1.593  11.937  21.731  0.00  0.00    +0.000 A 
ATOM     24  C   UNL     1      -2.046  12.335  20.466  0.00  0.00    +0.000 A 
ATOM     25  C   UNL     1      -1.618  11.687  19.310  0.00  0.00    +0.000 A 
ATOM     26  C   UNL     1      -0.713  10.624  19.405  0.00  0.00    +0.000 A 
ATOM     27  C   UNL     1      -0.238  10.196  20.664  0.00  0.00    +0.000 A 
ATOM     28  H   UNL     1      -0.250  10.556  23.847  0.00  0.00    +0.000 HD
BRANCH  25  29
ATOM     29  O   UNL     1      -2.001  11.986  18.029  0.00  0.00    +0.000 OA
ATOM     30  C   UNL     1      -3.201  11.389  17.560  0.00  0.00    +0.000 C 
ENDBRANCH  25  29
ENDBRANCH   4  19
TORSDOF 4
ENDMDL
MODEL 3
REMARK VINA RESULT:      -8.7      0.633      9.144
REMARK  Name = 
REMARK  6 active torsions:
REMARK  status: ('A' for Active; 'I' for Inactive)
REMARK    1  A    between atoms: C_1  and  O_2
REMARK    2  A    between atoms: O_2  and  C_3
REMARK    3  A    between atoms: C_9  and  C_10
REMARK    4  A    between atoms: C_13  and  C_14
REMARK    5  A    between atoms: C_20  and  O_21
REMARK    6  A    between atoms: O_21  and  C_22
REMARK                            x       y       z     vdW  Elec       q    Type
REMARK                         _______ _______ _______ _____ _____    ______ ____
ROOT
ATOM      1  C   UNL     1       1.163   9.211  19.378  0.00  0.00    +0.000 A 
ATOM      2  C   UNL     1       1.558   9.109  18.058  0.00  0.00    +0.000 A 
ATOM      3  N   UNL     1       2.262   8.074  17.549  0.00  0.00    +0.000 NA
ATOM      4  C   UNL     1       2.586   7.097  18.418  0.00  0.00    +0.000 A 
ATOM      5  N   UNL     1       2.263   7.095  19.724  0.00  0.00    +0.000 NA
ATOM      6  C   UNL     1       1.554   8.152  20.170  0.00  0.00    +0.000 A 
ENDROOT
BRANCH   1  13
ATOM      7  C   UNL     1      -3.061  11.152  18.413  0.00  0.00    +0.000 A 
ATOM      8  C   UNL     1      -3.298  12.261  19.223  0.00  0.00    +0.000 A 
ATOM      9  C   UNL     1      -2.359  12.671  20.177  0.00  0.00    +0.000 A 
ATOM     10  C   UNL     1      -1.176  11.933  20.289  0.00  0.00    +0.000 A 
ATOM     11  N   UNL     1      -0.103  12.114  21.129  0.00  0.00    +0.000 N 
ATOM     12  C   UNL     1       0.845  11.154  20.897  0.00  0.00    +0.000 A 
ATOM     13  C   UNL     1       0.387  10.324  19.891  0.00  0.00    +0.000 A 
ATOM     14  C   UNL     1      -0.905  10.813  19.501  0.00  0.00    +0.000 A 
ATOM     15  C   UNL     1      -1.881  10.413  18.562  0.00  0.00    +0.000 A 
ATOM     16  H   UNL     1      -0.028  12.856  21.811  0.00  0.00    +0.000 HD
BRANCH   7  18
ATOM     17  C   UNL     1      -3.714  11.126  16.138  0.00  0.00    +0.000 C 
ATOM     18  O   UNL     1      -3.926  10.667  17.468  0.00  0.00    +0.000 OA
ENDBRANCH   7  18
ENDBRANCH   1  13
BRANCH   4  19
ATOM     19  C   UNL     1       3.305   5.939  17.906  0.00  0.00    +0.000 A 
ATOM     20  C   UNL     1       2.755   4.672  17.821  0.00  0.00    +0.000 A 
ATOM     21  N   UNL     1       3.702   3.822  17.317  0.00  0.00    +0.000 N 
ATOM     22  C   UNL     1       4.871   4.503  17.075  0.00  0.00    +0.000 A 
ATOM     23  C   UNL     1       6.095   4.046  16.577  0.00  0.00    +0.000 A 
ATOM     24  C   UNL     1       7.136   4.974  16.438  0.00  0.00    +0.000 A 
ATOM     25  C   UNL     1       6.961   6.311  16.786  0.00  0.00    +0.000 A 
ATOM     26  C   UNL     1       5.725   6.744  17.277  0.00  0.00    +0.000 A 
ATOM     27  C   UNL     1       4.656   5.835  17.432  0.00  0.00    +0.000 A 
ATOM     28  H   UNL     1       3.567   2.835  17.152  0.00  0.00    +0.000 HD
BRANCH  25  29
ATOM     29  O   UNL     1       7.908   7.297  16.699  0.00  0.00    +0.000 OA
ATOM     30  C   UNL     1       7.888   8.299  17.705  0.00  0.00    +0.000 C 
ENDBRANCH  25  29
ENDBRANCH   4  19
TORSDOF 4
ENDMDL
MODEL 4
REMARK VINA RESULT:      -8.6      1.085      9.037
REMARK  Name = 
REMARK  6 active torsions:
REMARK  status: ('A' for Active; 'I' for Inactive)
REMARK    1  A    between atoms: C_1  and  O_2
REMARK    2  A    between atoms: O_2  and  C_3
REMARK    3  A    between atoms: C_9  and  C_10
REMARK    4  A    between atoms: C_13  and  C_14
REMARK    5  A    between atoms: C_20  and  O_21
REMARK    6  A    between atoms: O_21  and  C_22
REMARK                            x       y       z     vdW  Elec       q    Type
REMARK                         _______ _______ _______ _____ _____    ______ ____
ROOT
ATOM      1  C   UNL     1       1.340   8.214  20.242  0.00  0.00    +0.000 A 
ATOM      2  C   UNL     1       1.886   8.486  19.002  0.00  0.00    +0.000 A 
ATOM      3  N   UNL     1       2.540   7.583  18.239  0.00  0.00    +0.000 NA
ATOM      4  C   UNL     1       2.653   6.345  18.759  0.00  0.00    +0.000 A 
ATOM      5  N   UNL     1       2.171   5.970  19.957  0.00  0.00    +0.000 NA
ATOM      6  C   UNL     1       1.521   6.914  20.666  0.00  0.00    +0.000 A 
ENDROOT
BRANCH   1  13
ATOM      7  C   UNL     1      -1.812  11.649  19.344  0.00  0.00    +0.000 A 
ATOM      8  C   UNL     1      -2.155  12.330  20.510  0.00  0.00    +0.000 A 
ATOM      9  C   UNL     1      -1.598  11.971  21.744  0.00  0.00    +0.000 A 
ATOM     10  C   UNL     1      -0.687  10.910  21.768  0.00  0.00    +0.000 A 
ATOM     11  N   UNL     1      -0.002  10.362  22.826  0.00  0.00    +0.000 N 
ATOM     12  C   UNL     1       0.790   9.333  22.393  0.00  0.00    +0.000 A 
ATOM     13  C   UNL     1       0.621   9.199  21.027  0.00  0.00    +0.000 A 
ATOM     14  C   UNL     1      -0.323  10.200  20.622  0.00  0.00    +0.000 A 
ATOM     15  C   UNL     1      -0.917  10.572  19.396  0.00  0.00    +0.000 A 
ATOM     16  H   UNL     1      -0.073  10.682  23.781  0.00  0.00    +0.000 HD
BRANCH   7  18
ATOM     17  C   UNL     1      -3.669  11.529  17.881  0.00  0.00    +0.000 C 
ATOM     18  O   UNL     1      -2.317  11.915  18.098  0.00  0.00    +0.000 OA
ENDBRANCH   7  18
ENDBRANCH   1  13
BRANCH   4  19
ATOM     19  C   UNL     1       3.311   5.325  17.954  0.00  0.00    +0.000 A 
ATOM     20  C   UNL     1       2.759   4.084  17.689  0.00  0.00    +0.000 A 
ATOM     21  N   UNL     1       3.643   3.371  16.926  0.00  0.00    +0.000 N 
ATOM     22  C   UNL     1       4.774   4.115  16.688  0.00  0.00    +0.000 A 
ATOM     23  C   UNL     1       5.932   3.793  15.974  0.00  0.00    +0.000 A 
ATOM     24  C   UNL     1       6.946   4.757  15.899  0.00  0.00    +0.000 A 
ATOM     25  C   UNL     1       6.810   5.998  16.516  0.00  0.00    +0.000 A 
ATOM     26  C   UNL     1       5.638   6.298  17.220  0.00  0.00    +0.000 A 
ATOM     27  C   UNL     1       4.597   5.348  17.318  0.00  0.00    +0.000 A 
ATOM     28  H   UNL     1       3.493   2.430  16.590  0.00  0.00    +0.000 HD
BRANCH  25  29
ATOM     29  O   UNL     1       7.736   7.007  16.513  0.00  0.00    +0.000 OA
ATOM     30  C   UNL     1       7.760   7.863  17.646  0.00  0.00    +0.000 C 
ENDBRANCH  25  29
ENDBRANCH   4  19
TORSDOF 4
ENDMDL
MODEL 5
REMARK VINA RESULT:      -8.5      2.101      8.950
REMARK  Name = 
REMARK  6 active torsions:
REMARK  status: ('A' for Active; 'I' for Inactive)
REMARK    1  A    between atoms: C_1  and  O_2
REMARK    2  A    between atoms: O_2  and  C_3
REMARK    3  A    between atoms: C_9  and  C_10
REMARK    4  A    between atoms: C_13  and  C_14
REMARK    5  A    between atoms: C_20  and  O_21
REMARK    6  A    between atoms: O_21  and  C_22
REMARK                            x       y       z     vdW  Elec       q    Type
REMARK                         _______ _______ _______ _____ _____    ______ ____
ROOT
ATOM      1  C   UNL     1       0.896   9.667  19.323  0.00  0.00    +0.000 A 
ATOM      2  C   UNL     1       1.375   9.690  18.027  0.00  0.00    +0.000 A 
ATOM      3  N   UNL     1       2.208   8.765  17.503  0.00  0.00    +0.000 NA
ATOM      4  C   UNL     1       2.581   7.770  18.332  0.00  0.00    +0.000 A 
ATOM      5  N   UNL     1       2.186   7.652  19.613  0.00  0.00    +0.000 NA
ATOM      6  C   UNL     1       1.348   8.603  20.074  0.00  0.00    +0.000 A 
ENDROOT
BRANCH   1  13
ATOM      7  C   UNL     1      -3.440  11.244  18.206  0.00  0.00    +0.000 A 
ATOM      8  C   UNL     1      -3.836  12.269  19.063  0.00  0.00    +0.000 A 
ATOM      9  C   UNL     1      -3.000  12.705  20.098  0.00  0.00    +0.000 A 
ATOM     10  C   UNL     1      -1.756  12.082  20.242  0.00  0.00    +0.000 A 
ATOM     11  N   UNL     1      -0.757  12.312  21.157  0.00  0.00    +0.000 N 
ATOM     12  C   UNL     1       0.296  11.466  20.931  0.00  0.00    +0.000 A 
ATOM     13  C   UNL     1      -0.017  10.663  19.850  0.00  0.00    +0.000 A 
ATOM     14  C   UNL     1      -1.327  11.048  19.407  0.00  0.00    +0.000 A 
ATOM     15  C   UNL     1      -2.201  10.616  18.386  0.00  0.00    +0.000 A 
ATOM     16  H   UNL     1      -0.798  13.011  21.886  0.00  0.00    +0.000 HD
BRANCH   7  18
ATOM     17  C   UNL     1      -3.690  10.962  15.870  0.00  0.00    +0.000 C 
ATOM     18  O   UNL     1      -4.195  10.739  17.180  0.00  0.00    +0.000 OA
ENDBRANCH   7  18
ENDBRANCH   1  13
BRANCH   4  19
ATOM     19  C   UNL     1       3.442   6.725  17.800  0.00  0.00    +0.000 A 
ATOM     20  C   UNL     1       4.599   6.976  17.082  0.00  0.00    +0.000 A 
ATOM     21  N   UNL     1       5.152   5.779  16.719  0.00  0.00    +0.000 N 
ATOM     22  C   UNL     1       4.378   4.739  17.177  0.00  0.00    +0.000 A 
ATOM     23  C   UNL     1       4.546   3.358  17.035  0.00  0.00    +0.000 A 
ATOM     24  C   UNL     1       3.583   2.517  17.607  0.00  0.00    +0.000 A 
ATOM     25  C   UNL     1       2.490   3.036  18.296  0.00  0.00    +0.000 A 
ATOM     26  C   UNL     1       2.347   4.421  18.428  0.00  0.00    +0.000 A 
ATOM     27  C   UNL     1       3.298   5.298  17.861  0.00  0.00    +0.000 A 
ATOM     28  H   UNL     1       6.002   5.670  16.185  0.00  0.00    +0.000 HD
BRANCH  25  29
ATOM     29  O   UNL     1       1.489   2.310  18.885  0.00  0.00    +0.000 OA
ATOM     30  C   UNL     1       1.147   2.650  20.221  0.00  0.00    +0.000 C 
ENDBRANCH  25  29
ENDBRANCH   4  19
TORSDOF 4
ENDMDL
MODEL 6
REMARK VINA RESULT:      -8.4      2.096      3.061
REMARK  Name = 
REMARK  6 active torsions:
REMARK  status: ('A' for Active; 'I' for Inactive)
REMARK    1  A    between atoms: C_1  and  O_2
REMARK    2  A    between atoms: O_2  and  C_3
REMARK    3  A    between atoms: C_9  and  C_10
REMARK    4  A    between atoms: C_13  and  C_14
REMARK    5  A    between atoms: C_20  and  O_21
REMARK    6  A    between atoms: O_21  and  C_22
REMARK                            x       y       z     vdW  Elec       q    Type
REMARK                         _______ _______ _______ _____ _____    ______ ____
ROOT
ATOM      1  C   UNL     1       2.467   7.784  18.470  0.00  0.00    +0.000 A 
ATOM      2  C   UNL     1       2.020   7.761  19.777  0.00  0.00    +0.000 A 
ATOM      3  N   UNL     1       1.214   8.696  20.326  0.00  0.00    +0.000 NA
ATOM      4  C   UNL     1       0.847   9.708  19.514  0.00  0.00    +0.000 A 
ATOM      5  N   UNL     1       1.229   9.837  18.231  0.00  0.00    +0.000 NA
ATOM      6  C   UNL     1       2.026   8.867  17.739  0.00  0.00    +0.000 A 
ENDROOT
BRANCH   1  13
ATOM      7  C   UNL     1       2.297   3.053  18.112  0.00  0.00    +0.000 A 
ATOM      8  C   UNL     1       3.431   2.559  17.472  0.00  0.00    +0.000 A 
ATOM      9  C   UNL     1       4.436   3.422  17.018  0.00  0.00    +0.000 A 
ATOM     10  C   UNL     1       4.265   4.794  17.230  0.00  0.00    +0.000 A 
ATOM     11  N   UNL     1       5.084   5.845  16.892  0.00  0.00    +0.000 N 
ATOM     12  C   UNL     1       4.523   7.028  17.293  0.00  0.00    +0.000 A 
ATOM     13  C   UNL     1       3.313   6.751  17.901  0.00  0.00    +0.000 A 
ATOM     14  C   UNL     1       3.140   5.327  17.862  0.00  0.00    +0.000 A 
ATOM     15  C   UNL     1       2.134   4.433  18.289  0.00  0.00    +0.000 A 
ATOM     16  H   UNL     1       5.973   5.750  16.423  0.00  0.00    +0.000 HD
BRANCH   7  18
ATOM     17  C   UNL     1       0.781   2.608  19.875  0.00  0.00    +0.000 C 
ATOM     18  O   UNL     1       1.255   2.290  18.572  0.00  0.00    +0.000 OA
ENDBRANCH   7  18
ENDBRANCH   1  13
BRANCH   4  19
ATOM     19  C   UNL     1      -0.057  10.717  20.047  0.00  0.00    +0.000 A 
ATOM     20  C   UNL     1       0.200  11.447  21.194  0.00  0.00    +0.000 A 
ATOM     21  N   UNL     1      -0.856  12.287  21.419  0.00  0.00    +0.000 N 
ATOM     22  C   UNL     1      -1.812  12.119  20.445  0.00  0.00    +0.000 A 
ATOM     23  C   UNL     1      -3.049  12.748  20.278  0.00  0.00    +0.000 A 
ATOM     24  C   UNL     1      -3.835  12.370  19.181  0.00  0.00    +0.000 A 
ATOM     25  C   UNL     1      -3.402  11.397  18.284  0.00  0.00    +0.000 A 
ATOM     26  C   UNL     1      -2.157  10.787  18.471  0.00  0.00    +0.000 A 
ATOM     27  C   UNL     1      -1.341  11.142  19.567  0.00  0.00    +0.000 A 
ATOM     28  H   UNL     1      -0.931  12.932  22.192  0.00  0.00    +0.000 HD
BRANCH  25  29
ATOM     29  O   UNL     1      -4.089  10.948  17.188  0.00  0.00    +0.000 OA
ATOM     30  C   UNL     1      -3.371  10.871  15.964  0.00  0.00    +0.000 C 
ENDBRANCH  25  29
ENDBRANCH   4  19
TORSDOF 4
ENDMDL
MODEL 7
REMARK VINA RESULT:      -8.3      0.718      1.163
REMARK  Name = 
REMARK  6 active torsions:
REMARK  status: ('A' for Active; 'I' for Inactive)
REMARK    1  A    between atoms: C_1  and  O_2
REMARK    2  A    between atoms: O_2  and  C_3
REMARK    3  A    between atoms: C_9  and  C_10
REMARK    4  A    between atoms: C_13  and  C_14
REMARK    5  A    between atoms: C_20  and  O_21
REMARK    6  A    between atoms: O_21  and  C_22
REMARK                            x       y       z     vdW  Elec       q    Type
REMARK                         _______ _______ _______ _____ _____    ______ ____
ROOT
ATOM      1  C   UNL     1       2.489   7.318  18.391  0.00  0.00    +0.000 A 
ATOM      2  C   UNL     1       2.199   8.416  17.603  0.00  0.00    +0.000 A 
ATOM      3  N   UNL     1       1.546   9.517  18.035  0.00  0.00    +0.000 NA
ATOM      4  C   UNL     1       1.161   9.505  19.327  0.00  0.00    +0.000 A 
ATOM      5  N   UNL     1       1.380   8.490  20.182  0.00  0.00    +0.000 NA
ATOM      6  C   UNL     1       2.044   7.423  19.693  0.00  0.00    +0.000 A 
ENDROOT
BRANCH   1  13
ATOM      7  C   UNL     1       6.867   6.475  16.760  0.00  0.00    +0.000 A 
ATOM      8  C   UNL     1       7.015   5.140  16.393  0.00  0.00    +0.000 A 
ATOM      9  C   UNL     1       5.957   4.233  16.531  0.00  0.00    +0.000 A 
ATOM     10  C   UNL     1       4.748   4.711  17.047  0.00  0.00    +0.000 A 
ATOM     11  N   UNL     1       3.568   4.048  17.282  0.00  0.00    +0.000 N 
ATOM     12  C   UNL     1       2.636   4.909  17.796  0.00  0.00    +0.000 A 
ATOM     13  C   UNL     1       3.214   6.160  17.905  0.00  0.00    +0.000 A 
ATOM     14  C   UNL     1       4.563   6.041  17.432  0.00  0.00    +0.000 A 
ATOM     15  C   UNL     1       5.655   6.926  17.300  0.00  0.00    +0.000 A 
ATOM     16  H   UNL     1       3.415   3.067  17.094  0.00  0.00    +0.000 HD
BRANCH   7  18
ATOM     17  C   UNL     1       7.997   8.264  17.821  0.00  0.00    +0.000 C 
ATOM     18  O   UNL     1       7.848   7.429  16.679  0.00  0.00    +0.000 OA
ENDBRANCH   7  18
ENDBRANCH   1  13
BRANCH   4  19
ATOM     19  C   UNL     1       0.493  10.688  19.851  0.00  0.00    +0.000 A 
ATOM     20  C   UNL     1       1.060  11.537  20.785  0.00  0.00    +0.000 A 
ATOM     21  N   UNL     1       0.162  12.529  21.070  0.00  0.00    +0.000 N 
ATOM     22  C   UNL     1      -0.993  12.346  20.346  0.00  0.00    +0.000 A 
ATOM     23  C   UNL     1      -2.171  13.098  20.323  0.00  0.00    +0.000 A 
ATOM     24  C   UNL     1      -3.207  12.670  19.483  0.00  0.00    +0.000 A 
ATOM     25  C   UNL     1      -3.072  11.530  18.694  0.00  0.00    +0.000 A 
ATOM     26  C   UNL     1      -1.880  10.799  18.731  0.00  0.00    +0.000 A 
ATOM     27  C   UNL     1      -0.817  11.201  19.569  0.00  0.00    +0.000 A 
ATOM     28  H   UNL     1       0.318  13.283  21.722  0.00  0.00    +0.000 HD
BRANCH  25  29
ATOM     29  O   UNL     1      -4.019  11.019  17.846  0.00  0.00    +0.000 OA
ATOM     30  C   UNL     1      -5.095  11.876  17.490  0.00  0.00    +0.000 C 
ENDBRANCH  25  29
ENDBRANCH   4  19
TORSDOF 4
ENDMDL
MODEL 8
REMARK VINA RESULT:      -8.3      1.615      1.781
REMARK  Name = 
REMARK  6 active torsions:
REMARK  status: ('A' for Active; 'I' for Inactive)
REMARK    1  A    between atoms: C_1  and  O_2
REMARK    2  A    between atoms: O_2  and  C_3
REMARK    3  A    between atoms: C_9  and  C_10
REMARK    4  A    between atoms: C_13  and  C_14
REMARK    5  A    between atoms: C_20  and  O_21
REMARK    6  A    between atoms: O_21  and  C_22
REMARK                            x       y       z     vdW  Elec       q    Type
REMARK                         _______ _______ _______ _____ _____    ______ ____
ROOT
ATOM      1  C   UNL     1       2.601   6.354  18.888  0.00  0.00    +0.000 A 
ATOM      2  C   UNL     1       2.127   6.058  20.152  0.00  0.00    +0.000 A 
ATOM      3  N   UNL     1       1.516   6.946  20.967  0.00  0.00    +0.000 NA
ATOM      4  C   UNL     1       1.383   8.196  20.482  0.00  0.00    +0.000 A 
ATOM      5  N   UNL     1       1.814   8.599  19.274  0.00  0.00    +0.000 NA
ATOM      6  C   UNL     1       2.408   7.665  18.504  0.00  0.00    +0.000 A 
ENDROOT
BRANCH   1  13
ATOM      7  C   UNL     1       6.720   6.014  16.551  0.00  0.00    +0.000 A 
ATOM      8  C   UNL     1       6.788   4.825  15.829  0.00  0.00    +0.000 A 
ATOM      9  C   UNL     1       5.734   3.904  15.855  0.00  0.00    +0.000 A 
ATOM     10  C   UNL     1       4.610   4.218  16.628  0.00  0.00    +0.000 A 
ATOM     11  N   UNL     1       3.453   3.504  16.828  0.00  0.00    +0.000 N 
ATOM     12  C   UNL     1       2.614   4.190  17.664  0.00  0.00    +0.000 A 
ATOM     13  C   UNL     1       3.231   5.373  18.026  0.00  0.00    +0.000 A 
ATOM     14  C   UNL     1       4.508   5.396  17.370  0.00  0.00    +0.000 A 
ATOM     15  C   UNL     1       5.596   6.295  17.339  0.00  0.00    +0.000 A 
ATOM     16  H   UNL     1       3.254   2.607  16.408  0.00  0.00    +0.000 HD
BRANCH   7  18
ATOM     17  C   UNL     1       7.612   7.901  17.667  0.00  0.00    +0.000 C 
ATOM     18  O   UNL     1       7.706   6.964  16.601  0.00  0.00    +0.000 OA
ENDBRANCH   7  18
ENDBRANCH   1  13
BRANCH   4  19
ATOM     19  C   UNL     1       0.691   9.177  21.306  0.00  0.00    +0.000 A 
ATOM     20  C   UNL     1       0.386   8.977  22.642  0.00  0.00    +0.000 A 
ATOM     21  N   UNL     1      -0.276  10.082  23.104  0.00  0.00    +0.000 N 
ATOM     22  C   UNL     1      -0.423  11.005  22.096  0.00  0.00    +0.000 A 
ATOM     23  C   UNL     1      -1.037  12.261  22.105  0.00  0.00    +0.000 A 
ATOM     24  C   UNL     1      -1.045  12.997  20.912  0.00  0.00    +0.000 A 
ATOM     25  C   UNL     1      -0.462  12.496  19.752  0.00  0.00    +0.000 A 
ATOM     26  C   UNL     1       0.152  11.238  19.770  0.00  0.00    +0.000 A 
ATOM     27  C   UNL     1       0.176  10.469  20.955  0.00  0.00    +0.000 A 
ATOM     28  H   UNL     1      -0.617  10.202  24.047  0.00  0.00    +0.000 HD
BRANCH  25  29
ATOM     29  O   UNL     1      -0.419  13.123  18.535  0.00  0.00    +0.000 OA
ATOM     30  C   UNL     1      -0.067  14.499  18.531  0.00  0.00    +0.000 C 
ENDBRANCH  25  29
ENDBRANCH   4  19
TORSDOF 4
ENDMDL
MODEL 9
REMARK VINA RESULT:      -8.3      2.531      2.827
REMARK  Name = 
REMARK  6 active torsions:
REMARK  status: ('A' for Active; 'I' for Inactive)
REMARK    1  A    between atoms: C_1  and  O_2
REMARK    2  A    between atoms: O_2  and  C_3
REMARK    3  A    between atoms: C_9  and  C_10
REMARK    4  A    between atoms: C_13  and  C_14
REMARK    5  A    between atoms: C_20  and  O_21
REMARK    6  A    between atoms: O_21  and  C_22
REMARK                            x       y       z     vdW  Elec       q    Type
REMARK                         _______ _______ _______ _____ _____    ______ ____
ROOT
ATOM      1  C   UNL     1       2.414   7.407  18.437  0.00  0.00    +0.000 A 
ATOM      2  C   UNL     1       2.006   7.623  19.739  0.00  0.00    +0.000 A 
ATOM      3  N   UNL     1       1.415   8.757  20.177  0.00  0.00    +0.000 NA
ATOM      4  C   UNL     1       1.235   9.721  19.253  0.00  0.00    +0.000 A 
ATOM      5  N   UNL     1       1.601   9.625  17.963  0.00  0.00    +0.000 NA
ATOM      6  C   UNL     1       2.177   8.466  17.586  0.00  0.00    +0.000 A 
ENDROOT
BRANCH   1  13
ATOM      7  C   UNL     1       6.665   6.105  16.770  0.00  0.00    +0.000 A 
ATOM      8  C   UNL     1       6.686   4.747  16.461  0.00  0.00    +0.000 A 
ATOM      9  C   UNL     1       5.555   3.945  16.658  0.00  0.00    +0.000 A 
ATOM     10  C   UNL     1       4.405   4.552  17.172  0.00  0.00    +0.000 A 
ATOM     11  N   UNL     1       3.176   4.007  17.457  0.00  0.00    +0.000 N 
ATOM     12  C   UNL     1       2.335   4.970  17.948  0.00  0.00    +0.000 A 
ATOM     13  C   UNL     1       3.023   6.168  17.991  0.00  0.00    +0.000 A 
ATOM     14  C   UNL     1       4.347   5.908  17.500  0.00  0.00    +0.000 A 
ATOM     15  C   UNL     1       5.510   6.685  17.310  0.00  0.00    +0.000 A 
ATOM     16  H   UNL     1       2.932   3.037  17.316  0.00  0.00    +0.000 HD
BRANCH   7  18
ATOM     17  C   UNL     1       7.801   8.017  17.582  0.00  0.00    +0.000 C 
ATOM     18  O   UNL     1       7.725   6.962  16.630  0.00  0.00    +0.000 OA
ENDBRANCH   7  18
ENDBRANCH   1  13
BRANCH   4  19
ATOM     19  C   UNL     1       0.562  10.945  19.667  0.00  0.00    +0.000 A 
ATOM     20  C   UNL     1      -0.615  10.963  20.394  0.00  0.00    +0.000 A 
ATOM     21  N   UNL     1      -0.980  12.267  20.595  0.00  0.00    +0.000 N 
ATOM     22  C   UNL     1      -0.068  13.111  20.007  0.00  0.00    +0.000 A 
ATOM     23  C   UNL     1      -0.040  14.508  19.947  0.00  0.00    +0.000 A 
ATOM     24  C   UNL     1       1.022  15.114  19.264  0.00  0.00    +0.000 A 
ATOM     25  C   UNL     1       2.020  14.354  18.659  0.00  0.00    +0.000 A 
ATOM     26  C   UNL     1       1.971  12.957  18.738  0.00  0.00    +0.000 A 
ATOM     27  C   UNL     1       0.913  12.313  19.417  0.00  0.00    +0.000 A 
ATOM     28  H   UNL     1      -1.803  12.569  21.096  0.00  0.00    +0.000 HD
BRANCH  25  29
ATOM     29  O   UNL     1       3.094  14.840  17.963  0.00  0.00    +0.000 OA
ATOM     30  C   UNL     1       3.100  16.231  17.675  0.00  0.00    +0.000 C 
ENDBRANCH  25  29
ENDBRANCH   4  19
TORSDOF 4
ENDMDL
