MODEL 1
REMARK VINA RESULT:      -8.6      0.000      0.000
REMARK  Name = 
REMARK  11 active torsions:
REMARK  status: ('A' for Active; 'I' for Inactive)
REMARK    1  A    between atoms: C_1  and  N_2
REMARK    2  A    between atoms: N_2  and  C_3
REMARK    3  A    between atoms: N_2  and  C_4
REMARK    4  A    between atoms: C_7  and  C_8
REMARK    5  A    between atoms: C_8  and  N_9
REMARK    6  A    between atoms: C_10  and  C_12
REMARK    7  A    between atoms: C_12  and  C_13
REMARK    8  A    between atoms: C_13  and  C_14
REMARK    9  A    between atoms: C_14  and  N_15
REMARK   10  A    between atoms: C_22  and  C_23
REMARK   11  A    between atoms: N_27  and  C_28
REMARK                            x       y       z     vdW  Elec       q    Type
REMARK                         _______ _______ _______ _____ _____    ______ ____
ROOT
ATOM      1  C   UNL     1       5.603   4.268  18.877  0.00  0.00    +0.000 C 
ENDROOT
BRANCH   1   2
ATOM      2  N   UNL     1       4.367   4.109  19.683  0.00  0.00    +0.000 N 
ATOM      3  C   UNL     1       4.090   2.855  20.342  0.00  0.00    +0.000 C 
ATOM      4  O   UNL     1       4.949   1.990  20.308  0.00  0.00    +0.000 OA
ATOM      5  C   UNL     1       2.732   2.630  20.981  0.00  0.00    +0.000 C 
ATOM      6  C   UNL     1       1.852   3.841  21.240  0.00  0.00    +0.000 C 
ATOM      7  N   UNL     1       2.267   5.016  20.527  0.00  0.00    +0.000 N 
ATOM      8  N   UNL     1       1.531   6.128  20.524  0.00  0.00    +0.000 NA
ATOM      9  C   UNL     1       2.212   6.949  19.717  0.00  0.00    +0.000 A 
ATOM     10  C   UNL     1       3.411   6.345  19.257  0.00  0.00    +0.000 A 
ATOM     11  C   UNL     1       3.418   5.099  19.811  0.00  0.00    +0.000 A 
BRANCH   9  12
ATOM     12  C   UNL     1       1.709   8.307  19.370  0.00  0.00    +0.000 A 
ATOM     13  C   UNL     1       1.661   8.868  18.110  0.00  0.00    +0.000 A 
ATOM     14  C   UNL     1       1.110  10.171  18.236  0.00  0.00    +0.000 A 
ATOM     15  C   UNL     1       0.894  10.384  19.575  0.00  0.00    +0.000 A 
ATOM     16  N   UNL     1       1.198   9.232  20.244  0.00  0.00    +0.000 N 
ATOM     17  C   UNL     1       0.891   9.001  21.628  0.00  0.00    +0.000 C 
ENDBRANCH   9  12
ENDBRANCH   1   2
BRANCH   1  18
ATOM     18  C   UNL     1       6.515   5.344  19.484  0.00  0.00    +0.000 C 
BRANCH  18  19
ATOM     19  C   UNL     1       7.728   5.671  18.606  0.00  0.00    +0.000 C 
BRANCH  19  21
ATOM     20  N   UNL     1       8.227   8.029  18.260  0.00  0.00    +0.000 N 
ATOM     21  C   UNL     1       7.516   6.944  17.803  0.00  0.00    +0.000 C 
ATOM     22  O   UNL     1       6.704   6.985  16.890  0.00  0.00    +0.000 OA
ATOM     23  H   UNL     1       9.008   7.870  18.880  0.00  0.00    +0.000 HD
BRANCH  20  24
ATOM     24  C   UNL     1       8.171   9.337  17.620  0.00  0.00    +0.000 C 
BRANCH  24  28
ATOM     25  C   UNL     1       9.908  12.679  19.875  0.00  0.00    +0.000 A 
ATOM     26  C   UNL     1       9.687  11.430  20.480  0.00  0.00    +0.000 A 
ATOM     27  C   UNL     1       9.158  10.334  19.770  0.00  0.00    +0.000 A 
ATOM     28  C   UNL     1       8.863  10.431  18.407  0.00  0.00    +0.000 A 
ATOM     29  C   UNL     1       9.230  11.617  17.759  0.00  0.00    +0.000 A 
ATOM     30  C   UNL     1       9.755  12.709  18.478  0.00  0.00    +0.000 A 
BRANCH  25  32
ATOM     31  C   UNL     1      11.298  14.696  20.249  0.00  0.00    +0.000 C 
ATOM     32  N   UNL     1      10.167  13.834  20.622  0.00  0.00    +0.000 N 
ATOM     33  C   UNL     1       9.779  13.867  22.037  0.00  0.00    +0.000 C 
ENDBRANCH  25  32
ENDBRANCH  24  28
ENDBRANCH  20  24
ENDBRANCH  19  21
ENDBRANCH  18  19
ENDBRANCH   1  18
TORSDOF 8
ENDMDL
MODEL 2
REMARK VINA RESULT:      -8.0      2.009      2.755
REMARK  Name = 
REMARK  11 active torsions:
REMARK  status: ('A' for Active; 'I' for Inactive)
REMARK    1  A    between atoms: C_1  and  N_2
REMARK    2  A    between atoms: N_2  and  C_3
REMARK    3  A    between atoms: N_2  and  C_4
REMARK    4  A    between atoms: C_7  and  C_8
REMARK    5  A    between atoms: C_8  and  N_9
REMARK    6  A    between atoms: C_10  and  C_12
REMARK    7  A    between atoms: C_12  and  C_13
REMARK    8  A    between atoms: C_13  and  C_14
REMARK    9  A    between atoms: C_14  and  N_15
REMARK   10  A    between atoms: C_22  and  C_23
REMARK   11  A    between atoms: N_27  and  C_28
REMARK                            x       y       z     vdW  Elec       q    Type
REMARK                         _______ _______ _______ _____ _____    ______ ____
ROOT
ATOM      1  C   UNL     1       5.577   6.113  16.288  0.00  0.00    +0.000 C 
ENDROOT
BRANCH   1   2
ATOM      2  N   UNL     1       4.626   5.237  17.017  0.00  0.00    +0.000 N 
ATOM      3  C   UNL     1       4.626   3.813  16.779  0.00  0.00    +0.000 C 
ATOM      4  O   UNL     1       5.497   3.355  16.058  0.00  0.00    +0.000 OA
ATOM      5  C   UNL     1       3.516   2.957  17.361  0.00  0.00    +0.000 C 
ATOM      6  C   UNL     1       2.664   3.547  18.473  0.00  0.00    +0.000 C 
ATOM      7  N   UNL     1       2.787   4.972  18.596  0.00  0.00    +0.000 N 
ATOM      8  N   UNL     1       2.007   5.672  19.421  0.00  0.00    +0.000 NA
ATOM      9  C   UNL     1       2.382   6.937  19.205  0.00  0.00    +0.000 A 
ATOM     10  C   UNL     1       3.443   7.008  18.266  0.00  0.00    +0.000 A 
ATOM     11  C   UNL     1       3.686   5.716  17.902  0.00  0.00    +0.000 A 
BRANCH   9  12
ATOM     12  C   UNL     1       1.713   8.082  19.882  0.00  0.00    +0.000 A 
ATOM     13  C   UNL     1       1.436   8.190  21.230  0.00  0.00    +0.000 A 
ATOM     14  C   UNL     1       0.797   9.440  21.443  0.00  0.00    +0.000 A 
ATOM     15  C   UNL     1       0.653  10.028  20.210  0.00  0.00    +0.000 A 
ATOM     16  N   UNL     1       1.264   9.231  19.284  0.00  0.00    +0.000 N 
ATOM     17  C   UNL     1       1.512   9.622  17.924  0.00  0.00    +0.000 C 
ENDBRANCH   9  12
ENDBRANCH   1   2
BRANCH   1  18
ATOM     18  C   UNL     1       6.781   6.465  17.172  0.00  0.00    +0.000 C 
BRANCH  18  19
ATOM     19  C   UNL     1       7.083   7.967  17.209  0.00  0.00    +0.000 C 
BRANCH  19  21
ATOM     20  N   UNL     1       8.516   9.626  18.270  0.00  0.00    +0.000 N 
ATOM     21  C   UNL     1       8.145   8.302  18.244  0.00  0.00    +0.000 C 
ATOM     22  O   UNL     1       8.668   7.425  18.918  0.00  0.00    +0.000 OA
ATOM     23  H   UNL     1       7.911  10.307  17.833  0.00  0.00    +0.000 HD
BRANCH  20  24
ATOM     24  C   UNL     1       9.509  10.151  19.199  0.00  0.00    +0.000 C 
BRANCH  24  28
ATOM     25  C   UNL     1      10.246  14.394  18.345  0.00  0.00    +0.000 A 
ATOM     26  C   UNL     1       9.324  14.000  19.330  0.00  0.00    +0.000 A 
ATOM     27  C   UNL     1       9.092  12.646  19.642  0.00  0.00    +0.000 A 
ATOM     28  C   UNL     1       9.804  11.625  19.006  0.00  0.00    +0.000 A 
ATOM     29  C   UNL     1      10.837  12.011  18.142  0.00  0.00    +0.000 A 
ATOM     30  C   UNL     1      11.059  13.368  17.834  0.00  0.00    +0.000 A 
BRANCH  25  32
ATOM     31  C   UNL     1       9.031  16.450  17.686  0.00  0.00    +0.000 C 
ATOM     32  N   UNL     1      10.284  15.698  17.838  0.00  0.00    +0.000 N 
ATOM     33  C   UNL     1      11.369  16.073  16.923  0.00  0.00    +0.000 C 
ENDBRANCH  25  32
ENDBRANCH  24  28
ENDBRANCH  20  24
ENDBRANCH  19  21
ENDBRANCH  18  19
ENDBRANCH   1  18
TORSDOF 8
ENDMDL
MODEL 3
REMARK VINA RESULT:      -7.8      2.732      9.203
REMARK  Name = 
REMARK  11 active torsions:
REMARK  status: ('A' for Active; 'I' for Inactive)
REMARK    1  A    between atoms: C_1  and  N_2
REMARK    2  A    between atoms: N_2  and  C_3
REMARK    3  A    between atoms: N_2  and  C_4
REMARK    4  A    between atoms: C_7  and  C_8
REMARK    5  A    between atoms: C_8  and  N_9
REMARK    6  A    between atoms: C_10  and  C_12
REMARK    7  A    between atoms: C_12  and  C_13
REMARK    8  A    between atoms: C_13  and  C_14
REMARK    9  A    between atoms: C_14  and  N_15
REMARK   10  A    between atoms: C_22  and  C_23
REMARK   11  A    between atoms: N_27  and  C_28
REMARK                            x       y       z     vdW  Elec       q    Type
REMARK                         _______ _______ _______ _____ _____    ______ ____
ROOT
ATOM      1  C   UNL     1      10.225  11.409  19.413  0.00  0.00    +0.000 C 
ENDROOT
BRANCH   1   2
ATOM      2  N   UNL     1       9.381  12.627  19.498  0.00  0.00    +0.000 N 
ATOM      3  C   UNL     1       9.140  13.425  18.319  0.00  0.00    +0.000 C 
ATOM      4  O   UNL     1       9.553  13.005  17.251  0.00  0.00    +0.000 OA
ATOM      5  C   UNL     1       8.461  14.775  18.456  0.00  0.00    +0.000 C 
ATOM      6  C   UNL     1       7.723  15.079  19.749  0.00  0.00    +0.000 C 
ATOM      7  N   UNL     1       8.055  14.186  20.823  0.00  0.00    +0.000 N 
ATOM      8  N   UNL     1       7.611  14.391  22.064  0.00  0.00    +0.000 NA
ATOM      9  C   UNL     1       8.177  13.402  22.764  0.00  0.00    +0.000 A 
ATOM     10  C   UNL     1       8.941  12.548  21.926  0.00  0.00    +0.000 A 
ATOM     11  C   UNL     1       8.830  13.082  20.676  0.00  0.00    +0.000 A 
BRANCH   9  12
ATOM     12  C   UNL     1       8.002  13.280  24.238  0.00  0.00    +0.000 A 
ATOM     13  C   UNL     1       8.686  13.986  25.207  0.00  0.00    +0.000 A 
ATOM     14  C   UNL     1       8.205  13.560  26.473  0.00  0.00    +0.000 A 
ATOM     15  C   UNL     1       7.286  12.568  26.237  0.00  0.00    +0.000 A 
ATOM     16  N   UNL     1       7.124  12.451  24.886  0.00  0.00    +0.000 N 
ATOM     17  C   UNL     1       6.087  11.673  24.264  0.00  0.00    +0.000 C 
ENDBRANCH   9  12
ENDBRANCH   1   2
BRANCH   1  18
ATOM     18  C   UNL     1       9.368  10.142  19.537  0.00  0.00    +0.000 C 
BRANCH  18  19
ATOM     19  C   UNL     1       8.578   9.821  18.263  0.00  0.00    +0.000 C 
BRANCH  19  21
ATOM     20  N   UNL     1       7.368   8.027  17.147  0.00  0.00    +0.000 N 
ATOM     21  C   UNL     1       8.218   8.347  18.179  0.00  0.00    +0.000 C 
ATOM     22  O   UNL     1       8.599   7.556  19.031  0.00  0.00    +0.000 OA
ATOM     23  H   UNL     1       7.261   8.683  16.387  0.00  0.00    +0.000 HD
BRANCH  20  24
ATOM     24  C   UNL     1       6.915   6.665  16.889  0.00  0.00    +0.000 C 
BRANCH  24  28
ATOM     25  C   UNL     1       3.227   5.833  19.119  0.00  0.00    +0.000 A 
ATOM     26  C   UNL     1       3.205   6.582  17.931  0.00  0.00    +0.000 A 
ATOM     27  C   UNL     1       4.370   6.838  17.182  0.00  0.00    +0.000 A 
ATOM     28  C   UNL     1       5.608   6.319  17.572  0.00  0.00    +0.000 A 
ATOM     29  C   UNL     1       5.615   5.439  18.662  0.00  0.00    +0.000 A 
ATOM     30  C   UNL     1       4.444   5.192  19.406  0.00  0.00    +0.000 A 
BRANCH  25  32
ATOM     31  C   UNL     1       1.675   7.060  20.611  0.00  0.00    +0.000 C 
ATOM     32  N   UNL     1       2.143   5.806  20.005  0.00  0.00    +0.000 N 
ATOM     33  C   UNL     1       1.893   4.588  20.785  0.00  0.00    +0.000 C 
ENDBRANCH  25  32
ENDBRANCH  24  28
ENDBRANCH  20  24
ENDBRANCH  19  21
ENDBRANCH  18  19
ENDBRANCH   1  18
TORSDOF 8
ENDMDL
MODEL 4
REMARK VINA RESULT:      -7.7      3.742      8.427
REMARK  Name = 
REMARK  11 active torsions:
REMARK  status: ('A' for Active; 'I' for Inactive)
REMARK    1  A    between atoms: C_1  and  N_2
REMARK    2  A    between atoms: N_2  and  C_3
REMARK    3  A    between atoms: N_2  and  C_4
REMARK    4  A    between atoms: C_7  and  C_8
REMARK    5  A    between atoms: C_8  and  N_9
REMARK    6  A    between atoms: C_10  and  C_12
REMARK    7  A    between atoms: C_12  and  C_13
REMARK    8  A    between atoms: C_13  and  C_14
REMARK    9  A    between atoms: C_14  and  N_15
REMARK   10  A    between atoms: C_22  and  C_23
REMARK   11  A    between atoms: N_27  and  C_28
REMARK                            x       y       z     vdW  Elec       q    Type
REMARK                         _______ _______ _______ _____ _____    ______ ____
ROOT
ATOM      1  C   UNL     1       1.666   4.832  20.838  0.00  0.00    +0.000 C 
ENDROOT
BRANCH   1   2
ATOM      2  N   UNL     1       2.187   4.119  19.645  0.00  0.00    +0.000 N 
ATOM      3  C   UNL     1       1.524   2.929  19.168  0.00  0.00    +0.000 C 
ATOM      4  O   UNL     1       0.476   2.606  19.701  0.00  0.00    +0.000 OA
ATOM      5  C   UNL     1       2.181   2.089  18.088  0.00  0.00    +0.000 C 
ATOM      6  C   UNL     1       3.309   2.711  17.282  0.00  0.00    +0.000 C 
ATOM      7  N   UNL     1       3.853   3.899  17.878  0.00  0.00    +0.000 N 
ATOM      8  N   UNL     1       4.939   4.495  17.384  0.00  0.00    +0.000 NA
ATOM      9  C   UNL     1       5.154   5.504  18.234  0.00  0.00    +0.000 A 
ATOM     10  C   UNL     1       4.153   5.555  19.239  0.00  0.00    +0.000 A 
ATOM     11  C   UNL     1       3.322   4.508  18.969  0.00  0.00    +0.000 A 
BRANCH   9  12
ATOM     12  C   UNL     1       6.327   6.411  18.098  0.00  0.00    +0.000 A 
ATOM     13  C   UNL     1       6.427   7.504  17.261  0.00  0.00    +0.000 A 
ATOM     14  C   UNL     1       7.710   8.081  17.452  0.00  0.00    +0.000 A 
ATOM     15  C   UNL     1       8.373   7.288  18.356  0.00  0.00    +0.000 A 
ATOM     16  N   UNL     1       7.509   6.320  18.787  0.00  0.00    +0.000 N 
ATOM     17  C   UNL     1       7.772   5.442  19.893  0.00  0.00    +0.000 C 
ENDBRANCH   9  12
ENDBRANCH   1   2
BRANCH   1  18
ATOM     18  C   UNL     1       1.009   6.160  20.436  0.00  0.00    +0.000 C 
BRANCH  18  19
ATOM     19  C   UNL     1       1.679   7.382  21.073  0.00  0.00    +0.000 C 
BRANCH  19  21
ATOM     20  N   UNL     1       1.032   9.684  20.612  0.00  0.00    +0.000 N 
ATOM     21  C   UNL     1       0.696   8.524  21.270  0.00  0.00    +0.000 C 
ATOM     22  O   UNL     1      -0.255   8.413  22.032  0.00  0.00    +0.000 OA
ATOM     23  H   UNL     1       1.707   9.636  19.862  0.00  0.00    +0.000 HD
BRANCH  20  24
ATOM     24  C   UNL     1       0.212  10.888  20.664  0.00  0.00    +0.000 C 
BRANCH  24  28
ATOM     25  C   UNL     1      -2.675  11.029  17.360  0.00  0.00    +0.000 A 
ATOM     26  C   UNL     1      -2.666  12.016  18.360  0.00  0.00    +0.000 A 
ATOM     27  C   UNL     1      -1.731  12.008  19.414  0.00  0.00    +0.000 A 
ATOM     28  C   UNL     1      -0.736  11.030  19.490  0.00  0.00    +0.000 A 
ATOM     29  C   UNL     1      -0.635  10.139  18.414  0.00  0.00    +0.000 A 
ATOM     30  C   UNL     1      -1.576  10.152  17.366  0.00  0.00    +0.000 A 
BRANCH  25  32
ATOM     31  C   UNL     1      -3.488  10.567  15.065  0.00  0.00    +0.000 C 
ATOM     32  N   UNL     1      -3.751  10.869  16.479  0.00  0.00    +0.000 N 
ATOM     33  C   UNL     1      -5.007  11.575  16.757  0.00  0.00    +0.000 C 
ENDBRANCH  25  32
ENDBRANCH  24  28
ENDBRANCH  20  24
ENDBRANCH  19  21
ENDBRANCH  18  19
ENDBRANCH   1  18
TORSDOF 8
ENDMDL
MODEL 5
REMARK VINA RESULT:      -7.6      5.657      9.942
REMARK  Name = 
REMARK  11 active torsions:
REMARK  status: ('A' for Active; 'I' for Inactive)
REMARK    1  A    between atoms: C_1  and  N_2
REMARK    2  A    between atoms: N_2  and  C_3
REMARK    3  A    between atoms: N_2  and  C_4
REMARK    4  A    between atoms: C_7  and  C_8
REMARK    5  A    between atoms: C_8  and  N_9
REMARK    6  A    between atoms: C_10  and  C_12
REMARK    7  A    between atoms: C_12  and  C_13
REMARK    8  A    between atoms: C_13  and  C_14
REMARK    9  A    between atoms: C_14  and  N_15
REMARK   10  A    between atoms: C_22  and  C_23
REMARK   11  A    between atoms: N_27  and  C_28
REMARK                            x       y       z     vdW  Elec       q    Type
REMARK                         _______ _______ _______ _____ _____    ______ ____
ROOT
ATOM      1  C   UNL     1       1.322   8.934  22.053  0.00  0.00    +0.000 C 
ENDROOT
BRANCH   1   2
ATOM      2  N   UNL     1       1.558   8.874  20.589  0.00  0.00    +0.000 N 
ATOM      3  C   UNL     1       1.309  10.035  19.768  0.00  0.00    +0.000 C 
ATOM      4  O   UNL     1       1.015  11.078  20.327  0.00  0.00    +0.000 OA
ATOM      5  C   UNL     1       1.346   9.903  18.256  0.00  0.00    +0.000 C 
ATOM      6  C   UNL     1       2.005   8.671  17.659  0.00  0.00    +0.000 C 
ATOM      7  N   UNL     1       2.203   7.610  18.606  0.00  0.00    +0.000 N 
ATOM      8  N   UNL     1       2.636   6.407  18.226  0.00  0.00    +0.000 NA
ATOM      9  C   UNL     1       2.629   5.702  19.362  0.00  0.00    +0.000 A 
ATOM     10  C   UNL     1       2.230   6.502  20.464  0.00  0.00    +0.000 A 
ATOM     11  C   UNL     1       1.973   7.733  19.938  0.00  0.00    +0.000 A 
BRANCH   9  12
ATOM     12  C   UNL     1       2.987   4.256  19.393  0.00  0.00    +0.000 A 
ATOM     13  C   UNL     1       4.261   3.726  19.384  0.00  0.00    +0.000 A 
ATOM     14  C   UNL     1       4.142   2.312  19.425  0.00  0.00    +0.000 A 
ATOM     15  C   UNL     1       2.800   2.024  19.398  0.00  0.00    +0.000 A 
ATOM     16  N   UNL     1       2.111   3.203  19.443  0.00  0.00    +0.000 N 
ATOM     17  C   UNL     1       0.693   3.299  19.653  0.00  0.00    +0.000 C 
ENDBRANCH   9  12
ENDBRANCH   1   2
BRANCH   1  18
ATOM     18  C   UNL     1      -0.181   8.956  22.362  0.00  0.00    +0.000 C 
BRANCH  18  19
ATOM     19  C   UNL     1      -0.538   9.853  23.553  0.00  0.00    +0.000 C 
BRANCH  19  21
ATOM     20  N   UNL     1      -0.759  11.951  22.336  0.00  0.00    +0.000 N 
ATOM     21  C   UNL     1      -1.401  11.031  23.131  0.00  0.00    +0.000 C 
ATOM     22  O   UNL     1      -2.539  11.163  23.559  0.00  0.00    +0.000 OA
ATOM     23  H   UNL     1       0.097  11.678  21.874  0.00  0.00    +0.000 HD
BRANCH  20  24
ATOM     24  C   UNL     1      -1.417  13.144  21.817  0.00  0.00    +0.000 C 
BRANCH  24  28
ATOM     25  C   UNL     1      -4.248  12.002  18.662  0.00  0.00    +0.000 A 
ATOM     26  C   UNL     1      -4.678  12.687  19.811  0.00  0.00    +0.000 A 
ATOM     27  C   UNL     1      -3.784  13.090  20.823  0.00  0.00    +0.000 A 
ATOM     28  C   UNL     1      -2.411  12.857  20.709  0.00  0.00    +0.000 A 
ATOM     29  C   UNL     1      -1.954  12.322  19.498  0.00  0.00    +0.000 A 
ATOM     30  C   UNL     1      -2.855  11.920  18.493  0.00  0.00    +0.000 A 
BRANCH  25  32
ATOM     31  C   UNL     1      -4.738  11.090  16.411  0.00  0.00    +0.000 C 
ATOM     32  N   UNL     1      -5.143  11.362  17.796  0.00  0.00    +0.000 N 
ATOM     33  C   UNL     1      -6.585  11.525  18.019  0.00  0.00    +0.000 C 
ENDBRANCH  25  32
ENDBRANCH  24  28
ENDBRANCH  20  24
ENDBRANCH  19  21
ENDBRANCH  18  19
ENDBRANCH   1  18
TORSDOF 8
ENDMDL
MODEL 6
REMARK VINA RESULT:      -7.6      4.865      8.648
REMARK  Name = 
REMARK  11 active torsions:
REMARK  status: ('A' for Active; 'I' for Inactive)
REMARK    1  A    between atoms: C_1  and  N_2
REMARK    2  A    between atoms: N_2  and  C_3
REMARK    3  A    between atoms: N_2  and  C_4
REMARK    4  A    between atoms: C_7  and  C_8
REMARK    5  A    between atoms: C_8  and  N_9
REMARK    6  A    between atoms: C_10  and  C_12
REMARK    7  A    between atoms: C_12  and  C_13
REMARK    8  A    between atoms: C_13  and  C_14
REMARK    9  A    between atoms: C_14  and  N_15
REMARK   10  A    between atoms: C_22  and  C_23
REMARK   11  A    between atoms: N_27  and  C_28
REMARK                            x       y       z     vdW  Elec       q    Type
REMARK                         _______ _______ _______ _____ _____    ______ ____
ROOT
ATOM      1  C   UNL     1       2.831   5.890  20.202  0.00  0.00    +0.000 C 
ENDROOT
BRANCH   1   2
ATOM      2  N   UNL     1       2.600   4.590  19.523  0.00  0.00    +0.000 N 
ATOM      3  C   UNL     1       1.667   3.640  20.080  0.00  0.00    +0.000 C 
ATOM      4  O   UNL     1       1.005   3.986  21.044  0.00  0.00    +0.000 OA
ATOM      5  C   UNL     1       1.597   2.237  19.505  0.00  0.00    +0.000 C 
ATOM      6  C   UNL     1       2.220   1.988  18.142  0.00  0.00    +0.000 C 
ATOM      7  N   UNL     1       3.109   3.033  17.718  0.00  0.00    +0.000 N 
ATOM      8  N   UNL     1       3.851   2.914  16.616  0.00  0.00    +0.000 NA
ATOM      9  C   UNL     1       4.570   4.041  16.603  0.00  0.00    +0.000 A 
ATOM     10  C   UNL     1       4.226   4.886  17.690  0.00  0.00    +0.000 A 
ATOM     11  C   UNL     1       3.270   4.205  18.383  0.00  0.00    +0.000 A 
BRANCH   9  12
ATOM     12  C   UNL     1       5.600   4.306  15.560  0.00  0.00    +0.000 A 
ATOM     13  C   UNL     1       5.434   4.190  14.195  0.00  0.00    +0.000 A 
ATOM     14  C   UNL     1       6.664   4.538  13.577  0.00  0.00    +0.000 A 
ATOM     15  C   UNL     1       7.557   4.798  14.588  0.00  0.00    +0.000 A 
ATOM     16  N   UNL     1       6.890   4.717  15.777  0.00  0.00    +0.000 N 
ATOM     17  C   UNL     1       7.436   5.139  17.037  0.00  0.00    +0.000 C 
ENDBRANCH   9  12
ENDBRANCH   1   2
BRANCH   1  18
ATOM     18  C   UNL     1       1.811   6.938  19.734  0.00  0.00    +0.000 C 
BRANCH  18  19
ATOM     19  C   UNL     1       2.190   7.596  18.404  0.00  0.00    +0.000 C 
BRANCH  19  21
ATOM     20  N   UNL     1       1.167   9.520  19.492  0.00  0.00    +0.000 N 
ATOM     21  C   UNL     1       1.896   9.087  18.409  0.00  0.00    +0.000 C 
ATOM     22  O   UNL     1       2.216   9.796  17.465  0.00  0.00    +0.000 OA
ATOM     23  H   UNL     1       1.114   8.926  20.307  0.00  0.00    +0.000 HD
BRANCH  20  24
ATOM     24  C   UNL     1       0.794  10.915  19.688  0.00  0.00    +0.000 C 
BRANCH  24  28
ATOM     25  C   UNL     1      -3.391  11.556  18.525  0.00  0.00    +0.000 A 
ATOM     26  C   UNL     1      -2.772  12.366  19.492  0.00  0.00    +0.000 A 
ATOM     27  C   UNL     1      -1.423  12.200  19.860  0.00  0.00    +0.000 A 
ATOM     28  C   UNL     1      -0.621  11.234  19.246  0.00  0.00    +0.000 A 
ATOM     29  C   UNL     1      -1.179  10.532  18.171  0.00  0.00    +0.000 A 
ATOM     30  C   UNL     1      -2.530  10.703  17.811  0.00  0.00    +0.000 A 
BRANCH  25  32
ATOM     31  C   UNL     1      -5.353  11.921  17.058  0.00  0.00    +0.000 C 
ATOM     32  N   UNL     1      -4.780  11.528  18.352  0.00  0.00    +0.000 N 
ATOM     33  C   UNL     1      -5.645  11.728  19.520  0.00  0.00    +0.000 C 
ENDBRANCH  25  32
ENDBRANCH  24  28
ENDBRANCH  20  24
ENDBRANCH  19  21
ENDBRANCH  18  19
ENDBRANCH   1  18
TORSDOF 8
ENDMDL
MODEL 7
REMARK VINA RESULT:      -7.6      1.426      1.950
REMARK  Name = 
REMARK  11 active torsions:
REMARK  status: ('A' for Active; 'I' for Inactive)
REMARK    1  A    between atoms: C_1  and  N_2
REMARK    2  A    between atoms: N_2  and  C_3
REMARK    3  A    between atoms: N_2  and  C_4
REMARK    4  A    between atoms: C_7  and  C_8
REMARK    5  A    between atoms: C_8  and  N_9
REMARK    6  A    between atoms: C_10  and  C_12
REMARK    7  A    between atoms: C_12  and  C_13
REMARK    8  A    between atoms: C_13  and  C_14
REMARK    9  A    between atoms: C_14  and  N_15
REMARK   10  A    between atoms: C_22  and  C_23
REMARK   11  A    between atoms: N_27  and  C_28
REMARK                            x       y       z     vdW  Elec       q    Type
REMARK                         _______ _______ _______ _____ _____    ______ ____
ROOT
ATOM      1  C   UNL     1       5.067   4.061  18.059  0.00  0.00    +0.000 C 
ENDROOT
BRANCH   1   2
ATOM      2  N   UNL     1       4.116   4.025  19.199  0.00  0.00    +0.000 N 
ATOM      3  C   UNL     1       3.984   2.826  19.992  0.00  0.00    +0.000 C 
ATOM      4  O   UNL     1       4.750   1.904  19.767  0.00  0.00    +0.000 OA
ATOM      5  C   UNL     1       2.864   2.725  21.012  0.00  0.00    +0.000 C 
ATOM      6  C   UNL     1       2.161   4.004  21.435  0.00  0.00    +0.000 C 
ATOM      7  N   UNL     1       2.406   5.111  20.555  0.00  0.00    +0.000 N 
ATOM      8  N   UNL     1       1.758   6.269  20.692  0.00  0.00    +0.000 NA
ATOM      9  C   UNL     1       2.211   7.002  19.669  0.00  0.00    +0.000 A 
ATOM     10  C   UNL     1       3.190   6.296  18.922  0.00  0.00    +0.000 A 
ATOM     11  C   UNL     1       3.297   5.081  19.531  0.00  0.00    +0.000 A 
BRANCH   9  12
ATOM     12  C   UNL     1       1.697   8.372  19.394  0.00  0.00    +0.000 A 
ATOM     13  C   UNL     1       1.685   9.014  18.172  0.00  0.00    +0.000 A 
ATOM     14  C   UNL     1       1.107  10.297  18.362  0.00  0.00    +0.000 A 
ATOM     15  C   UNL     1       0.839  10.418  19.704  0.00  0.00    +0.000 A 
ATOM     16  N   UNL     1       1.139   9.229  20.306  0.00  0.00    +0.000 N 
ATOM     17  C   UNL     1       0.786   8.901  21.660  0.00  0.00    +0.000 C 
ENDBRANCH   9  12
ENDBRANCH   1   2
BRANCH   1  18
ATOM     18  C   UNL     1       4.485   4.864  16.888  0.00  0.00    +0.000 C 
BRANCH  18  19
ATOM     19  C   UNL     1       5.559   5.525  16.018  0.00  0.00    +0.000 C 
BRANCH  19  21
ATOM     20  N   UNL     1       6.919   6.892  17.506  0.00  0.00    +0.000 N 
ATOM     21  C   UNL     1       6.858   5.724  16.781  0.00  0.00    +0.000 C 
ATOM     22  O   UNL     1       7.786   4.936  16.663  0.00  0.00    +0.000 OA
ATOM     23  H   UNL     1       6.059   7.381  17.707  0.00  0.00    +0.000 HD
BRANCH  20  24
ATOM     24  C   UNL     1       8.074   7.261  18.315  0.00  0.00    +0.000 C 
BRANCH  24  28
ATOM     25  C   UNL     1       9.102  11.528  18.375  0.00  0.00    +0.000 A 
ATOM     26  C   UNL     1       8.126  11.028  17.497  0.00  0.00    +0.000 A 
ATOM     27  C   UNL     1       7.758   9.668  17.479  0.00  0.00    +0.000 A 
ATOM     28  C   UNL     1       8.326   8.754  18.370  0.00  0.00    +0.000 A 
ATOM     29  C   UNL     1       9.179   9.270  19.355  0.00  0.00    +0.000 A 
ATOM     30  C   UNL     1       9.543  10.631  19.363  0.00  0.00    +0.000 A 
BRANCH  25  32
ATOM     31  C   UNL     1       8.804  13.933  17.860  0.00  0.00    +0.000 C 
ATOM     32  N   UNL     1       9.667  12.799  18.216  0.00  0.00    +0.000 N 
ATOM     33  C   UNL     1      11.068  12.905  17.792  0.00  0.00    +0.000 C 
ENDBRANCH  25  32
ENDBRANCH  24  28
ENDBRANCH  20  24
ENDBRANCH  19  21
ENDBRANCH  18  19
ENDBRANCH   1  18
TORSDOF 8
ENDMDL
MODEL 8
REMARK VINA RESULT:      -7.6      3.228      9.511
REMARK  Name = 
REMARK  11 active torsions:
REMARK  status: ('A' for Active; 'I' for Inactive)
REMARK    1  A    between atoms: C_1  and  N_2
REMARK    2  A    between atoms: N_2  and  C_3
REMARK    3  A    between atoms: N_2  and  C_4
REMARK    4  A    between atoms: C_7  and  C_8
REMARK    5  A    between atoms: C_8  and  N_9
REMARK    6  A    between atoms: C_10  and  C_12
REMARK    7  A    between atoms: C_12  and  C_13
REMARK    8  A    between atoms: C_13  and  C_14
REMARK    9  A    between atoms: C_14  and  N_15
REMARK   10  A    between atoms: C_22  and  C_23
REMARK   11  A    between atoms: N_27  and  C_28
REMARK                            x       y       z     vdW  Elec       q    Type
REMARK                         _______ _______ _______ _____ _____    ______ ____
ROOT
ATOM      1  C   UNL     1       9.542  11.393  19.955  0.00  0.00    +0.000 C 
ENDROOT
BRANCH   1   2
ATOM      2  N   UNL     1       9.968  12.498  19.060  0.00  0.00    +0.000 N 
ATOM      3  C   UNL     1      11.223  12.411  18.352  0.00  0.00    +0.000 C 
ATOM      4  O   UNL     1      11.850  11.368  18.426  0.00  0.00    +0.000 OA
ATOM      5  C   UNL     1      11.749  13.628  17.613  0.00  0.00    +0.000 C 
ATOM      6  C   UNL     1      10.783  14.764  17.322  0.00  0.00    +0.000 C 
ATOM      7  N   UNL     1       9.573  14.700  18.092  0.00  0.00    +0.000 N 
ATOM      8  N   UNL     1       8.678  15.689  18.070  0.00  0.00    +0.000 NA
ATOM      9  C   UNL     1       7.748  15.286  18.944  0.00  0.00    +0.000 A 
ATOM     10  C   UNL     1       8.057  14.005  19.472  0.00  0.00    +0.000 A 
ATOM     11  C   UNL     1       9.239  13.654  18.889  0.00  0.00    +0.000 A 
BRANCH   9  12
ATOM     12  C   UNL     1       6.572  16.132  19.287  0.00  0.00    +0.000 A 
ATOM     13  C   UNL     1       6.567  17.228  20.127  0.00  0.00    +0.000 A 
ATOM     14  C   UNL     1       5.241  17.735  20.168  0.00  0.00    +0.000 A 
ATOM     15  C   UNL     1       4.470  16.897  19.401  0.00  0.00    +0.000 A 
ATOM     16  N   UNL     1       5.292  15.972  18.823  0.00  0.00    +0.000 N 
ATOM     17  C   UNL     1       4.882  15.068  17.784  0.00  0.00    +0.000 C 
ENDBRANCH   9  12
ENDBRANCH   1   2
BRANCH   1  18
ATOM     18  C   UNL     1       9.600  10.045  19.224  0.00  0.00    +0.000 C 
BRANCH  18  19
ATOM     19  C   UNL     1       8.451   9.850  18.228  0.00  0.00    +0.000 C 
BRANCH  19  21
ATOM     20  N   UNL     1       7.138   8.134  17.105  0.00  0.00    +0.000 N 
ATOM     21  C   UNL     1       8.088   8.383  18.067  0.00  0.00    +0.000 C 
ATOM     22  O   UNL     1       8.556   7.533  18.812  0.00  0.00    +0.000 OA
ATOM     23  H   UNL     1       6.952   8.846  16.413  0.00  0.00    +0.000 HD
BRANCH  20  24
ATOM     24  C   UNL     1       6.664   6.792  16.790  0.00  0.00    +0.000 C 
BRANCH  24  28
ATOM     25  C   UNL     1       3.172   5.332  19.013  0.00  0.00    +0.000 A 
ATOM     26  C   UNL     1       4.474   4.933  19.360  0.00  0.00    +0.000 A 
ATOM     27  C   UNL     1       5.612   5.411  18.681  0.00  0.00    +0.000 A 
ATOM     28  C   UNL     1       5.497   6.341  17.645  0.00  0.00    +0.000 A 
ATOM     29  C   UNL     1       4.223   6.867  17.399  0.00  0.00    +0.000 A 
ATOM     30  C   UNL     1       3.090   6.381  18.081  0.00  0.00    +0.000 A 
BRANCH  25  32
ATOM     31  C   UNL     1       1.876   4.451  20.932  0.00  0.00    +0.000 C 
ATOM     32  N   UNL     1       2.036   4.665  19.488  0.00  0.00    +0.000 N 
ATOM     33  C   UNL     1       1.375   3.683  18.620  0.00  0.00    +0.000 C 
ENDBRANCH  25  32
ENDBRANCH  24  28
ENDBRANCH  20  24
ENDBRANCH  19  21
ENDBRANCH  18  19
ENDBRANCH   1  18
TORSDOF 8
ENDMDL
MODEL 9
REMARK VINA RESULT:      -7.5      4.798      8.769
REMARK  Name = 
REMARK  11 active torsions:
REMARK  status: ('A' for Active; 'I' for Inactive)
REMARK    1  A    between atoms: C_1  and  N_2
REMARK    2  A    between atoms: N_2  and  C_3
REMARK    3  A    between atoms: N_2  and  C_4
REMARK    4  A    between atoms: C_7  and  C_8
REMARK    5  A    between atoms: C_8  and  N_9
REMARK    6  A    between atoms: C_10  and  C_12
REMARK    7  A    between atoms: C_12  and  C_13
REMARK    8  A    between atoms: C_13  and  C_14
REMARK    9  A    between atoms: C_14  and  N_15
REMARK   10  A    between atoms: C_22  and  C_23
REMARK   11  A    between atoms: N_27  and  C_28
REMARK                            x       y       z     vdW  Elec       q    Type
REMARK                         _______ _______ _______ _____ _____    ______ ____
ROOT
ATOM      1  C   UNL     1       1.613   6.198  18.971  0.00  0.00    +0.000 C 
ENDROOT
BRANCH   1   2
ATOM      2  N   UNL     1       2.143   4.811  19.004  0.00  0.00    +0.000 N 
ATOM      3  C   UNL     1       1.660   3.876  19.992  0.00  0.00    +0.000 C 
ATOM      4  O   UNL     1       0.737   4.227  20.708  0.00  0.00    +0.000 OA
ATOM      5  C   UNL     1       2.356   2.537  20.156  0.00  0.00    +0.000 C 
ATOM      6  C   UNL     1       3.279   2.067  19.045  0.00  0.00    +0.000 C 
ATOM      7  N   UNL     1       3.655   3.109  18.132  0.00  0.00    +0.000 N 
ATOM      8  N   UNL     1       4.570   2.910  17.182  0.00  0.00    +0.000 NA
ATOM      9  C   UNL     1       4.679   4.108  16.599  0.00  0.00    +0.000 A 
ATOM     10  C   UNL     1       3.779   5.045  17.170  0.00  0.00    +0.000 A 
ATOM     11  C   UNL     1       3.125   4.359  18.152  0.00  0.00    +0.000 A 
BRANCH   9  12
ATOM     12  C   UNL     1       5.656   4.365  15.505  0.00  0.00    +0.000 A 
ATOM     13  C   UNL     1       5.573   3.907  14.205  0.00  0.00    +0.000 A 
ATOM     14  C   UNL     1       6.710   4.386  13.503  0.00  0.00    +0.000 A 
ATOM     15  C   UNL     1       7.479   5.072  14.411  0.00  0.00    +0.000 A 
ATOM     16  N   UNL     1       6.805   5.107  15.599  0.00  0.00    +0.000 N 
ATOM     17  C   UNL     1       7.191   5.920  16.719  0.00  0.00    +0.000 C 
ENDBRANCH   9  12
ENDBRANCH   1   2
BRANCH   1  18
ATOM     18  C   UNL     1       2.312   7.074  20.020  0.00  0.00    +0.000 C 
BRANCH  18  19
ATOM     19  C   UNL     1       1.349   7.647  21.065  0.00  0.00    +0.000 C 
BRANCH  19  21
ATOM     20  N   UNL     1       1.058   9.563  19.590  0.00  0.00    +0.000 N 
ATOM     21  C   UNL     1       1.162   9.145  20.897  0.00  0.00    +0.000 C 
ATOM     22  O   UNL     1       1.197   9.897  21.861  0.00  0.00    +0.000 OA
ATOM     23  H   UNL     1       0.843   8.878  18.880  0.00  0.00    +0.000 HD
BRANCH  20  24
ATOM     24  C   UNL     1       0.861  10.959  19.220  0.00  0.00    +0.000 C 
BRANCH  24  28
ATOM     25  C   UNL     1      -3.434  11.795  18.874  0.00  0.00    +0.000 A 
ATOM     26  C   UNL     1      -2.621  12.521  19.761  0.00  0.00    +0.000 A 
ATOM     27  C   UNL     1      -1.235  12.291  19.869  0.00  0.00    +0.000 A 
ATOM     28  C   UNL     1      -0.595  11.347  19.062  0.00  0.00    +0.000 A 
ATOM     29  C   UNL     1      -1.364  10.735  18.064  0.00  0.00    +0.000 A 
ATOM     30  C   UNL     1      -2.750  10.969  17.966  0.00  0.00    +0.000 A 
BRANCH  25  32
ATOM     31  C   UNL     1      -5.624  11.103  17.945  0.00  0.00    +0.000 C 
ATOM     32  N   UNL     1      -4.832  11.819  18.954  0.00  0.00    +0.000 N 
ATOM     33  C   UNL     1      -5.488  12.973  19.580  0.00  0.00    +0.000 C 
ENDBRANCH  25  32
ENDBRANCH  24  28
ENDBRANCH  20  24
ENDBRANCH  19  21
ENDBRANCH  18  19
ENDBRANCH   1  18
TORSDOF 8
ENDMDL
