MODEL 1
REMARK VINA RESULT:      -8.5      0.000      0.000
REMARK  Name = 
REMARK  8 active torsions:
REMARK  status: ('A' for Active; 'I' for Inactive)
REMARK    1  A    between atoms: C_2  and  C_3
REMARK    2  A    between atoms: C_4  and  C_5
REMARK    3  A    between atoms: C_9  and  C_10
REMARK    4  A    between atoms: C_10  and  S_11
REMARK    5  A    between atoms: S_11  and  C_12
REMARK    6  A    between atoms: C_14  and  O_15
REMARK    7  A    between atoms: C_17  and  C_18
REMARK    8  A    between atoms: N_26  and  O_27
REMARK                            x       y       z     vdW  Elec       q    Type
REMARK                         _______ _______ _______ _____ _____    ______ ____
ROOT
ATOM      1  C   UNL     1       5.730   5.384  15.805  0.00  0.00    +0.000 C 
ENDROOT
BRANCH   1   6
ATOM      2  C   UNL     1       7.814   7.830  17.909  0.00  0.00    +0.000 A 
ATOM      3  C   UNL     1       8.289   6.969  18.907  0.00  0.00    +0.000 A 
ATOM      4  C   UNL     1       7.923   5.622  18.921  0.00  0.00    +0.000 A 
ATOM      5  C   UNL     1       7.089   5.112  17.926  0.00  0.00    +0.000 A 
ATOM      6  C   UNL     1       6.603   5.944  16.909  0.00  0.00    +0.000 A 
ATOM      7  C   UNL     1       6.982   7.299  16.907  0.00  0.00    +0.000 A 
BRANCH   2   9
ATOM      8  C   UNL     1       8.986   9.874  18.728  0.00  0.00    +0.000 C 
ATOM      9  C   UNL     1       8.186   9.256  17.844  0.00  0.00    +0.000 C 
BRANCH   8  11
ATOM     10  O   UNL     1      10.106  11.920  19.272  0.00  0.00    +0.000 OA
ATOM     11  C   UNL     1       9.269  11.325  18.602  0.00  0.00    +0.000 C 
ATOM     12  N   UNL     1       8.502  11.941  17.648  0.00  0.00    +0.000 N 
ATOM     13  H   UNL     1       7.808  11.492  17.061  0.00  0.00    +0.000 HD
BRANCH  12  14
ATOM     14  O   UNL     1       8.717  13.320  17.440  0.00  0.00    +0.000 OA
ATOM     15  H   UNL     1       8.337  13.716  18.254  0.00  0.00    +0.000 HD
ENDBRANCH  12  14
ENDBRANCH   8  11
ENDBRANCH   2   9
ENDBRANCH   1   6
BRANCH   1  16
ATOM     16  S   UNL     1       5.309   3.630  16.065  0.00  0.00    +0.000 S 
BRANCH  16  17
ATOM     17  C   UNL     1       3.936   3.796  17.182  0.00  0.00    +0.000 A 
ATOM     18  N   UNL     1       3.312   2.665  17.532  0.00  0.00    +0.000 NA
ATOM     19  C   UNL     1       2.278   2.826  18.358  0.00  0.00    +0.000 A 
ATOM     20  C   UNL     1       1.826   4.017  18.851  0.00  0.00    +0.000 A 
ATOM     21  C   UNL     1       2.529   5.128  18.441  0.00  0.00    +0.000 A 
ATOM     22  N   UNL     1       3.584   5.022  17.600  0.00  0.00    +0.000 NA
BRANCH  21  23
ATOM     23  C   UNL     1       2.186   6.501  18.863  0.00  0.00    +0.000 A 
ATOM     24  C   UNL     1       1.805   6.807  20.182  0.00  0.00    +0.000 A 
ATOM     25  C   UNL     1       1.484   8.116  20.560  0.00  0.00    +0.000 A 
ATOM     26  C   UNL     1       1.540   9.147  19.628  0.00  0.00    +0.000 A 
ATOM     27  C   UNL     1       1.921   8.874  18.319  0.00  0.00    +0.000 A 
ATOM     28  C   UNL     1       2.242   7.566  17.944  0.00  0.00    +0.000 A 
ENDBRANCH  21  23
BRANCH  19  29
ATOM     29  O   UNL     1       1.649   1.670  18.698  0.00  0.00    +0.000 OA
ATOM     30  H   UNL     1       2.101   1.039  18.111  0.00  0.00    +0.000 HD
ENDBRANCH  19  29
ENDBRANCH  16  17
ENDBRANCH   1  16
TORSDOF 8
ENDMDL
MODEL 2
REMARK VINA RESULT:      -8.4      1.121      1.564
REMARK  Name = 
REMARK  8 active torsions:
REMARK  status: ('A' for Active; 'I' for Inactive)
REMARK    1  A    between atoms: C_2  and  C_3
REMARK    2  A    between atoms: C_4  and  C_5
REMARK    3  A    between atoms: C_9  and  C_10
REMARK    4  A    between atoms: C_10  and  S_11
REMARK    5  A    between atoms: S_11  and  C_12
REMARK    6  A    between atoms: C_14  and  O_15
REMARK    7  A    between atoms: C_17  and  C_18
REMARK    8  A    between atoms: N_26  and  O_27
REMARK                            x       y       z     vdW  Elec       q    Type
REMARK                         _______ _______ _______ _____ _____    ______ ____
ROOT
ATOM      1  C   UNL     1       5.209   5.596  16.320  0.00  0.00    +0.000 C 
ENDROOT
BRANCH   1   6
ATOM      2  C   UNL     1       7.805   7.918  17.940  0.00  0.00    +0.000 A 
ATOM      3  C   UNL     1       8.341   7.064  18.912  0.00  0.00    +0.000 A 
ATOM      4  C   UNL     1       7.857   5.763  19.064  0.00  0.00    +0.000 A 
ATOM      5  C   UNL     1       6.840   5.292  18.235  0.00  0.00    +0.000 A 
ATOM      6  C   UNL     1       6.287   6.119  17.247  0.00  0.00    +0.000 A 
ATOM      7  C   UNL     1       6.786   7.426  17.105  0.00  0.00    +0.000 A 
BRANCH   2   9
ATOM      8  C   UNL     1       8.904  10.035  18.671  0.00  0.00    +0.000 C 
ATOM      9  C   UNL     1       8.294   9.295  17.732  0.00  0.00    +0.000 C 
BRANCH   8  11
ATOM     10  O   UNL     1      10.382  11.917  18.757  0.00  0.00    +0.000 OA
ATOM     11  C   UNL     1       9.325  11.428  18.378  0.00  0.00    +0.000 C 
ATOM     12  N   UNL     1       8.409  12.118  17.628  0.00  0.00    +0.000 N 
ATOM     13  H   UNL     1       7.529  11.755  17.281  0.00  0.00    +0.000 HD
BRANCH  12  14
ATOM     14  O   UNL     1       8.733  13.447  17.279  0.00  0.00    +0.000 OA
ATOM     15  H   UNL     1       7.981  13.701  16.702  0.00  0.00    +0.000 HD
ENDBRANCH  12  14
ENDBRANCH   8  11
ENDBRANCH   2   9
ENDBRANCH   1   6
BRANCH   1  16
ATOM     16  S   UNL     1       4.488   4.026  16.896  0.00  0.00    +0.000 S 
BRANCH  16  17
ATOM     17  C   UNL     1       3.571   4.597  18.307  0.00  0.00    +0.000 A 
ATOM     18  N   UNL     1       3.363   3.706  19.284  0.00  0.00    +0.000 NA
ATOM     19  C   UNL     1       2.659   4.161  20.321  0.00  0.00    +0.000 A 
ATOM     20  C   UNL     1       2.153   5.423  20.450  0.00  0.00    +0.000 A 
ATOM     21  C   UNL     1       2.417   6.274  19.400  0.00  0.00    +0.000 A 
ATOM     22  N   UNL     1       3.124   5.862  18.321  0.00  0.00    +0.000 NA
BRANCH  21  23
ATOM     23  C   UNL     1       1.948   7.674  19.357  0.00  0.00    +0.000 A 
ATOM     24  C   UNL     1       2.012   8.451  18.186  0.00  0.00    +0.000 A 
ATOM     25  C   UNL     1       1.562   9.776  18.168  0.00  0.00    +0.000 A 
ATOM     26  C   UNL     1       1.034  10.351  19.320  0.00  0.00    +0.000 A 
ATOM     27  C   UNL     1       0.952   9.603  20.489  0.00  0.00    +0.000 A 
ATOM     28  C   UNL     1       1.402   8.280  20.505  0.00  0.00    +0.000 A 
ENDBRANCH  21  23
BRANCH  19  29
ATOM     29  O   UNL     1       2.449   3.244  21.300  0.00  0.00    +0.000 OA
ATOM     30  H   UNL     1       3.340   3.188  21.690  0.00  0.00    +0.000 HD
ENDBRANCH  19  29
ENDBRANCH  16  17
ENDBRANCH   1  16
TORSDOF 8
ENDMDL
MODEL 3
REMARK VINA RESULT:      -8.4      4.641      7.090
REMARK  Name = 
REMARK  8 active torsions:
REMARK  status: ('A' for Active; 'I' for Inactive)
REMARK    1  A    between atoms: C_2  and  C_3
REMARK    2  A    between atoms: C_4  and  C_5
REMARK    3  A    between atoms: C_9  and  C_10
REMARK    4  A    between atoms: C_10  and  S_11
REMARK    5  A    between atoms: S_11  and  C_12
REMARK    6  A    between atoms: C_14  and  O_15
REMARK    7  A    between atoms: C_17  and  C_18
REMARK    8  A    between atoms: N_26  and  O_27
REMARK                            x       y       z     vdW  Elec       q    Type
REMARK                         _______ _______ _______ _____ _____    ______ ____
ROOT
ATOM      1  C   UNL     1       2.347   6.976  19.414  0.00  0.00    +0.000 C 
ENDROOT
BRANCH   1   6
ATOM      2  C   UNL     1       3.592   4.167  17.108  0.00  0.00    +0.000 A 
ATOM      3  C   UNL     1       2.761   3.115  17.515  0.00  0.00    +0.000 A 
ATOM      4  C   UNL     1       1.828   3.296  18.537  0.00  0.00    +0.000 A 
ATOM      5  C   UNL     1       1.701   4.539  19.158  0.00  0.00    +0.000 A 
ATOM      6  C   UNL     1       2.511   5.615  18.769  0.00  0.00    +0.000 A 
ATOM      7  C   UNL     1       3.445   5.416  17.736  0.00  0.00    +0.000 A 
BRANCH   2   9
ATOM      8  C   UNL     1       5.665   4.806  15.875  0.00  0.00    +0.000 C 
ATOM      9  C   UNL     1       4.581   4.027  16.022  0.00  0.00    +0.000 C 
BRANCH   8  11
ATOM     10  O   UNL     1       7.625   5.236  14.569  0.00  0.00    +0.000 OA
ATOM     11  C   UNL     1       6.582   4.612  14.725  0.00  0.00    +0.000 C 
ATOM     12  N   UNL     1       6.147   3.654  13.848  0.00  0.00    +0.000 N 
ATOM     13  H   UNL     1       5.300   3.103  13.939  0.00  0.00    +0.000 HD
BRANCH  12  14
ATOM     14  O   UNL     1       6.967   3.383  12.731  0.00  0.00    +0.000 OA
ATOM     15  H   UNL     1       6.595   2.537  12.398  0.00  0.00    +0.000 HD
ENDBRANCH  12  14
ENDBRANCH   8  11
ENDBRANCH   2   9
ENDBRANCH   1   6
BRANCH   1  16
ATOM     16  S   UNL     1       2.386   8.336  18.203  0.00  0.00    +0.000 S 
BRANCH  16  17
ATOM     17  C   UNL     1       1.126   9.394  18.875  0.00  0.00    +0.000 A 
ATOM     18  N   UNL     1       1.349   9.881  20.102  0.00  0.00    +0.000 NA
ATOM     19  C   UNL     1       0.378  10.659  20.583  0.00  0.00    +0.000 A 
ATOM     20  C   UNL     1      -0.783  10.979  19.939  0.00  0.00    +0.000 A 
ATOM     21  C   UNL     1      -0.927  10.436  18.681  0.00  0.00    +0.000 A 
ATOM     22  N   UNL     1       0.026   9.637  18.146  0.00  0.00    +0.000 NA
BRANCH  21  23
ATOM     23  C   UNL     1      -2.116  10.664  17.835  0.00  0.00    +0.000 A 
ATOM     24  C   UNL     1      -3.204  11.446  18.264  0.00  0.00    +0.000 A 
ATOM     25  C   UNL     1      -4.321  11.648  17.446  0.00  0.00    +0.000 A 
ATOM     26  C   UNL     1      -4.373  11.075  16.179  0.00  0.00    +0.000 A 
ATOM     27  C   UNL     1      -3.308  10.302  15.727  0.00  0.00    +0.000 A 
ATOM     28  C   UNL     1      -2.193  10.103  16.546  0.00  0.00    +0.000 A 
ENDBRANCH  21  23
BRANCH  19  29
ATOM     29  O   UNL     1       0.613  11.139  21.832  0.00  0.00    +0.000 OA
ATOM     30  H   UNL     1       1.382  10.600  22.091  0.00  0.00    +0.000 HD
ENDBRANCH  19  29
ENDBRANCH  16  17
ENDBRANCH   1  16
TORSDOF 8
ENDMDL
MODEL 4
REMARK VINA RESULT:      -8.4      5.020      7.175
REMARK  Name = 
REMARK  8 active torsions:
REMARK  status: ('A' for Active; 'I' for Inactive)
REMARK    1  A    between atoms: C_2  and  C_3
REMARK    2  A    between atoms: C_4  and  C_5
REMARK    3  A    between atoms: C_9  and  C_10
REMARK    4  A    between atoms: C_10  and  S_11
REMARK    5  A    between atoms: S_11  and  C_12
REMARK    6  A    between atoms: C_14  and  O_15
REMARK    7  A    between atoms: C_17  and  C_18
REMARK    8  A    between atoms: N_26  and  O_27
REMARK                            x       y       z     vdW  Elec       q    Type
REMARK                         _______ _______ _______ _____ _____    ______ ____
ROOT
ATOM      1  C   UNL     1       2.314   7.783  19.159  0.00  0.00    +0.000 C 
ENDROOT
BRANCH   1   6
ATOM      2  C   UNL     1       4.257   5.230  17.048  0.00  0.00    +0.000 A 
ATOM      3  C   UNL     1       3.627   4.041  17.441  0.00  0.00    +0.000 A 
ATOM      4  C   UNL     1       2.607   4.055  18.394  0.00  0.00    +0.000 A 
ATOM      5  C   UNL     1       2.189   5.260  18.956  0.00  0.00    +0.000 A 
ATOM      6  C   UNL     1       2.792   6.469  18.579  0.00  0.00    +0.000 A 
ATOM      7  C   UNL     1       3.818   6.438  17.616  0.00  0.00    +0.000 A 
BRANCH   2   9
ATOM      8  C   UNL     1       5.432   4.409  15.007  0.00  0.00    +0.000 C 
ATOM      9  C   UNL     1       5.328   5.266  16.035  0.00  0.00    +0.000 C 
BRANCH   8  11
ATOM     10  O   UNL     1       6.710   3.774  13.083  0.00  0.00    +0.000 OA
ATOM     11  C   UNL     1       6.572   4.501  14.060  0.00  0.00    +0.000 C 
ATOM     12  N   UNL     1       7.459   5.493  14.385  0.00  0.00    +0.000 N 
ATOM     13  H   UNL     1       7.382   6.127  15.172  0.00  0.00    +0.000 HD
BRANCH  12  14
ATOM     14  O   UNL     1       8.566   5.672  13.527  0.00  0.00    +0.000 OA
ATOM     15  H   UNL     1       9.324   5.615  14.149  0.00  0.00    +0.000 HD
ENDBRANCH  12  14
ENDBRANCH   8  11
ENDBRANCH   2   9
ENDBRANCH   1   6
BRANCH   1  16
ATOM     16  S   UNL     1       1.796   8.969  17.877  0.00  0.00    +0.000 S 
BRANCH  16  17
ATOM     17  C   UNL     1       0.631   9.944  18.799  0.00  0.00    +0.000 A 
ATOM     18  N   UNL     1       1.008  10.321  20.027  0.00  0.00    +0.000 NA
ATOM     19  C   UNL     1       0.105  11.037  20.698  0.00  0.00    +0.000 A 
ATOM     20  C   UNL     1      -1.131  11.397  20.239  0.00  0.00    +0.000 A 
ATOM     21  C   UNL     1      -1.433  10.970  18.966  0.00  0.00    +0.000 A 
ATOM     22  N   UNL     1      -0.555  10.236  18.242  0.00  0.00    +0.000 NA
BRANCH  21  23
ATOM     23  C   UNL     1      -2.722  11.256  18.303  0.00  0.00    +0.000 A 
ATOM     24  C   UNL     1      -3.800  11.850  18.984  0.00  0.00    +0.000 A 
ATOM     25  C   UNL     1      -5.013  12.112  18.337  0.00  0.00    +0.000 A 
ATOM     26  C   UNL     1      -5.172  11.788  16.993  0.00  0.00    +0.000 A 
ATOM     27  C   UNL     1      -4.120  11.206  16.294  0.00  0.00    +0.000 A 
ATOM     28  C   UNL     1      -2.910  10.946  16.943  0.00  0.00    +0.000 A 
ENDBRANCH  21  23
BRANCH  19  29
ATOM     29  O   UNL     1       0.498  11.406  21.945  0.00  0.00    +0.000 OA
ATOM     30  H   UNL     1       0.051  10.727  22.483  0.00  0.00    +0.000 HD
ENDBRANCH  19  29
ENDBRANCH  16  17
ENDBRANCH   1  16
TORSDOF 8
ENDMDL
MODEL 5
REMARK VINA RESULT:      -8.4      1.067      1.067
REMARK  Name = 
REMARK  8 active torsions:
REMARK  status: ('A' for Active; 'I' for Inactive)
REMARK    1  A    between atoms: C_2  and  C_3
REMARK    2  A    between atoms: C_4  and  C_5
REMARK    3  A    between atoms: C_9  and  C_10
REMARK    4  A    between atoms: C_10  and  S_11
REMARK    5  A    between atoms: S_11  and  C_12
REMARK    6  A    between atoms: C_14  and  O_15
REMARK    7  A    between atoms: C_17  and  C_18
REMARK    8  A    between atoms: N_26  and  O_27
REMARK                            x       y       z     vdW  Elec       q    Type
REMARK                         _______ _______ _______ _____ _____    ______ ____
ROOT
ATOM      1  C   UNL     1       6.871   4.540  15.836  0.00  0.00    +0.000 C 
ENDROOT
BRANCH   1   6
ATOM      2  C   UNL     1       7.899   7.603  17.913  0.00  0.00    +0.000 A 
ATOM      3  C   UNL     1       8.213   6.991  19.134  0.00  0.00    +0.000 A 
ATOM      4  C   UNL     1       8.070   5.612  19.298  0.00  0.00    +0.000 A 
ATOM      5  C   UNL     1       7.628   4.822  18.238  0.00  0.00    +0.000 A 
ATOM      6  C   UNL     1       7.314   5.401  17.001  0.00  0.00    +0.000 A 
ATOM      7  C   UNL     1       7.464   6.792  16.850  0.00  0.00    +0.000 A 
BRANCH   2   9
ATOM      8  C   UNL     1       8.843   9.858  18.411  0.00  0.00    +0.000 C 
ATOM      9  C   UNL     1       8.048   9.054  17.687  0.00  0.00    +0.000 C 
BRANCH   8  11
ATOM     10  O   UNL     1       9.772  12.061  18.554  0.00  0.00    +0.000 OA
ATOM     11  C   UNL     1       8.895  11.315  18.134  0.00  0.00    +0.000 C 
ATOM     12  N   UNL     1       7.859  11.748  17.349  0.00  0.00    +0.000 N 
ATOM     13  H   UNL     1       7.119  11.170  16.967  0.00  0.00    +0.000 HD
BRANCH  12  14
ATOM     14  O   UNL     1       7.837  13.119  17.012  0.00  0.00    +0.000 OA
ATOM     15  H   UNL     1       6.913  13.372  17.228  0.00  0.00    +0.000 HD
ENDBRANCH  12  14
ENDBRANCH   8  11
ENDBRANCH   2   9
ENDBRANCH   1   6
BRANCH   1  16
ATOM     16  S   UNL     1       5.140   4.844  15.356  0.00  0.00    +0.000 S 
BRANCH  16  17
ATOM     17  C   UNL     1       4.366   4.859  16.955  0.00  0.00    +0.000 A 
ATOM     18  N   UNL     1       4.473   3.739  17.680  0.00  0.00    +0.000 NA
ATOM     19  C   UNL     1       3.868   3.778  18.868  0.00  0.00    +0.000 A 
ATOM     20  C   UNL     1       3.172   4.837  19.376  0.00  0.00    +0.000 A 
ATOM     21  C   UNL     1       3.115   5.948  18.564  0.00  0.00    +0.000 A 
ATOM     22  N   UNL     1       3.708   5.961  17.347  0.00  0.00    +0.000 NA
BRANCH  21  23
ATOM     23  C   UNL     1       2.403   7.186  18.939  0.00  0.00    +0.000 A 
ATOM     24  C   UNL     1       1.931   7.414  20.245  0.00  0.00    +0.000 A 
ATOM     25  C   UNL     1       1.258   8.595  20.578  0.00  0.00    +0.000 A 
ATOM     26  C   UNL     1       1.046   9.576  19.613  0.00  0.00    +0.000 A 
ATOM     27  C   UNL     1       1.509   9.379  18.317  0.00  0.00    +0.000 A 
ATOM     28  C   UNL     1       2.181   8.199  17.987  0.00  0.00    +0.000 A 
ENDBRANCH  21  23
BRANCH  19  29
ATOM     29  O   UNL     1       3.978   2.632  19.590  0.00  0.00    +0.000 OA
ATOM     30  H   UNL     1       4.502   2.945  20.348  0.00  0.00    +0.000 HD
ENDBRANCH  19  29
ENDBRANCH  16  17
ENDBRANCH   1  16
TORSDOF 8
ENDMDL
MODEL 6
REMARK VINA RESULT:      -8.3      4.794      6.872
REMARK  Name = 
REMARK  8 active torsions:
REMARK  status: ('A' for Active; 'I' for Inactive)
REMARK    1  A    between atoms: C_2  and  C_3
REMARK    2  A    between atoms: C_4  and  C_5
REMARK    3  A    between atoms: C_9  and  C_10
REMARK    4  A    between atoms: C_10  and  S_11
REMARK    5  A    between atoms: S_11  and  C_12
REMARK    6  A    between atoms: C_14  and  O_15
REMARK    7  A    between atoms: C_17  and  C_18
REMARK    8  A    between atoms: N_26  and  O_27
REMARK                            x       y       z     vdW  Elec       q    Type
REMARK                         _______ _______ _______ _____ _____    ______ ____
ROOT
ATOM      1  C   UNL     1       2.272   7.144  19.412  0.00  0.00    +0.000 C 
ENDROOT
BRANCH   1   6
ATOM      2  C   UNL     1       4.784   5.007  17.442  0.00  0.00    +0.000 A 
ATOM      3  C   UNL     1       4.708   3.802  18.153  0.00  0.00    +0.000 A 
ATOM      4  C   UNL     1       3.879   3.684  19.270  0.00  0.00    +0.000 A 
ATOM      5  C   UNL     1       3.101   4.764  19.683  0.00  0.00    +0.000 A 
ATOM      6  C   UNL     1       3.147   5.982  18.989  0.00  0.00    +0.000 A 
ATOM      7  C   UNL     1       3.986   6.085  17.864  0.00  0.00    +0.000 A 
BRANCH   2   9
ATOM      8  C   UNL     1       5.714   4.290  15.241  0.00  0.00    +0.000 C 
ATOM      9  C   UNL     1       5.634   5.175  16.248  0.00  0.00    +0.000 C 
BRANCH   8  11
ATOM     10  O   UNL     1       6.538   3.960  13.017  0.00  0.00    +0.000 OA
ATOM     11  C   UNL     1       6.630   4.529  14.099  0.00  0.00    +0.000 C 
ATOM     12  N   UNL     1       7.596   5.462  14.372  0.00  0.00    +0.000 N 
ATOM     13  H   UNL     1       7.706   5.967  15.243  0.00  0.00    +0.000 HD
BRANCH  12  14
ATOM     14  O   UNL     1       8.502   5.772  13.335  0.00  0.00    +0.000 OA
ATOM     15  H   UNL     1       8.852   4.888  13.091  0.00  0.00    +0.000 HD
ENDBRANCH  12  14
ENDBRANCH   8  11
ENDBRANCH   2   9
ENDBRANCH   1   6
BRANCH   1  16
ATOM     16  S   UNL     1       2.340   8.536  18.239  0.00  0.00    +0.000 S 
BRANCH  16  17
ATOM     17  C   UNL     1       1.052   9.569  18.899  0.00  0.00    +0.000 A 
ATOM     18  N   UNL     1       1.256  10.065  20.126  0.00  0.00    +0.000 NA
ATOM     19  C   UNL     1       0.264  10.822  20.597  0.00  0.00    +0.000 A 
ATOM     20  C   UNL     1      -0.900  11.114  19.944  0.00  0.00    +0.000 A 
ATOM     21  C   UNL     1      -1.022  10.564  18.687  0.00  0.00    +0.000 A 
ATOM     22  N   UNL     1      -0.048   9.784  18.161  0.00  0.00    +0.000 NA
BRANCH  21  23
ATOM     23  C   UNL     1      -2.210  10.762  17.832  0.00  0.00    +0.000 A 
ATOM     24  C   UNL     1      -2.298  10.224  16.534  0.00  0.00    +0.000 A 
ATOM     25  C   UNL     1      -3.433  10.425  15.741  0.00  0.00    +0.000 A 
ATOM     26  C   UNL     1      -4.506  11.164  16.229  0.00  0.00    +0.000 A 
ATOM     27  C   UNL     1      -4.448  11.701  17.510  0.00  0.00    +0.000 A 
ATOM     28  C   UNL     1      -3.314  11.498  18.301  0.00  0.00    +0.000 A 
ENDBRANCH  21  23
BRANCH  19  29
ATOM     29  O   UNL     1       0.480  11.312  21.846  0.00  0.00    +0.000 OA
ATOM     30  H   UNL     1       1.429  11.527  21.794  0.00  0.00    +0.000 HD
ENDBRANCH  19  29
ENDBRANCH  16  17
ENDBRANCH   1  16
TORSDOF 8
ENDMDL
MODEL 7
REMARK VINA RESULT:      -8.3      0.689      1.217
REMARK  Name = 
REMARK  8 active torsions:
REMARK  status: ('A' for Active; 'I' for Inactive)
REMARK    1  A    between atoms: C_2  and  C_3
REMARK    2  A    between atoms: C_4  and  C_5
REMARK    3  A    between atoms: C_9  and  C_10
REMARK    4  A    between atoms: C_10  and  S_11
REMARK    5  A    between atoms: S_11  and  C_12
REMARK    6  A    between atoms: C_14  and  O_15
REMARK    7  A    between atoms: C_17  and  C_18
REMARK    8  A    between atoms: N_26  and  O_27
REMARK                            x       y       z     vdW  Elec       q    Type
REMARK                         _______ _______ _______ _____ _____    ______ ____
ROOT
ATOM      1  C   UNL     1       5.693   5.641  15.899  0.00  0.00    +0.000 C 
ENDROOT
BRANCH   1   6
ATOM      2  C   UNL     1       7.903   7.962  18.015  0.00  0.00    +0.000 A 
ATOM      3  C   UNL     1       8.369   7.061  18.982  0.00  0.00    +0.000 A 
ATOM      4  C   UNL     1       7.958   5.727  18.970  0.00  0.00    +0.000 A 
ATOM      5  C   UNL     1       7.086   5.270  17.982  0.00  0.00    +0.000 A 
ATOM      6  C   UNL     1       6.607   6.144  16.996  0.00  0.00    +0.000 A 
ATOM      7  C   UNL     1       7.033   7.485  17.020  0.00  0.00    +0.000 A 
BRANCH   2   9
ATOM      8  C   UNL     1       9.101   9.963  18.900  0.00  0.00    +0.000 C 
ATOM      9  C   UNL     1       8.321   9.376  17.978  0.00  0.00    +0.000 C 
BRANCH   8  11
ATOM     10  O   UNL     1       9.784  11.955  17.759  0.00  0.00    +0.000 OA
ATOM     11  C   UNL     1       9.435  11.406  18.798  0.00  0.00    +0.000 C 
ATOM     12  N   UNL     1       9.306  12.072  19.988  0.00  0.00    +0.000 N 
ATOM     13  H   UNL     1       9.009  11.666  20.868  0.00  0.00    +0.000 HD
BRANCH  12  14
ATOM     14  O   UNL     1       9.581  13.456  19.984  0.00  0.00    +0.000 OA
ATOM     15  H   UNL     1       9.743  13.634  19.032  0.00  0.00    +0.000 HD
ENDBRANCH  12  14
ENDBRANCH   8  11
ENDBRANCH   2   9
ENDBRANCH   1   6
BRANCH   1  16
ATOM     16  S   UNL     1       5.275   3.878  16.086  0.00  0.00    +0.000 S 
BRANCH  16  17
ATOM     17  C   UNL     1       3.875   3.998  17.174  0.00  0.00    +0.000 A 
ATOM     18  N   UNL     1       3.243   2.853  17.461  0.00  0.00    +0.000 NA
ATOM     19  C   UNL     1       2.188   2.979  18.267  0.00  0.00    +0.000 A 
ATOM     20  C   UNL     1       1.724   4.149  18.798  0.00  0.00    +0.000 A 
ATOM     21  C   UNL     1       2.436   5.276  18.452  0.00  0.00    +0.000 A 
ATOM     22  N   UNL     1       3.512   5.205  17.634  0.00  0.00    +0.000 NA
BRANCH  21  23
ATOM     23  C   UNL     1       2.083   6.630  18.923  0.00  0.00    +0.000 A 
ATOM     24  C   UNL     1       2.064   7.743  18.061  0.00  0.00    +0.000 A 
ATOM     25  C   UNL     1       1.726   9.018  18.529  0.00  0.00    +0.000 A 
ATOM     26  C   UNL     1       1.397   9.208  19.867  0.00  0.00    +0.000 A 
ATOM     27  C   UNL     1       1.401   8.124  20.739  0.00  0.00    +0.000 A 
ATOM     28  C   UNL     1       1.737   6.852  20.270  0.00  0.00    +0.000 A 
ENDBRANCH  21  23
BRANCH  19  29
ATOM     29  O   UNL     1       1.552   1.811  18.543  0.00  0.00    +0.000 OA
ATOM     30  H   UNL     1       0.713   2.145  18.911  0.00  0.00    +0.000 HD
ENDBRANCH  19  29
ENDBRANCH  16  17
ENDBRANCH   1  16
TORSDOF 8
ENDMDL
MODEL 8
REMARK VINA RESULT:      -8.3      4.789      7.470
REMARK  Name = 
REMARK  8 active torsions:
REMARK  status: ('A' for Active; 'I' for Inactive)
REMARK    1  A    between atoms: C_2  and  C_3
REMARK    2  A    between atoms: C_4  and  C_5
REMARK    3  A    between atoms: C_9  and  C_10
REMARK    4  A    between atoms: C_10  and  S_11
REMARK    5  A    between atoms: S_11  and  C_12
REMARK    6  A    between atoms: C_14  and  O_15
REMARK    7  A    between atoms: C_17  and  C_18
REMARK    8  A    between atoms: N_26  and  O_27
REMARK                            x       y       z     vdW  Elec       q    Type
REMARK                         _______ _______ _______ _____ _____    ______ ____
ROOT
ATOM      1  C   UNL     1       1.851   7.916  19.740  0.00  0.00    +0.000 C 
ENDROOT
BRANCH   1   6
ATOM      2  C   UNL     1       3.627   4.678  18.682  0.00  0.00    +0.000 A 
ATOM      3  C   UNL     1       3.121   3.786  19.637  0.00  0.00    +0.000 A 
ATOM      4  C   UNL     1       2.240   4.223  20.627  0.00  0.00    +0.000 A 
ATOM      5  C   UNL     1       1.837   5.558  20.667  0.00  0.00    +0.000 A 
ATOM      6  C   UNL     1       2.318   6.475  19.722  0.00  0.00    +0.000 A 
ATOM      7  C   UNL     1       3.204   6.018  18.730  0.00  0.00    +0.000 A 
BRANCH   2   9
ATOM      8  C   UNL     1       5.682   4.900  17.287  0.00  0.00    +0.000 C 
ATOM      9  C   UNL     1       4.548   4.259  17.609  0.00  0.00    +0.000 C 
BRANCH   8  11
ATOM     10  O   UNL     1       7.750   4.409  16.182  0.00  0.00    +0.000 OA
ATOM     11  C   UNL     1       6.525   4.424  16.162  0.00  0.00    +0.000 C 
ATOM     12  N   UNL     1       5.791   3.990  15.089  0.00  0.00    +0.000 N 
ATOM     13  H   UNL     1       4.779   3.970  15.028  0.00  0.00    +0.000 HD
BRANCH  12  14
ATOM     14  O   UNL     1       6.506   3.496  13.977  0.00  0.00    +0.000 OA
ATOM     15  H   UNL     1       6.655   4.308  13.446  0.00  0.00    +0.000 HD
ENDBRANCH  12  14
ENDBRANCH   8  11
ENDBRANCH   2   9
ENDBRANCH   1   6
BRANCH   1  16
ATOM     16  S   UNL     1       1.262   8.443  21.381  0.00  0.00    +0.000 S 
BRANCH  16  17
ATOM     17  C   UNL     1       0.366   9.913  20.939  0.00  0.00    +0.000 A 
ATOM     18  N   UNL     1       0.565  10.988  21.711  0.00  0.00    +0.000 NA
ATOM     19  C   UNL     1      -0.133  12.069  21.362  0.00  0.00    +0.000 A 
ATOM     20  C   UNL     1      -1.005  12.153  20.314  0.00  0.00    +0.000 A 
ATOM     21  C   UNL     1      -1.146  11.001  19.572  0.00  0.00    +0.000 A 
ATOM     22  N   UNL     1      -0.464   9.874  19.885  0.00  0.00    +0.000 NA
BRANCH  21  23
ATOM     23  C   UNL     1      -2.047  10.897  18.406  0.00  0.00    +0.000 A 
ATOM     24  C   UNL     1      -1.733  10.108  17.284  0.00  0.00    +0.000 A 
ATOM     25  C   UNL     1      -2.601  10.025  16.189  0.00  0.00    +0.000 A 
ATOM     26  C   UNL     1      -3.804  10.724  16.195  0.00  0.00    +0.000 A 
ATOM     27  C   UNL     1      -4.142  11.505  17.295  0.00  0.00    +0.000 A 
ATOM     28  C   UNL     1      -3.274  11.587  18.387  0.00  0.00    +0.000 A 
ENDBRANCH  21  23
BRANCH  19  29
ATOM     29  O   UNL     1       0.072  13.150  22.159  0.00  0.00    +0.000 OA
ATOM     30  H   UNL     1      -0.420  12.882  22.956  0.00  0.00    +0.000 HD
ENDBRANCH  19  29
ENDBRANCH  16  17
ENDBRANCH   1  16
TORSDOF 8
ENDMDL
MODEL 9
REMARK VINA RESULT:      -8.2      4.164      7.372
REMARK  Name = 
REMARK  8 active torsions:
REMARK  status: ('A' for Active; 'I' for Inactive)
REMARK    1  A    between atoms: C_2  and  C_3
REMARK    2  A    between atoms: C_4  and  C_5
REMARK    3  A    between atoms: C_9  and  C_10
REMARK    4  A    between atoms: C_10  and  S_11
REMARK    5  A    between atoms: S_11  and  C_12
REMARK    6  A    between atoms: C_14  and  O_15
REMARK    7  A    between atoms: C_17  and  C_18
REMARK    8  A    between atoms: N_26  and  O_27
REMARK                            x       y       z     vdW  Elec       q    Type
REMARK                         _______ _______ _______ _____ _____    ______ ____
ROOT
ATOM      1  C   UNL     1       3.145   5.113  19.817  0.00  0.00    +0.000 C 
ENDROOT
BRANCH   1   6
ATOM      2  C   UNL     1       1.518   8.592  19.863  0.00  0.00    +0.000 A 
ATOM      3  C   UNL     1       1.783   9.016  18.553  0.00  0.00    +0.000 A 
ATOM      4  C   UNL     1       2.499   8.205  17.672  0.00  0.00    +0.000 A 
ATOM      5  C   UNL     1       2.948   6.950  18.082  0.00  0.00    +0.000 A 
ATOM      6  C   UNL     1       2.693   6.492  19.382  0.00  0.00    +0.000 A 
ATOM      7  C   UNL     1       1.968   7.321  20.258  0.00  0.00    +0.000 A 
BRANCH   2   9
ATOM      8  C   UNL     1       0.611  10.741  20.747  0.00  0.00    +0.000 C 
ATOM      9  C   UNL     1       0.752   9.408  20.824  0.00  0.00    +0.000 C 
BRANCH   8  11
ATOM     10  O   UNL     1       0.042  12.660  22.063  0.00  0.00    +0.000 OA
ATOM     11  C   UNL     1      -0.146  11.481  21.788  0.00  0.00    +0.000 C 
ATOM     12  N   UNL     1      -1.092  10.710  22.411  0.00  0.00    +0.000 N 
ATOM     13  H   UNL     1      -1.295   9.737  22.210  0.00  0.00    +0.000 HD
BRANCH  12  14
ATOM     14  O   UNL     1      -1.880  11.335  23.402  0.00  0.00    +0.000 OA
ATOM     15  H   UNL     1      -1.440  11.048  24.231  0.00  0.00    +0.000 HD
ENDBRANCH  12  14
ENDBRANCH   8  11
ENDBRANCH   2   9
ENDBRANCH   1   6
BRANCH   1  16
ATOM     16  S   UNL     1       3.235   3.934  18.431  0.00  0.00    +0.000 S 
BRANCH  16  17
ATOM     17  C   UNL     1       4.890   4.242  17.861  0.00  0.00    +0.000 A 
ATOM     18  N   UNL     1       5.802   4.522  18.800  0.00  0.00    +0.000 NA
ATOM     19  C   UNL     1       7.030   4.763  18.339  0.00  0.00    +0.000 A 
ATOM     20  C   UNL     1       7.407   4.748  17.026  0.00  0.00    +0.000 A 
ATOM     21  C   UNL     1       6.406   4.447  16.129  0.00  0.00    +0.000 A 
ATOM     22  N   UNL     1       5.141   4.198  16.543  0.00  0.00    +0.000 NA
BRANCH  21  23
ATOM     23  C   UNL     1       6.621   4.389  14.669  0.00  0.00    +0.000 A 
ATOM     24  C   UNL     1       5.859   3.553  13.832  0.00  0.00    +0.000 A 
ATOM     25  C   UNL     1       6.080   3.513  12.450  0.00  0.00    +0.000 A 
ATOM     26  C   UNL     1       7.065   4.311  11.876  0.00  0.00    +0.000 A 
ATOM     27  C   UNL     1       7.828   5.151  12.680  0.00  0.00    +0.000 A 
ATOM     28  C   UNL     1       7.605   5.190  14.059  0.00  0.00    +0.000 A 
ENDBRANCH  21  23
BRANCH  19  29
ATOM     29  O   UNL     1       7.942   5.054  19.302  0.00  0.00    +0.000 OA
ATOM     30  H   UNL     1       8.755   5.117  18.768  0.00  0.00    +0.000 HD
ENDBRANCH  19  29
ENDBRANCH  16  17
ENDBRANCH   1  16
TORSDOF 8
ENDMDL
