MODEL 1
REMARK VINA RESULT:      -7.6      0.000      0.000
REMARK  Name = 
REMARK  5 active torsions:
REMARK  status: ('A' for Active; 'I' for Inactive)
REMARK    1  A    between atoms: N_1  and  C_2
REMARK    2  A    between atoms: C_2  and  C_3
REMARK    3  A    between atoms: C_3  and  C_4
REMARK    4  A    between atoms: C_7  and  C_8
REMARK    5  A    between atoms: C_12  and  C_13
REMARK                            x       y       z     vdW  Elec       q    Type
REMARK                         _______ _______ _______ _____ _____    ______ ____
ROOT
ATOM      1  C   UNL     1       2.059   3.867  19.056  0.00  0.00    +0.000 A 
ATOM      2  C   UNL     1       2.381   5.118  18.516  0.00  0.00    +0.000 A 
ATOM      3  C   UNL     1       3.388   5.241  17.563  0.00  0.00    +0.000 A 
ATOM      4  C   UNL     1       4.098   4.115  17.102  0.00  0.00    +0.000 A 
ATOM      5  C   UNL     1       3.759   2.852  17.635  0.00  0.00    +0.000 A 
ATOM      6  C   UNL     1       2.759   2.733  18.609  0.00  0.00    +0.000 A 
ENDROOT
BRANCH   4   7
ATOM      7  C   UNL     1       5.181   4.278  16.080  0.00  0.00    +0.000 A 
ATOM      8  C   UNL     1       6.386   4.928  16.422  0.00  0.00    +0.000 A 
ATOM      9  C   UNL     1       7.401   5.094  15.483  0.00  0.00    +0.000 A 
ATOM     10  C   UNL     1       7.233   4.639  14.178  0.00  0.00    +0.000 A 
ATOM     11  C   UNL     1       6.045   3.995  13.801  0.00  0.00    +0.000 A 
ATOM     12  C   UNL     1       5.030   3.803  14.759  0.00  0.00    +0.000 A 
BRANCH  11  13
ATOM     13  C   UNL     1       5.829   3.523  12.384  0.00  0.00    +0.000 C 
ATOM     14  F   UNL     1       4.542   3.792  11.946  0.00  0.00    +0.000 F 
ATOM     15  F   UNL     1       6.723   4.155  11.542  0.00  0.00    +0.000 F 
ATOM     16  F   UNL     1       6.034   2.157  12.321  0.00  0.00    +0.000 F 
ENDBRANCH  11  13
ENDBRANCH   4   7
BRANCH   1  17
ATOM     17  C   UNL     1       0.993   3.763  20.118  0.00  0.00    +0.000 C 
BRANCH  17  18
ATOM     18  C   UNL     1       1.280   2.628  21.110  0.00  0.00    +0.000 C 
BRANCH  18  19
ATOM     19  N   UNL     1       2.141   3.109  22.186  0.00  0.00    +0.000 NA
ATOM     20  H   UNL     1       1.582   3.752  22.793  0.00  0.00    +0.000 HD
ATOM     21  H   UNL     1       2.921   3.669  21.771  0.00  0.00    +0.000 HD
ENDBRANCH  18  19
ENDBRANCH  17  18
ENDBRANCH   1  17
TORSDOF 5
ENDMDL
MODEL 2
REMARK VINA RESULT:      -7.6      0.572      1.063
REMARK  Name = 
REMARK  5 active torsions:
REMARK  status: ('A' for Active; 'I' for Inactive)
REMARK    1  A    between atoms: N_1  and  C_2
REMARK    2  A    between atoms: C_2  and  C_3
REMARK    3  A    between atoms: C_3  and  C_4
REMARK    4  A    between atoms: C_7  and  C_8
REMARK    5  A    between atoms: C_12  and  C_13
REMARK                            x       y       z     vdW  Elec       q    Type
REMARK                         _______ _______ _______ _____ _____    ______ ____
ROOT
ATOM      1  C   UNL     1       2.092   4.164  19.241  0.00  0.00    +0.000 A 
ATOM      2  C   UNL     1       3.180   5.032  19.401  0.00  0.00    +0.000 A 
ATOM      3  C   UNL     1       4.164   5.125  18.421  0.00  0.00    +0.000 A 
ATOM      4  C   UNL     1       4.086   4.367  17.236  0.00  0.00    +0.000 A 
ATOM      5  C   UNL     1       2.979   3.506  17.069  0.00  0.00    +0.000 A 
ATOM      6  C   UNL     1       2.001   3.400  18.066  0.00  0.00    +0.000 A 
ENDROOT
BRANCH   4   7
ATOM      7  C   UNL     1       5.162   4.483  16.201  0.00  0.00    +0.000 A 
ATOM      8  C   UNL     1       6.362   5.165  16.497  0.00  0.00    +0.000 A 
ATOM      9  C   UNL     1       7.370   5.288  15.545  0.00  0.00    +0.000 A 
ATOM     10  C   UNL     1       7.201   4.756  14.270  0.00  0.00    +0.000 A 
ATOM     11  C   UNL     1       6.018   4.078  13.937  0.00  0.00    +0.000 A 
ATOM     12  C   UNL     1       5.010   3.930  14.910  0.00  0.00    +0.000 A 
BRANCH  11  13
ATOM     13  C   UNL     1       5.800   3.524  12.550  0.00  0.00    +0.000 C 
ATOM     14  F   UNL     1       6.016   2.156  12.506  0.00  0.00    +0.000 F 
ATOM     15  F   UNL     1       4.505   3.780  12.144  0.00  0.00    +0.000 F 
ATOM     16  F   UNL     1       6.679   4.133  11.673  0.00  0.00    +0.000 F 
ENDBRANCH  11  13
ENDBRANCH   4   7
BRANCH   1  17
ATOM     17  C   UNL     1       1.060   4.049  20.335  0.00  0.00    +0.000 C 
BRANCH  17  18
ATOM     18  C   UNL     1       1.268   2.791  21.189  0.00  0.00    +0.000 C 
BRANCH  18  19
ATOM     19  N   UNL     1       2.291   3.035  22.201  0.00  0.00    +0.000 NA
ATOM     20  H   UNL     1       1.906   2.758  23.133  0.00  0.00    +0.000 HD
ATOM     21  H   UNL     1       2.492   4.061  22.239  0.00  0.00    +0.000 HD
ENDBRANCH  18  19
ENDBRANCH  17  18
ENDBRANCH   1  17
TORSDOF 5
ENDMDL
MODEL 3
REMARK VINA RESULT:      -7.3      3.789      4.954
REMARK  Name = 
REMARK  5 active torsions:
REMARK  status: ('A' for Active; 'I' for Inactive)
REMARK    1  A    between atoms: N_1  and  C_2
REMARK    2  A    between atoms: C_2  and  C_3
REMARK    3  A    between atoms: C_3  and  C_4
REMARK    4  A    between atoms: C_7  and  C_8
REMARK    5  A    between atoms: C_12  and  C_13
REMARK                            x       y       z     vdW  Elec       q    Type
REMARK                         _______ _______ _______ _____ _____    ______ ____
ROOT
ATOM      1  C   UNL     1       1.103   8.849  20.209  0.00  0.00    +0.000 A 
ATOM      2  C   UNL     1       1.462   7.630  20.798  0.00  0.00    +0.000 A 
ATOM      3  C   UNL     1       2.195   6.685  20.085  0.00  0.00    +0.000 A 
ATOM      4  C   UNL     1       2.610   6.932  18.762  0.00  0.00    +0.000 A 
ATOM      5  C   UNL     1       2.263   8.170  18.176  0.00  0.00    +0.000 A 
ATOM      6  C   UNL     1       1.509   9.110  18.889  0.00  0.00    +0.000 A 
ENDROOT
BRANCH   4   7
ATOM      7  C   UNL     1       3.393   5.895  18.016  0.00  0.00    +0.000 A 
ATOM      8  C   UNL     1       2.813   4.642  17.726  0.00  0.00    +0.000 A 
ATOM      9  C   UNL     1       3.527   3.664  17.039  0.00  0.00    +0.000 A 
ATOM     10  C   UNL     1       4.841   3.900  16.644  0.00  0.00    +0.000 A 
ATOM     11  C   UNL     1       5.452   5.132  16.922  0.00  0.00    +0.000 A 
ATOM     12  C   UNL     1       4.719   6.131  17.593  0.00  0.00    +0.000 A 
BRANCH  11  13
ATOM     13  C   UNL     1       6.886   5.397  16.533  0.00  0.00    +0.000 C 
ATOM     14  F   UNL     1       7.327   6.621  17.008  0.00  0.00    +0.000 F 
ATOM     15  F   UNL     1       7.699   4.405  17.046  0.00  0.00    +0.000 F 
ATOM     16  F   UNL     1       6.991   5.401  15.153  0.00  0.00    +0.000 F 
ENDBRANCH  11  13
ENDBRANCH   4   7
BRANCH   1  17
ATOM     17  C   UNL     1       0.274   9.840  20.987  0.00  0.00    +0.000 C 
BRANCH  17  18
ATOM     18  C   UNL     1      -0.342   9.210  22.244  0.00  0.00    +0.000 C 
BRANCH  18  19
ATOM     19  N   UNL     1       0.200   9.846  23.440  0.00  0.00    +0.000 NA
ATOM     20  H   UNL     1       0.312   9.116  24.180  0.00  0.00    +0.000 HD
ATOM     21  H   UNL     1      -0.491  10.547  23.794  0.00  0.00    +0.000 HD
ENDBRANCH  18  19
ENDBRANCH  17  18
ENDBRANCH   1  17
TORSDOF 5
ENDMDL
MODEL 4
REMARK VINA RESULT:      -7.3      0.398      1.178
REMARK  Name = 
REMARK  5 active torsions:
REMARK  status: ('A' for Active; 'I' for Inactive)
REMARK    1  A    between atoms: N_1  and  C_2
REMARK    2  A    between atoms: C_2  and  C_3
REMARK    3  A    between atoms: C_3  and  C_4
REMARK    4  A    between atoms: C_7  and  C_8
REMARK    5  A    between atoms: C_12  and  C_13
REMARK                            x       y       z     vdW  Elec       q    Type
REMARK                         _______ _______ _______ _____ _____    ______ ____
ROOT
ATOM      1  C   UNL     1       2.146   3.702  19.021  0.00  0.00    +0.000 A 
ATOM      2  C   UNL     1       2.887   2.623  18.523  0.00  0.00    +0.000 A 
ATOM      3  C   UNL     1       3.864   2.821  17.551  0.00  0.00    +0.000 A 
ATOM      4  C   UNL     1       4.148   4.109  17.054  0.00  0.00    +0.000 A 
ATOM      5  C   UNL     1       3.412   5.198  17.571  0.00  0.00    +0.000 A 
ATOM      6  C   UNL     1       2.416   4.993  18.535  0.00  0.00    +0.000 A 
ENDROOT
BRANCH   4   7
ATOM      7  C   UNL     1       5.200   4.292  16.004  0.00  0.00    +0.000 A 
ATOM      8  C   UNL     1       6.388   4.993  16.305  0.00  0.00    +0.000 A 
ATOM      9  C   UNL     1       7.374   5.178  15.340  0.00  0.00    +0.000 A 
ATOM     10  C   UNL     1       7.193   4.693  14.048  0.00  0.00    +0.000 A 
ATOM     11  C   UNL     1       6.021   3.998  13.711  0.00  0.00    +0.000 A 
ATOM     12  C   UNL     1       5.036   3.787  14.696  0.00  0.00    +0.000 A 
BRANCH  11  13
ATOM     13  C   UNL     1       5.790   3.492  12.308  0.00  0.00    +0.000 C 
ATOM     14  F   UNL     1       4.521   3.812  11.852  0.00  0.00    +0.000 F 
ATOM     15  F   UNL     1       6.720   4.050  11.453  0.00  0.00    +0.000 F 
ATOM     16  F   UNL     1       5.926   2.116  12.291  0.00  0.00    +0.000 F 
ENDBRANCH  11  13
ENDBRANCH   4   7
BRANCH   1  17
ATOM     17  C   UNL     1       1.065   3.458  20.043  0.00  0.00    +0.000 C 
BRANCH  17  18
ATOM     18  C   UNL     1       1.610   3.505  21.477  0.00  0.00    +0.000 C 
BRANCH  18  19
ATOM     19  N   UNL     1       1.087   2.383  22.249  0.00  0.00    +0.000 NA
ATOM     20  H   UNL     1       1.317   1.497  21.743  0.00  0.00    +0.000 HD
ATOM     21  H   UNL     1       0.045   2.457  22.292  0.00  0.00    +0.000 HD
ENDBRANCH  18  19
ENDBRANCH  17  18
ENDBRANCH   1  17
TORSDOF 5
ENDMDL
MODEL 5
REMARK VINA RESULT:      -7.3      4.749      7.352
REMARK  Name = 
REMARK  5 active torsions:
REMARK  status: ('A' for Active; 'I' for Inactive)
REMARK    1  A    between atoms: N_1  and  C_2
REMARK    2  A    between atoms: C_2  and  C_3
REMARK    3  A    between atoms: C_3  and  C_4
REMARK    4  A    between atoms: C_7  and  C_8
REMARK    5  A    between atoms: C_12  and  C_13
REMARK                            x       y       z     vdW  Elec       q    Type
REMARK                         _______ _______ _______ _____ _____    ______ ____
ROOT
ATOM      1  C   UNL     1       6.086   4.694  14.860  0.00  0.00    +0.000 A 
ATOM      2  C   UNL     1       5.702   3.559  15.584  0.00  0.00    +0.000 A 
ATOM      3  C   UNL     1       4.881   3.675  16.703  0.00  0.00    +0.000 A 
ATOM      4  C   UNL     1       4.400   4.929  17.127  0.00  0.00    +0.000 A 
ATOM      5  C   UNL     1       4.775   6.071  16.385  0.00  0.00    +0.000 A 
ATOM      6  C   UNL     1       5.617   5.953  15.271  0.00  0.00    +0.000 A 
ENDROOT
BRANCH   4   7
ATOM      7  C   UNL     1       3.523   5.026  18.338  0.00  0.00    +0.000 A 
ATOM      8  C   UNL     1       3.116   6.288  18.820  0.00  0.00    +0.000 A 
ATOM      9  C   UNL     1       2.307   6.397  19.948  0.00  0.00    +0.000 A 
ATOM     10  C   UNL     1       1.902   5.256  20.635  0.00  0.00    +0.000 A 
ATOM     11  C   UNL     1       2.294   3.985  20.188  0.00  0.00    +0.000 A 
ATOM     12  C   UNL     1       3.090   3.875  19.031  0.00  0.00    +0.000 A 
BRANCH  11  13
ATOM     13  C   UNL     1       1.894   2.737  20.938  0.00  0.00    +0.000 C 
ATOM     14  F   UNL     1       0.736   2.931  21.673  0.00  0.00    +0.000 F 
ATOM     15  F   UNL     1       1.683   1.705  20.045  0.00  0.00    +0.000 F 
ATOM     16  F   UNL     1       2.909   2.384  21.809  0.00  0.00    +0.000 F 
ENDBRANCH  11  13
ENDBRANCH   4   7
BRANCH   1  17
ATOM     17  C   UNL     1       7.010   4.548  13.677  0.00  0.00    +0.000 C 
BRANCH  17  18
ATOM     18  C   UNL     1       6.270   4.043  12.431  0.00  0.00    +0.000 C 
BRANCH  18  19
ATOM     19  N   UNL     1       6.450   2.602  12.291  0.00  0.00    +0.000 NA
ATOM     20  H   UNL     1       5.507   2.157  12.209  0.00  0.00    +0.000 HD
ATOM     21  H   UNL     1       6.896   2.230  13.161  0.00  0.00    +0.000 HD
ENDBRANCH  18  19
ENDBRANCH  17  18
ENDBRANCH   1  17
TORSDOF 5
ENDMDL
MODEL 6
REMARK VINA RESULT:      -7.2      3.894      5.024
REMARK  Name = 
REMARK  5 active torsions:
REMARK  status: ('A' for Active; 'I' for Inactive)
REMARK    1  A    between atoms: N_1  and  C_2
REMARK    2  A    between atoms: C_2  and  C_3
REMARK    3  A    between atoms: C_3  and  C_4
REMARK    4  A    between atoms: C_7  and  C_8
REMARK    5  A    between atoms: C_12  and  C_13
REMARK                            x       y       z     vdW  Elec       q    Type
REMARK                         _______ _______ _______ _____ _____    ______ ____
ROOT
ATOM      1  C   UNL     1       1.211   9.075  19.817  0.00  0.00    +0.000 A 
ATOM      2  C   UNL     1       1.577   7.924  20.525  0.00  0.00    +0.000 A 
ATOM      3  C   UNL     1       2.298   6.908  19.903  0.00  0.00    +0.000 A 
ATOM      4  C   UNL     1       2.694   7.014  18.556  0.00  0.00    +0.000 A 
ATOM      5  C   UNL     1       2.340   8.185  17.849  0.00  0.00    +0.000 A 
ATOM      6  C   UNL     1       1.597   9.197  18.472  0.00  0.00    +0.000 A 
ENDROOT
BRANCH   4   7
ATOM      7  C   UNL     1       3.463   5.903  17.910  0.00  0.00    +0.000 A 
ATOM      8  C   UNL     1       2.837   4.665  17.649  0.00  0.00    +0.000 A 
ATOM      9  C   UNL     1       3.539   3.619  17.056  0.00  0.00    +0.000 A 
ATOM     10  C   UNL     1       4.883   3.770  16.729  0.00  0.00    +0.000 A 
ATOM     11  C   UNL     1       5.541   4.985  16.982  0.00  0.00    +0.000 A 
ATOM     12  C   UNL     1       4.822   6.052  17.557  0.00  0.00    +0.000 A 
BRANCH  11  13
ATOM     13  C   UNL     1       7.006   5.159  16.667  0.00  0.00    +0.000 C 
ATOM     14  F   UNL     1       7.316   4.691  15.400  0.00  0.00    +0.000 F 
ATOM     15  F   UNL     1       7.343   6.496  16.739  0.00  0.00    +0.000 F 
ATOM     16  F   UNL     1       7.758   4.452  17.588  0.00  0.00    +0.000 F 
ENDBRANCH  11  13
ENDBRANCH   4   7
BRANCH   1  17
ATOM     17  C   UNL     1       0.395  10.144  20.500  0.00  0.00    +0.000 C 
BRANCH  17  18
ATOM     18  C   UNL     1      -0.297   9.618  21.764  0.00  0.00    +0.000 C 
BRANCH  18  19
ATOM     19  N   UNL     1       0.067  10.439  22.914  0.00  0.00    +0.000 NA
ATOM     20  H   UNL     1       0.904  10.011  23.373  0.00  0.00    +0.000 HD
ATOM     21  H   UNL     1      -0.716  10.416  23.607  0.00  0.00    +0.000 HD
ENDBRANCH  18  19
ENDBRANCH  17  18
ENDBRANCH   1  17
TORSDOF 5
ENDMDL
MODEL 7
REMARK VINA RESULT:      -7.2      3.944      5.014
REMARK  Name = 
REMARK  5 active torsions:
REMARK  status: ('A' for Active; 'I' for Inactive)
REMARK    1  A    between atoms: N_1  and  C_2
REMARK    2  A    between atoms: C_2  and  C_3
REMARK    3  A    between atoms: C_3  and  C_4
REMARK    4  A    between atoms: C_7  and  C_8
REMARK    5  A    between atoms: C_12  and  C_13
REMARK                            x       y       z     vdW  Elec       q    Type
REMARK                         _______ _______ _______ _____ _____    ______ ____
ROOT
ATOM      1  C   UNL     1       1.188   9.216  19.769  0.00  0.00    +0.000 A 
ATOM      2  C   UNL     1       1.555   9.282  18.419  0.00  0.00    +0.000 A 
ATOM      3  C   UNL     1       2.265   8.242  17.825  0.00  0.00    +0.000 A 
ATOM      4  C   UNL     1       2.618   7.090  18.555  0.00  0.00    +0.000 A 
ATOM      5  C   UNL     1       2.231   7.017  19.911  0.00  0.00    +0.000 A 
ATOM      6  C   UNL     1       1.534   8.074  20.512  0.00  0.00    +0.000 A 
ENDROOT
BRANCH   4   7
ATOM      7  C   UNL     1       3.386   5.988  17.891  0.00  0.00    +0.000 A 
ATOM      8  C   UNL     1       2.804   4.712  17.734  0.00  0.00    +0.000 A 
ATOM      9  C   UNL     1       3.506   3.675  17.126  0.00  0.00    +0.000 A 
ATOM     10  C   UNL     1       4.810   3.875  16.681  0.00  0.00    +0.000 A 
ATOM     11  C   UNL     1       5.424   5.129  16.828  0.00  0.00    +0.000 A 
ATOM     12  C   UNL     1       4.702   6.185  17.419  0.00  0.00    +0.000 A 
BRANCH  11  13
ATOM     13  C   UNL     1       6.848   5.357  16.384  0.00  0.00    +0.000 C 
ATOM     14  F   UNL     1       6.969   5.298  15.005  0.00  0.00    +0.000 F 
ATOM     15  F   UNL     1       7.276   6.599  16.811  0.00  0.00    +0.000 F 
ATOM     16  F   UNL     1       7.660   4.383  16.936  0.00  0.00    +0.000 F 
ENDBRANCH  11  13
ENDBRANCH   4   7
BRANCH   1  17
ATOM     17  C   UNL     1       0.456  10.373  20.402  0.00  0.00    +0.000 C 
BRANCH  17  18
ATOM     18  C   UNL     1      -0.317   9.944  21.656  0.00  0.00    +0.000 C 
BRANCH  18  19
ATOM     19  N   UNL     1      -0.109  10.911  22.729  0.00  0.00    +0.000 NA
ATOM     20  H   UNL     1       0.920  11.042  22.860  0.00  0.00    +0.000 HD
ATOM     21  H   UNL     1      -0.490  10.516  23.619  0.00  0.00    +0.000 HD
ENDBRANCH  18  19
ENDBRANCH  17  18
ENDBRANCH   1  17
TORSDOF 5
ENDMDL
MODEL 8
REMARK VINA RESULT:      -7.2      4.827      7.319
REMARK  Name = 
REMARK  5 active torsions:
REMARK  status: ('A' for Active; 'I' for Inactive)
REMARK    1  A    between atoms: N_1  and  C_2
REMARK    2  A    between atoms: C_2  and  C_3
REMARK    3  A    between atoms: C_3  and  C_4
REMARK    4  A    between atoms: C_7  and  C_8
REMARK    5  A    between atoms: C_12  and  C_13
REMARK                            x       y       z     vdW  Elec       q    Type
REMARK                         _______ _______ _______ _____ _____    ______ ____
ROOT
ATOM      1  C   UNL     1       6.035   4.577  14.737  0.00  0.00    +0.000 A 
ATOM      2  C   UNL     1       5.595   5.833  15.171  0.00  0.00    +0.000 A 
ATOM      3  C   UNL     1       4.801   5.954  16.308  0.00  0.00    +0.000 A 
ATOM      4  C   UNL     1       4.433   4.823  17.064  0.00  0.00    +0.000 A 
ATOM      5  C   UNL     1       4.894   3.558  16.635  0.00  0.00    +0.000 A 
ATOM      6  C   UNL     1       5.676   3.438  15.479  0.00  0.00    +0.000 A 
ENDROOT
BRANCH   4   7
ATOM      7  C   UNL     1       3.573   4.981  18.280  0.00  0.00    +0.000 A 
ATOM      8  C   UNL     1       3.202   6.268  18.724  0.00  0.00    +0.000 A 
ATOM      9  C   UNL     1       2.408   6.434  19.856  0.00  0.00    +0.000 A 
ATOM     10  C   UNL     1       1.985   5.327  20.586  0.00  0.00    +0.000 A 
ATOM     11  C   UNL     1       2.342   4.032  20.178  0.00  0.00    +0.000 A 
ATOM     12  C   UNL     1       3.122   3.864  19.017  0.00  0.00    +0.000 A 
BRANCH  11  13
ATOM     13  C   UNL     1       1.922   2.820  20.974  0.00  0.00    +0.000 C 
ATOM     14  F   UNL     1       1.746   1.712  20.163  0.00  0.00    +0.000 F 
ATOM     15  F   UNL     1       2.885   2.527  21.919  0.00  0.00    +0.000 F 
ATOM     16  F   UNL     1       0.725   3.087  21.614  0.00  0.00    +0.000 F 
ENDBRANCH  11  13
ENDBRANCH   4   7
BRANCH   1  17
ATOM     17  C   UNL     1       6.860   4.467  13.479  0.00  0.00    +0.000 C 
BRANCH  17  18
ATOM     18  C   UNL     1       6.141   3.656  12.392  0.00  0.00    +0.000 C 
BRANCH  18  19
ATOM     19  N   UNL     1       6.993   2.561  11.938  0.00  0.00    +0.000 NA
ATOM     20  H   UNL     1       7.773   2.443  12.625  0.00  0.00    +0.000 HD
ATOM     21  H   UNL     1       7.421   2.824  11.021  0.00  0.00    +0.000 HD
ENDBRANCH  18  19
ENDBRANCH  17  18
ENDBRANCH   1  17
TORSDOF 5
ENDMDL
MODEL 9
REMARK VINA RESULT:      -7.1      0.735      1.325
REMARK  Name = 
REMARK  5 active torsions:
REMARK  status: ('A' for Active; 'I' for Inactive)
REMARK    1  A    between atoms: N_1  and  C_2
REMARK    2  A    between atoms: C_2  and  C_3
REMARK    3  A    between atoms: C_3  and  C_4
REMARK    4  A    between atoms: C_7  and  C_8
REMARK    5  A    between atoms: C_12  and  C_13
REMARK                            x       y       z     vdW  Elec       q    Type
REMARK                         _______ _______ _______ _____ _____    ______ ____
ROOT
ATOM      1  C   UNL     1       2.332   3.702  19.128  0.00  0.00    +0.000 A 
ATOM      2  C   UNL     1       2.109   3.247  17.823  0.00  0.00    +0.000 A 
ATOM      3  C   UNL     1       3.064   3.444  16.829  0.00  0.00    +0.000 A 
ATOM      4  C   UNL     1       4.285   4.088  17.109  0.00  0.00    +0.000 A 
ATOM      5  C   UNL     1       4.516   4.530  18.431  0.00  0.00    +0.000 A 
ATOM      6  C   UNL     1       3.544   4.348  19.424  0.00  0.00    +0.000 A 
ENDROOT
BRANCH   4   7
ATOM      7  C   UNL     1       5.292   4.292  16.019  0.00  0.00    +0.000 A 
ATOM      8  C   UNL     1       6.467   5.034  16.269  0.00  0.00    +0.000 A 
ATOM      9  C   UNL     1       7.411   5.239  15.266  0.00  0.00    +0.000 A 
ATOM     10  C   UNL     1       7.199   4.732  13.988  0.00  0.00    +0.000 A 
ATOM     11  C   UNL     1       6.039   3.996  13.701  0.00  0.00    +0.000 A 
ATOM     12  C   UNL     1       5.098   3.766  14.724  0.00  0.00    +0.000 A 
BRANCH  11  13
ATOM     13  C   UNL     1       5.774   3.466  12.313  0.00  0.00    +0.000 C 
ATOM     14  F   UNL     1       6.580   4.081  11.369  0.00  0.00    +0.000 F 
ATOM     15  F   UNL     1       6.013   2.107  12.280  0.00  0.00    +0.000 F 
ATOM     16  F   UNL     1       4.453   3.703  11.979  0.00  0.00    +0.000 F 
ENDBRANCH  11  13
ENDBRANCH   4   7
BRANCH   1  17
ATOM     17  C   UNL     1       1.266   3.514  20.178  0.00  0.00    +0.000 C 
BRANCH  17  18
ATOM     18  C   UNL     1       1.822   3.689  21.597  0.00  0.00    +0.000 C 
BRANCH  18  19
ATOM     19  N   UNL     1       2.438   2.447  22.051  0.00  0.00    +0.000 NA
ATOM     20  H   UNL     1       2.015   1.654  21.517  0.00  0.00    +0.000 HD
ATOM     21  H   UNL     1       2.206   2.303  23.061  0.00  0.00    +0.000 HD
ENDBRANCH  18  19
ENDBRANCH  17  18
ENDBRANCH   1  17
TORSDOF 5
ENDMDL
