MODEL 1
REMARK VINA RESULT:      -8.8      0.000      0.000
REMARK  Name = 
REMARK  3 active torsions:
REMARK  status: ('A' for Active; 'I' for Inactive)
REMARK    1  A    between atoms: C_1  and  C_2
REMARK    2  A    between atoms: C_5  and  N_6
REMARK    3  A    between atoms: N_13  and  C_14
REMARK                            x       y       z     vdW  Elec       q    Type
REMARK                         _______ _______ _______ _____ _____    ______ ____
ROOT
ATOM      1  N   UNL     1       2.573   7.316  18.232  0.00  0.00    +0.000 N 
ATOM      2  C   UNL     1       2.664   5.921  18.175  0.00  0.00    +0.000 A 
ATOM      3  N   UNL     1       1.730   5.150  18.703  0.00  0.00    +0.000 NA
ATOM      4  C   UNL     1       2.021   3.865  18.721  0.00  0.00    +0.000 A 
ATOM      5 CL   UNL     1       0.870   2.858  19.479  0.00  0.00    +0.000 Cl
ATOM      6  N   UNL     1       3.115   3.278  18.266  0.00  0.00    +0.000 NA
ATOM      7  C   UNL     1       3.954   4.123  17.703  0.00  0.00    +0.000 A 
ATOM      8  N   UNL     1       5.137   3.576  17.202  0.00  0.00    +0.000 N 
ATOM      9  N   UNL     1       3.768   5.439  17.628  0.00  0.00    +0.000 NA
ATOM     10  H   UNL     1       3.447   7.704  17.905  0.00  0.00    +0.000 HD
ATOM     11  H   UNL     1       5.129   2.573  17.350  0.00  0.00    +0.000 HD
ENDROOT
BRANCH   8  12
ATOM     12  C   UNL     1       5.842   3.981  16.058  0.00  0.00    +0.000 A 
ATOM     13  C   UNL     1       6.945   4.847  16.122  0.00  0.00    +0.000 A 
ATOM     14  C   UNL     1       7.607   5.251  14.962  0.00  0.00    +0.000 A 
ATOM     15  C   UNL     1       7.172   4.785  13.731  0.00  0.00    +0.000 A 
ATOM     16  F   UNL     1       7.814   5.194  12.626  0.00  0.00    +0.000 F 
ATOM     17  C   UNL     1       6.088   3.917  13.645  0.00  0.00    +0.000 A 
ATOM     18 CL   UNL     1       5.551   3.330  12.118  0.00  0.00    +0.000 Cl
ATOM     19  C   UNL     1       5.423   3.516  14.805  0.00  0.00    +0.000 A 
ENDBRANCH   8  12
BRANCH   1  24
ATOM     20  C   UNL     1      -0.138  10.570  22.099  0.00  0.00    +0.000 C 
ATOM     21  C   UNL     1       0.563   9.732  21.075  0.00  0.00    +0.000 A 
ATOM     22  C   UNL     1       0.653  10.120  19.737  0.00  0.00    +0.000 A 
ATOM     23  C   UNL     1       1.305   9.304  18.802  0.00  0.00    +0.000 A 
ATOM     24  C   UNL     1       1.901   8.093  19.190  0.00  0.00    +0.000 A 
ATOM     25  C   UNL     1       1.759   7.704  20.527  0.00  0.00    +0.000 A 
ATOM     26  C   UNL     1       1.121   8.515  21.463  0.00  0.00    +0.000 A 
ENDBRANCH   1  24
TORSDOF 2
ENDMDL
MODEL 2
REMARK VINA RESULT:      -8.6      0.991      1.426
REMARK  Name = 
REMARK  3 active torsions:
REMARK  status: ('A' for Active; 'I' for Inactive)
REMARK    1  A    between atoms: C_1  and  C_2
REMARK    2  A    between atoms: C_5  and  N_6
REMARK    3  A    between atoms: N_13  and  C_14
REMARK                            x       y       z     vdW  Elec       q    Type
REMARK                         _______ _______ _______ _____ _____    ______ ____
ROOT
ATOM      1  N   UNL     1       2.320   7.539  18.991  0.00  0.00    +0.000 N 
ATOM      2  C   UNL     1       2.553   6.165  19.119  0.00  0.00    +0.000 A 
ATOM      3  N   UNL     1       1.720   5.386  19.785  0.00  0.00    +0.000 NA
ATOM      4  C   UNL     1       2.143   4.151  19.963  0.00  0.00    +0.000 A 
ATOM      5 CL   UNL     1       1.125   3.150  20.900  0.00  0.00    +0.000 Cl
ATOM      6  N   UNL     1       3.278   3.617  19.544  0.00  0.00    +0.000 NA
ATOM      7  C   UNL     1       4.008   4.454  18.836  0.00  0.00    +0.000 A 
ATOM      8  N   UNL     1       5.225   3.962  18.362  0.00  0.00    +0.000 N 
ATOM      9  N   UNL     1       3.684   5.723  18.593  0.00  0.00    +0.000 NA
ATOM     10  H   UNL     1       3.140   7.961  18.577  0.00  0.00    +0.000 HD
ATOM     11  H   UNL     1       5.325   2.994  18.643  0.00  0.00    +0.000 HD
ENDROOT
BRANCH   8  12
ATOM     12  C   UNL     1       5.850   4.273  17.144  0.00  0.00    +0.000 A 
ATOM     13  C   UNL     1       7.062   4.977  17.078  0.00  0.00    +0.000 A 
ATOM     14  C   UNL     1       7.642   5.293  15.849  0.00  0.00    +0.000 A 
ATOM     15  C   UNL     1       7.014   4.899  14.678  0.00  0.00    +0.000 A 
ATOM     16  F   UNL     1       7.581   5.222  13.505  0.00  0.00    +0.000 F 
ATOM     17  C   UNL     1       5.818   4.189  14.719  0.00  0.00    +0.000 A 
ATOM     18 CL   UNL     1       5.041   3.691  13.265  0.00  0.00    +0.000 Cl
ATOM     19  C   UNL     1       5.235   3.877  15.948  0.00  0.00    +0.000 A 
ENDBRANCH   8  12
BRANCH   1  24
ATOM     20  C   UNL     1      -0.644  10.857  22.609  0.00  0.00    +0.000 C 
ATOM     21  C   UNL     1       0.138   9.982  21.680  0.00  0.00    +0.000 A 
ATOM     22  C   UNL     1       0.870   8.884  22.138  0.00  0.00    +0.000 A 
ATOM     23  C   UNL     1       1.602   8.093  21.241  0.00  0.00    +0.000 A 
ATOM     24  C   UNL     1       1.600   8.371  19.865  0.00  0.00    +0.000 A 
ATOM     25  C   UNL     1       0.896   9.502  19.436  0.00  0.00    +0.000 A 
ATOM     26  C   UNL     1       0.158  10.285  20.320  0.00  0.00    +0.000 A 
ENDBRANCH   1  24
TORSDOF 2
ENDMDL
MODEL 3
REMARK VINA RESULT:      -8.5      0.572      1.134
REMARK  Name = 
REMARK  3 active torsions:
REMARK  status: ('A' for Active; 'I' for Inactive)
REMARK    1  A    between atoms: C_1  and  C_2
REMARK    2  A    between atoms: C_5  and  N_6
REMARK    3  A    between atoms: N_13  and  C_14
REMARK                            x       y       z     vdW  Elec       q    Type
REMARK                         _______ _______ _______ _____ _____    ______ ____
ROOT
ATOM      1  N   UNL     1       2.721   7.195  17.801  0.00  0.00    +0.000 N 
ATOM      2  C   UNL     1       2.989   5.824  17.882  0.00  0.00    +0.000 A 
ATOM      3  N   UNL     1       2.226   5.015  18.594  0.00  0.00    +0.000 NA
ATOM      4  C   UNL     1       2.685   3.786  18.713  0.00  0.00    +0.000 A 
ATOM      5 CL   UNL     1       1.762   2.746  19.704  0.00  0.00    +0.000 Cl
ATOM      6  N   UNL     1       3.795   3.285  18.197  0.00  0.00    +0.000 NA
ATOM      7  C   UNL     1       4.452   4.150  17.453  0.00  0.00    +0.000 A 
ATOM      8  N   UNL     1       5.638   3.694  16.877  0.00  0.00    +0.000 N 
ATOM      9  N   UNL     1       4.085   5.417  17.262  0.00  0.00    +0.000 NA
ATOM     10  H   UNL     1       3.498   7.643  17.334  0.00  0.00    +0.000 HD
ATOM     11  H   UNL     1       5.778   2.722  17.129  0.00  0.00    +0.000 HD
ENDROOT
BRANCH   8  12
ATOM     12  C   UNL     1       6.162   4.041  15.621  0.00  0.00    +0.000 A 
ATOM     13  C   UNL     1       7.229   4.940  15.474  0.00  0.00    +0.000 A 
ATOM     14  C   UNL     1       7.708   5.284  14.209  0.00  0.00    +0.000 A 
ATOM     15  C   UNL     1       7.123   4.724  13.084  0.00  0.00    +0.000 A 
ATOM     16  F   UNL     1       7.588   5.075  11.876  0.00  0.00    +0.000 F 
ATOM     17  C   UNL     1       6.071   3.821  13.207  0.00  0.00    +0.000 A 
ATOM     18 CL   UNL     1       5.349   3.118  11.811  0.00  0.00    +0.000 Cl
ATOM     19  C   UNL     1       5.590   3.480  14.472  0.00  0.00    +0.000 A 
ENDBRANCH   8  12
BRANCH   1  24
ATOM     20  C   UNL     1      -0.038  10.379  21.692  0.00  0.00    +0.000 C 
ATOM     21  C   UNL     1       0.689   9.536  20.690  0.00  0.00    +0.000 A 
ATOM     22  C   UNL     1       1.268   8.313  21.035  0.00  0.00    +0.000 A 
ATOM     23  C   UNL     1       1.953   7.556  20.074  0.00  0.00    +0.000 A 
ATOM     24  C   UNL     1       2.054   7.995  18.744  0.00  0.00    +0.000 A 
ATOM     25  C   UNL     1       1.504   9.244  18.434  0.00  0.00    +0.000 A 
ATOM     26  C   UNL     1       0.813   9.996  19.381  0.00  0.00    +0.000 A 
ENDBRANCH   1  24
TORSDOF 2
ENDMDL
MODEL 4
REMARK VINA RESULT:      -8.5      1.247      1.389
REMARK  Name = 
REMARK  3 active torsions:
REMARK  status: ('A' for Active; 'I' for Inactive)
REMARK    1  A    between atoms: C_1  and  C_2
REMARK    2  A    between atoms: C_5  and  N_6
REMARK    3  A    between atoms: N_13  and  C_14
REMARK                            x       y       z     vdW  Elec       q    Type
REMARK                         _______ _______ _______ _____ _____    ______ ____
ROOT
ATOM      1  N   UNL     1       2.230   7.609  19.306  0.00  0.00    +0.000 N 
ATOM      2  C   UNL     1       2.494   6.242  19.453  0.00  0.00    +0.000 A 
ATOM      3  N   UNL     1       1.677   5.454  20.129  0.00  0.00    +0.000 NA
ATOM      4  C   UNL     1       2.127   4.232  20.325  0.00  0.00    +0.000 A 
ATOM      5 CL   UNL     1       1.130   3.221  21.273  0.00  0.00    +0.000 Cl
ATOM      6  N   UNL     1       3.275   3.718  19.916  0.00  0.00    +0.000 NA
ATOM      7  C   UNL     1       3.988   4.561  19.199  0.00  0.00    +0.000 A 
ATOM      8  N   UNL     1       5.218   4.091  18.735  0.00  0.00    +0.000 N 
ATOM      9  N   UNL     1       3.636   5.819  18.937  0.00  0.00    +0.000 NA
ATOM     10  H   UNL     1       3.041   8.044  18.888  0.00  0.00    +0.000 HD
ATOM     11  H   UNL     1       5.339   3.129  19.030  0.00  0.00    +0.000 HD
ENDROOT
BRANCH   8  12
ATOM     12  C   UNL     1       5.839   4.399  17.514  0.00  0.00    +0.000 A 
ATOM     13  C   UNL     1       7.028   5.140  17.441  0.00  0.00    +0.000 A 
ATOM     14  C   UNL     1       7.605   5.451  16.209  0.00  0.00    +0.000 A 
ATOM     15  C   UNL     1       6.997   5.016  15.042  0.00  0.00    +0.000 A 
ATOM     16  F   UNL     1       7.560   5.334  13.867  0.00  0.00    +0.000 F 
ATOM     17  C   UNL     1       5.824   4.269  15.091  0.00  0.00    +0.000 A 
ATOM     18 CL   UNL     1       5.071   3.719  13.644  0.00  0.00    +0.000 Cl
ATOM     19  C   UNL     1       5.244   3.961  16.324  0.00  0.00    +0.000 A 
ENDBRANCH   8  12
BRANCH   1  24
ATOM     20  C   UNL     1      -0.779  11.064  22.755  0.00  0.00    +0.000 C 
ATOM     21  C   UNL     1      -0.003  10.169  21.839  0.00  0.00    +0.000 A 
ATOM     22  C   UNL     1      -0.049  10.312  20.451  0.00  0.00    +0.000 A 
ATOM     23  C   UNL     1       0.681   9.448  19.622  0.00  0.00    +0.000 A 
ATOM     24  C   UNL     1       1.489   8.436  20.165  0.00  0.00    +0.000 A 
ATOM     25  C   UNL     1       1.484   8.284  21.556  0.00  0.00    +0.000 A 
ATOM     26  C   UNL     1       0.770   9.146  22.386  0.00  0.00    +0.000 A 
ENDBRANCH   1  24
TORSDOF 2
ENDMDL
MODEL 5
REMARK VINA RESULT:      -8.2      3.765      6.016
REMARK  Name = 
REMARK  3 active torsions:
REMARK  status: ('A' for Active; 'I' for Inactive)
REMARK    1  A    between atoms: C_1  and  C_2
REMARK    2  A    between atoms: C_5  and  N_6
REMARK    3  A    between atoms: N_13  and  C_14
REMARK                            x       y       z     vdW  Elec       q    Type
REMARK                         _______ _______ _______ _____ _____    ______ ____
ROOT
ATOM      1  N   UNL     1       1.070  10.884  18.664  0.00  0.00    +0.000 N 
ATOM      2  C   UNL     1       0.836  10.047  19.762  0.00  0.00    +0.000 A 
ATOM      3  N   UNL     1       0.108  10.448  20.788  0.00  0.00    +0.000 NA
ATOM      4  C   UNL     1       0.105   9.625  21.817  0.00  0.00    +0.000 A 
ATOM      5 CL   UNL     1      -0.755  10.163  23.191  0.00  0.00    +0.000 Cl
ATOM      6  N   UNL     1       0.727   8.463  21.924  0.00  0.00    +0.000 NA
ATOM      7  C   UNL     1       1.372   8.123  20.827  0.00  0.00    +0.000 A 
ATOM      8  N   UNL     1       2.057   6.908  20.865  0.00  0.00    +0.000 N 
ATOM      9  N   UNL     1       1.446   8.874  19.729  0.00  0.00    +0.000 NA
ATOM     10  H   UNL     1       1.759  10.442  18.071  0.00  0.00    +0.000 HD
ATOM     11  H   UNL     1       1.911   6.472  21.769  0.00  0.00    +0.000 HD
ENDROOT
BRANCH   8  12
ATOM     12  C   UNL     1       2.232   5.997  19.811  0.00  0.00    +0.000 A 
ATOM     13  C   UNL     1       3.106   6.244  18.742  0.00  0.00    +0.000 A 
ATOM     14  C   UNL     1       3.236   5.330  17.696  0.00  0.00    +0.000 A 
ATOM     15  C   UNL     1       2.494   4.159  17.718  0.00  0.00    +0.000 A 
ATOM     16  F   UNL     1       2.623   3.297  16.698  0.00  0.00    +0.000 F 
ATOM     17  C   UNL     1       1.629   3.888  18.774  0.00  0.00    +0.000 A 
ATOM     18 CL   UNL     1       0.713   2.431  18.809  0.00  0.00    +0.000 Cl
ATOM     19  C   UNL     1       1.497   4.805  19.818  0.00  0.00    +0.000 A 
ENDBRANCH   8  12
BRANCH   1  24
ATOM     20  C   UNL     1       1.197  16.617  18.640  0.00  0.00    +0.000 C 
ATOM     21  C   UNL     1       1.183  15.120  18.642  0.00  0.00    +0.000 A 
ATOM     22  C   UNL     1       2.361  14.369  18.617  0.00  0.00    +0.000 A 
ATOM     23  C   UNL     1       2.310  12.968  18.608  0.00  0.00    +0.000 A 
ATOM     24  C   UNL     1       1.082  12.288  18.644  0.00  0.00    +0.000 A 
ATOM     25  C   UNL     1      -0.084  13.062  18.624  0.00  0.00    +0.000 A 
ATOM     26  C   UNL     1      -0.041  14.454  18.644  0.00  0.00    +0.000 A 
ENDBRANCH   1  24
TORSDOF 2
ENDMDL
MODEL 6
REMARK VINA RESULT:      -8.0      3.847      5.833
REMARK  Name = 
REMARK  3 active torsions:
REMARK  status: ('A' for Active; 'I' for Inactive)
REMARK    1  A    between atoms: C_1  and  C_2
REMARK    2  A    between atoms: C_5  and  N_6
REMARK    3  A    between atoms: N_13  and  C_14
REMARK                            x       y       z     vdW  Elec       q    Type
REMARK                         _______ _______ _______ _____ _____    ______ ____
ROOT
ATOM      1  N   UNL     1       1.064  10.848  18.632  0.00  0.00    +0.000 N 
ATOM      2  C   UNL     1       0.858  10.008  19.732  0.00  0.00    +0.000 A 
ATOM      3  N   UNL     1       0.152  10.402  20.776  0.00  0.00    +0.000 NA
ATOM      4  C   UNL     1       0.175   9.576  21.801  0.00  0.00    +0.000 A 
ATOM      5 CL   UNL     1      -0.656  10.106  23.195  0.00  0.00    +0.000 Cl
ATOM      6  N   UNL     1       0.802   8.416  21.890  0.00  0.00    +0.000 NA
ATOM      7  C   UNL     1       1.424   8.082  20.778  0.00  0.00    +0.000 A 
ATOM      8  N   UNL     1       2.114   6.869  20.797  0.00  0.00    +0.000 N 
ATOM      9  N   UNL     1       1.471   8.836  19.681  0.00  0.00    +0.000 NA
ATOM     10  H   UNL     1       1.741  10.411  18.022  0.00  0.00    +0.000 HD
ATOM     11  H   UNL     1       1.990   6.429  21.702  0.00  0.00    +0.000 HD
ENDROOT
BRANCH   8  12
ATOM     12  C   UNL     1       2.268   5.963  19.736  0.00  0.00    +0.000 A 
ATOM     13  C   UNL     1       1.466   4.820  19.601  0.00  0.00    +0.000 A 
ATOM     14  C   UNL     1       1.663   3.925  18.548  0.00  0.00    +0.000 A 
ATOM     15  C   UNL     1       2.663   4.174  17.621  0.00  0.00    +0.000 A 
ATOM     16  F   UNL     1       2.846   3.297  16.622  0.00  0.00    +0.000 F 
ATOM     17  C   UNL     1       3.463   5.307  17.729  0.00  0.00    +0.000 A 
ATOM     18 CL   UNL     1       4.699   5.623  16.573  0.00  0.00    +0.000 Cl
ATOM     19  C   UNL     1       3.268   6.200  18.784  0.00  0.00    +0.000 A 
ENDBRANCH   8  12
BRANCH   1  24
ATOM     20  C   UNL     1       1.171  16.582  18.624  0.00  0.00    +0.000 C 
ATOM     21  C   UNL     1       1.162  15.085  18.622  0.00  0.00    +0.000 A 
ATOM     22  C   UNL     1       2.341  14.338  18.567  0.00  0.00    +0.000 A 
ATOM     23  C   UNL     1       2.295  12.937  18.554  0.00  0.00    +0.000 A 
ATOM     24  C   UNL     1       1.071  12.253  18.617  0.00  0.00    +0.000 A 
ATOM     25  C   UNL     1      -0.098  13.023  18.626  0.00  0.00    +0.000 A 
ATOM     26  C   UNL     1      -0.059  14.415  18.650  0.00  0.00    +0.000 A 
ENDBRANCH   1  24
TORSDOF 2
ENDMDL
MODEL 7
REMARK VINA RESULT:      -7.7      1.351      1.681
REMARK  Name = 
REMARK  3 active torsions:
REMARK  status: ('A' for Active; 'I' for Inactive)
REMARK    1  A    between atoms: C_1  and  C_2
REMARK    2  A    between atoms: C_5  and  N_6
REMARK    3  A    between atoms: N_13  and  C_14
REMARK                            x       y       z     vdW  Elec       q    Type
REMARK                         _______ _______ _______ _____ _____    ______ ____
ROOT
ATOM      1  N   UNL     1       2.725   7.104  17.762  0.00  0.00    +0.000 N 
ATOM      2  C   UNL     1       3.272   5.849  18.049  0.00  0.00    +0.000 A 
ATOM      3  N   UNL     1       2.827   5.119  19.055  0.00  0.00    +0.000 NA
ATOM      4  C   UNL     1       3.536   4.038  19.309  0.00  0.00    +0.000 A 
ATOM      5 CL   UNL     1       3.034   3.126  20.662  0.00  0.00    +0.000 Cl
ATOM      6  N   UNL     1       4.612   3.610  18.671  0.00  0.00    +0.000 NA
ATOM      7  C   UNL     1       4.938   4.370  17.646  0.00  0.00    +0.000 A 
ATOM      8  N   UNL     1       6.069   3.983  16.925  0.00  0.00    +0.000 N 
ATOM      9  N   UNL     1       4.297   5.485  17.296  0.00  0.00    +0.000 NA
ATOM     10  H   UNL     1       3.299   7.547  17.058  0.00  0.00    +0.000 HD
ATOM     11  H   UNL     1       6.443   3.131  17.326  0.00  0.00    +0.000 HD
ENDROOT
BRANCH   8  12
ATOM     12  C   UNL     1       6.277   4.106  15.542  0.00  0.00    +0.000 A 
ATOM     13  C   UNL     1       5.465   3.458  14.599  0.00  0.00    +0.000 A 
ATOM     14  C   UNL     1       5.716   3.580  13.232  0.00  0.00    +0.000 A 
ATOM     15  C   UNL     1       6.780   4.358  12.801  0.00  0.00    +0.000 A 
ATOM     16  F   UNL     1       7.013   4.455  11.483  0.00  0.00    +0.000 F 
ATOM     17  C   UNL     1       7.591   5.019  13.718  0.00  0.00    +0.000 A 
ATOM     18 CL   UNL     1       8.907   5.994  13.186  0.00  0.00    +0.000 Cl
ATOM     19  C   UNL     1       7.342   4.894  15.086  0.00  0.00    +0.000 A 
ENDBRANCH   8  12
BRANCH   1  24
ATOM     20  C   UNL     1       0.180  10.785  21.349  0.00  0.00    +0.000 C 
ATOM     21  C   UNL     1       0.837   9.834  20.397  0.00  0.00    +0.000 A 
ATOM     22  C   UNL     1       0.950  10.113  19.033  0.00  0.00    +0.000 A 
ATOM     23  C   UNL     1       1.561   9.194  18.169  0.00  0.00    +0.000 A 
ATOM     24  C   UNL     1       2.092   7.987  18.653  0.00  0.00    +0.000 A 
ATOM     25  C   UNL     1       1.927   7.711  20.015  0.00  0.00    +0.000 A 
ATOM     26  C   UNL     1       1.331   8.624  20.881  0.00  0.00    +0.000 A 
ENDBRANCH   1  24
TORSDOF 2
ENDMDL
MODEL 8
REMARK VINA RESULT:      -7.6      2.637      3.603
REMARK  Name = 
REMARK  3 active torsions:
REMARK  status: ('A' for Active; 'I' for Inactive)
REMARK    1  A    between atoms: C_1  and  C_2
REMARK    2  A    between atoms: C_5  and  N_6
REMARK    3  A    between atoms: N_13  and  C_14
REMARK                            x       y       z     vdW  Elec       q    Type
REMARK                         _______ _______ _______ _____ _____    ______ ____
ROOT
ATOM      1  N   UNL     1       3.481   5.695  17.528  0.00  0.00    +0.000 N 
ATOM      2  C   UNL     1       4.855   5.674  17.263  0.00  0.00    +0.000 A 
ATOM      3  N   UNL     1       5.741   5.952  18.202  0.00  0.00    +0.000 NA
ATOM      4  C   UNL     1       6.983   6.053  17.776  0.00  0.00    +0.000 A 
ATOM      5 CL   UNL     1       8.134   6.501  18.955  0.00  0.00    +0.000 Cl
ATOM      6  N   UNL     1       7.429   5.897  16.541  0.00  0.00    +0.000 NA
ATOM      7  C   UNL     1       6.481   5.559  15.692  0.00  0.00    +0.000 A 
ATOM      8  N   UNL     1       6.875   5.380  14.365  0.00  0.00    +0.000 N 
ATOM      9  N   UNL     1       5.193   5.429  16.007  0.00  0.00    +0.000 NA
ATOM     10  H   UNL     1       2.988   5.598  16.651  0.00  0.00    +0.000 HD
ATOM     11  H   UNL     1       7.875   5.528  14.292  0.00  0.00    +0.000 HD
ENDROOT
BRANCH   8  12
ATOM     12  C   UNL     1       6.365   4.450  13.445  0.00  0.00    +0.000 A 
ATOM     13  C   UNL     1       4.989   4.219  13.294  0.00  0.00    +0.000 A 
ATOM     14  C   UNL     1       4.517   3.268  12.389  0.00  0.00    +0.000 A 
ATOM     15  C   UNL     1       5.421   2.546  11.626  0.00  0.00    +0.000 A 
ATOM     16  F   UNL     1       4.949   1.627  10.769  0.00  0.00    +0.000 F 
ATOM     17  C   UNL     1       6.790   2.767  11.750  0.00  0.00    +0.000 A 
ATOM     18 CL   UNL     1       7.914   1.878  10.796  0.00  0.00    +0.000 Cl
ATOM     19  C   UNL     1       7.262   3.716  12.658  0.00  0.00    +0.000 A 
ENDBRANCH   8  12
BRANCH   1  24
ATOM     20  C   UNL     1       0.788   8.832  21.502  0.00  0.00    +0.000 C 
ATOM     21  C   UNL     1       1.487   8.027  20.451  0.00  0.00    +0.000 A 
ATOM     22  C   UNL     1       1.804   8.560  19.200  0.00  0.00    +0.000 A 
ATOM     23  C   UNL     1       2.448   7.773  18.235  0.00  0.00    +0.000 A 
ATOM     24  C   UNL     1       2.809   6.444  18.508  0.00  0.00    +0.000 A 
ATOM     25  C   UNL     1       2.442   5.919  19.753  0.00  0.00    +0.000 A 
ATOM     26  C   UNL     1       1.811   6.699  20.720  0.00  0.00    +0.000 A 
ENDBRANCH   1  24
TORSDOF 2
ENDMDL
MODEL 9
REMARK VINA RESULT:      -7.5      3.303      5.078
REMARK  Name = 
REMARK  3 active torsions:
REMARK  status: ('A' for Active; 'I' for Inactive)
REMARK    1  A    between atoms: C_1  and  C_2
REMARK    2  A    between atoms: C_5  and  N_6
REMARK    3  A    between atoms: N_13  and  C_14
REMARK                            x       y       z     vdW  Elec       q    Type
REMARK                         _______ _______ _______ _____ _____    ______ ____
ROOT
ATOM      1  N   UNL     1       1.305  10.613  18.362  0.00  0.00    +0.000 N 
ATOM      2  C   UNL     1       1.131   9.625  19.338  0.00  0.00    +0.000 A 
ATOM      3  N   UNL     1       0.267   9.778  20.324  0.00  0.00    +0.000 NA
ATOM      4  C   UNL     1       0.323   8.848  21.256  0.00  0.00    +0.000 A 
ATOM      5 CL   UNL     1      -0.723   9.073  22.587  0.00  0.00    +0.000 Cl
ATOM      6  N   UNL     1       1.123   7.797  21.301  0.00  0.00    +0.000 NA
ATOM      7  C   UNL     1       1.901   7.699  20.243  0.00  0.00    +0.000 A 
ATOM      8  N   UNL     1       2.779   6.613  20.221  0.00  0.00    +0.000 N 
ATOM      9  N   UNL     1       1.933   8.577  19.242  0.00  0.00    +0.000 NA
ATOM     10  H   UNL     1       2.104  10.362  17.796  0.00  0.00    +0.000 HD
ATOM     11  H   UNL     1       2.638   6.055  21.055  0.00  0.00    +0.000 HD
ENDROOT
BRANCH   8  12
ATOM     12  C   UNL     1       3.189   5.875  19.100  0.00  0.00    +0.000 A 
ATOM     13  C   UNL     1       4.094   6.384  18.155  0.00  0.00    +0.000 A 
ATOM     14  C   UNL     1       4.460   5.634  17.037  0.00  0.00    +0.000 A 
ATOM     15  C   UNL     1       3.927   4.366  16.862  0.00  0.00    +0.000 A 
ATOM     16  F   UNL     1       4.282   3.664  15.775  0.00  0.00    +0.000 F 
ATOM     17  C   UNL     1       3.038   3.837  17.792  0.00  0.00    +0.000 A 
ATOM     18 CL   UNL     1       2.381   2.259  17.582  0.00  0.00    +0.000 Cl
ATOM     19  C   UNL     1       2.668   4.589  18.909  0.00  0.00    +0.000 A 
ENDBRANCH   8  12
BRANCH   1  24
ATOM     20  C   UNL     1       0.458  16.255  18.944  0.00  0.00    +0.000 C 
ATOM     21  C   UNL     1       0.698  14.785  18.788  0.00  0.00    +0.000 A 
ATOM     22  C   UNL     1       1.986  14.250  18.710  0.00  0.00    +0.000 A 
ATOM     23  C   UNL     1       2.173  12.870  18.552  0.00  0.00    +0.000 A 
ATOM     24  C   UNL     1       1.078  11.993  18.490  0.00  0.00    +0.000 A 
ATOM     25  C   UNL     1      -0.202  12.557  18.526  0.00  0.00    +0.000 A 
ATOM     26  C   UNL     1      -0.396  13.926  18.694  0.00  0.00    +0.000 A 
ENDBRANCH   1  24
TORSDOF 2
ENDMDL
