MODEL 1
REMARK VINA RESULT:      -6.6      0.000      0.000
REMARK  Name = 
REMARK  6 active torsions:
REMARK  status: ('A' for Active; 'I' for Inactive)
REMARK    1  A    between atoms: C_1  and  C_2
REMARK    2  A    between atoms: C_2  and  O_3
REMARK    3  A    between atoms: O_3  and  C_4
REMARK    4  A    between atoms: C_4  and  C_6
REMARK    5  A    between atoms: C_8  and  S_9
REMARK    6  A    between atoms: S_9  and  C_10
REMARK                            x       y       z     vdW  Elec       q    Type
REMARK                         _______ _______ _______ _____ _____    ______ ____
ROOT
ATOM      1  C   UNL     1       3.973   3.540  18.413  0.00  0.00    +0.000 A 
ATOM      2  N   UNL     1       5.287   3.759  18.707  0.00  0.00    +0.000 NA
ATOM      3  C   UNL     1       5.724   4.996  18.426  0.00  0.00    +0.000 A 
ATOM      4  N   UNL     1       5.011   6.009  17.897  0.00  0.00    +0.000 NA
ATOM      5  C   UNL     1       3.719   5.726  17.632  0.00  0.00    +0.000 A 
ATOM      6  C   UNL     1       3.131   4.501  17.866  0.00  0.00    +0.000 A 
ATOM      7 CL   UNL     1       1.458   4.307  17.545  0.00  0.00    +0.000 Cl
ENDROOT
BRANCH   3   8
ATOM      8  S   UNL     1       7.447   5.342  18.759  0.00  0.00    +0.000 S 
ATOM      9  C   UNL     1       7.706   6.956  18.081  0.00  0.00    +0.000 C 
ATOM     10  O   UNL     1       7.607   5.457  20.198  0.00  0.00    +0.000 OA
ATOM     11  O   UNL     1       8.249   4.417  17.979  0.00  0.00    +0.000 OA
ENDBRANCH   3   8
BRANCH   1  12
ATOM     12  C   UNL     1       3.442   2.199  18.784  0.00  0.00    +0.000 C 
ATOM     13  O   UNL     1       3.734   1.150  18.240  0.00  0.00    +0.000 OA
BRANCH  12  14
ATOM     14  O   UNL     1       2.478   2.372  19.728  0.00  0.00    +0.000 OA
BRANCH  14  16
ATOM     15  C   UNL     1       1.922   3.355  21.826  0.00  0.00    +0.000 C 
ATOM     16  C   UNL     1       2.967   2.559  21.063  0.00  0.00    +0.000 C 
ENDBRANCH  14  16
ENDBRANCH  12  14
ENDBRANCH   1  12
TORSDOF 4
ENDMDL
MODEL 2
REMARK VINA RESULT:      -6.5      3.398      5.432
REMARK  Name = 
REMARK  6 active torsions:
REMARK  status: ('A' for Active; 'I' for Inactive)
REMARK    1  A    between atoms: C_1  and  C_2
REMARK    2  A    between atoms: C_2  and  O_3
REMARK    3  A    between atoms: O_3  and  C_4
REMARK    4  A    between atoms: C_4  and  C_6
REMARK    5  A    between atoms: C_8  and  S_9
REMARK    6  A    between atoms: S_9  and  C_10
REMARK                            x       y       z     vdW  Elec       q    Type
REMARK                         _______ _______ _______ _____ _____    ______ ____
ROOT
ATOM      1  C   UNL     1       5.678   5.288  17.067  0.00  0.00    +0.000 A 
ATOM      2  N   UNL     1       4.901   4.271  17.539  0.00  0.00    +0.000 NA
ATOM      3  C   UNL     1       5.106   3.965  18.830  0.00  0.00    +0.000 A 
ATOM      4  N   UNL     1       5.977   4.548  19.675  0.00  0.00    +0.000 NA
ATOM      5  C   UNL     1       6.712   5.547  19.143  0.00  0.00    +0.000 A 
ATOM      6  C   UNL     1       6.613   5.970  17.835  0.00  0.00    +0.000 A 
ATOM      7 CL   UNL     1       7.562   7.302  17.318  0.00  0.00    +0.000 Cl
ENDROOT
BRANCH   3   8
ATOM      8  S   UNL     1       4.141   2.619  19.505  0.00  0.00    +0.000 S 
ATOM      9  C   UNL     1       2.836   3.420  20.392  0.00  0.00    +0.000 C 
ATOM     10  O   UNL     1       3.525   1.912  18.395  0.00  0.00    +0.000 OA
ATOM     11  O   UNL     1       4.960   1.926  20.483  0.00  0.00    +0.000 OA
ENDBRANCH   3   8
BRANCH   1  12
ATOM     12  C   UNL     1       5.420   5.698  15.658  0.00  0.00    +0.000 C 
ATOM     13  O   UNL     1       5.189   6.833  15.285  0.00  0.00    +0.000 OA
BRANCH  12  14
ATOM     14  O   UNL     1       5.345   4.573  14.897  0.00  0.00    +0.000 OA
BRANCH  14  16
ATOM     15  C   UNL     1       6.126   3.607  12.863  0.00  0.00    +0.000 C 
ATOM     16  C   UNL     1       6.541   4.253  14.173  0.00  0.00    +0.000 C 
ENDBRANCH  14  16
ENDBRANCH  12  14
ENDBRANCH   1  12
TORSDOF 4
ENDMDL
MODEL 3
REMARK VINA RESULT:      -6.5      1.735      2.219
REMARK  Name = 
REMARK  6 active torsions:
REMARK  status: ('A' for Active; 'I' for Inactive)
REMARK    1  A    between atoms: C_1  and  C_2
REMARK    2  A    between atoms: C_2  and  O_3
REMARK    3  A    between atoms: O_3  and  C_4
REMARK    4  A    between atoms: C_4  and  C_6
REMARK    5  A    between atoms: C_8  and  S_9
REMARK    6  A    between atoms: S_9  and  C_10
REMARK                            x       y       z     vdW  Elec       q    Type
REMARK                         _______ _______ _______ _____ _____    ______ ____
ROOT
ATOM      1  C   UNL     1       3.541   5.131  18.908  0.00  0.00    +0.000 A 
ATOM      2  N   UNL     1       4.867   5.404  19.078  0.00  0.00    +0.000 NA
ATOM      3  C   UNL     1       5.660   4.950  18.095  0.00  0.00    +0.000 A 
ATOM      4  N   UNL     1       5.283   4.272  16.994  0.00  0.00    +0.000 NA
ATOM      5  C   UNL     1       3.960   4.038  16.889  0.00  0.00    +0.000 A 
ATOM      6  C   UNL     1       3.025   4.441  17.818  0.00  0.00    +0.000 A 
ATOM      7 CL   UNL     1       1.365   4.135  17.515  0.00  0.00    +0.000 Cl
ENDROOT
BRANCH   3   8
ATOM      8  S   UNL     1       7.415   5.247  18.270  0.00  0.00    +0.000 S 
ATOM      9  C   UNL     1       7.634   6.910  17.708  0.00  0.00    +0.000 C 
ATOM     10  O   UNL     1       7.729   5.236  19.689  0.00  0.00    +0.000 OA
ATOM     11  O   UNL     1       8.112   4.384  17.334  0.00  0.00    +0.000 OA
ENDBRANCH   3   8
BRANCH   1  12
ATOM     12  C   UNL     1       2.629   5.687  19.946  0.00  0.00    +0.000 C 
ATOM     13  O   UNL     1       2.148   6.805  19.937  0.00  0.00    +0.000 OA
BRANCH  12  14
ATOM     14  O   UNL     1       2.547   4.788  20.963  0.00  0.00    +0.000 OA
BRANCH  14  16
ATOM     15  C   UNL     1       1.744   2.617  21.532  0.00  0.00    +0.000 C 
ATOM     16  C   UNL     1       1.369   3.970  20.954  0.00  0.00    +0.000 C 
ENDBRANCH  14  16
ENDBRANCH  12  14
ENDBRANCH   1  12
TORSDOF 4
ENDMDL
MODEL 4
REMARK VINA RESULT:      -6.4      1.938      2.508
REMARK  Name = 
REMARK  6 active torsions:
REMARK  status: ('A' for Active; 'I' for Inactive)
REMARK    1  A    between atoms: C_1  and  C_2
REMARK    2  A    between atoms: C_2  and  O_3
REMARK    3  A    between atoms: O_3  and  C_4
REMARK    4  A    between atoms: C_4  and  C_6
REMARK    5  A    between atoms: C_8  and  S_9
REMARK    6  A    between atoms: S_9  and  C_10
REMARK                            x       y       z     vdW  Elec       q    Type
REMARK                         _______ _______ _______ _____ _____    ______ ____
ROOT
ATOM      1  C   UNL     1       3.619   5.116  18.630  0.00  0.00    +0.000 A 
ATOM      2  N   UNL     1       4.933   5.481  18.618  0.00  0.00    +0.000 NA
ATOM      3  C   UNL     1       5.641   4.985  17.592  0.00  0.00    +0.000 A 
ATOM      4  N   UNL     1       5.192   4.186  16.605  0.00  0.00    +0.000 NA
ATOM      5  C   UNL     1       3.884   3.865  16.676  0.00  0.00    +0.000 A 
ATOM      6  C   UNL     1       3.033   4.298  17.671  0.00  0.00    +0.000 A 
ATOM      7 CL   UNL     1       1.375   3.866  17.593  0.00  0.00    +0.000 Cl
ENDROOT
BRANCH   3   8
ATOM      8  S   UNL     1       7.380   5.400  17.533  0.00  0.00    +0.000 S 
ATOM      9  C   UNL     1       7.784   5.824  19.203  0.00  0.00    +0.000 C 
ATOM     10  O   UNL     1       8.116   4.188  17.216  0.00  0.00    +0.000 OA
ATOM     11  O   UNL     1       7.527   6.605  16.738  0.00  0.00    +0.000 OA
ENDBRANCH   3   8
BRANCH   1  12
ATOM     12  C   UNL     1       2.792   5.712  19.715  0.00  0.00    +0.000 C 
ATOM     13  O   UNL     1       2.292   6.821  19.694  0.00  0.00    +0.000 OA
BRANCH  12  14
ATOM     14  O   UNL     1       2.816   4.864  20.779  0.00  0.00    +0.000 OA
BRANCH  14  16
ATOM     15  C   UNL     1       1.865   2.726  21.234  0.00  0.00    +0.000 C 
ATOM     16  C   UNL     1       1.572   4.206  21.056  0.00  0.00    +0.000 C 
ENDBRANCH  14  16
ENDBRANCH  12  14
ENDBRANCH   1  12
TORSDOF 4
ENDMDL
MODEL 5
REMARK VINA RESULT:      -6.3      1.822      2.336
REMARK  Name = 
REMARK  6 active torsions:
REMARK  status: ('A' for Active; 'I' for Inactive)
REMARK    1  A    between atoms: C_1  and  C_2
REMARK    2  A    between atoms: C_2  and  O_3
REMARK    3  A    between atoms: O_3  and  C_4
REMARK    4  A    between atoms: C_4  and  C_6
REMARK    5  A    between atoms: C_8  and  S_9
REMARK    6  A    between atoms: S_9  and  C_10
REMARK                            x       y       z     vdW  Elec       q    Type
REMARK                         _______ _______ _______ _____ _____    ______ ____
ROOT
ATOM      1  C   UNL     1       4.146   3.998  18.956  0.00  0.00    +0.000 A 
ATOM      2  N   UNL     1       5.266   3.916  18.181  0.00  0.00    +0.000 NA
ATOM      3  C   UNL     1       5.672   5.084  17.661  0.00  0.00    +0.000 A 
ATOM      4  N   UNL     1       5.097   6.291  17.827  0.00  0.00    +0.000 NA
ATOM      5  C   UNL     1       3.996   6.301  18.605  0.00  0.00    +0.000 A 
ATOM      6  C   UNL     1       3.460   5.181  19.205  0.00  0.00    +0.000 A 
ATOM      7 CL   UNL     1       2.095   5.357  20.227  0.00  0.00    +0.000 Cl
ENDROOT
BRANCH   3   8
ATOM      8  S   UNL     1       7.118   5.043  16.609  0.00  0.00    +0.000 S 
ATOM      9  C   UNL     1       6.568   4.215  15.145  0.00  0.00    +0.000 C 
ATOM     10  O   UNL     1       7.430   6.410  16.229  0.00  0.00    +0.000 OA
ATOM     11  O   UNL     1       8.107   4.187  17.238  0.00  0.00    +0.000 OA
ENDBRANCH   3   8
BRANCH   1  12
ATOM     12  C   UNL     1       3.715   2.729  19.607  0.00  0.00    +0.000 C 
ATOM     13  O   UNL     1       3.808   2.478  20.794  0.00  0.00    +0.000 OA
BRANCH  12  14
ATOM     14  O   UNL     1       3.338   1.860  18.630  0.00  0.00    +0.000 OA
BRANCH  14  16
ATOM     15  C   UNL     1       0.990   2.240  18.782  0.00  0.00    +0.000 C 
ATOM     16  C   UNL     1       2.198   2.271  17.863  0.00  0.00    +0.000 C 
ENDBRANCH  14  16
ENDBRANCH  12  14
ENDBRANCH   1  12
TORSDOF 4
ENDMDL
MODEL 6
REMARK VINA RESULT:      -6.2      3.411      5.484
REMARK  Name = 
REMARK  6 active torsions:
REMARK  status: ('A' for Active; 'I' for Inactive)
REMARK    1  A    between atoms: C_1  and  C_2
REMARK    2  A    between atoms: C_2  and  O_3
REMARK    3  A    between atoms: O_3  and  C_4
REMARK    4  A    between atoms: C_4  and  C_6
REMARK    5  A    between atoms: C_8  and  S_9
REMARK    6  A    between atoms: S_9  and  C_10
REMARK                            x       y       z     vdW  Elec       q    Type
REMARK                         _______ _______ _______ _____ _____    ______ ____
ROOT
ATOM      1  C   UNL     1       5.555   5.240  16.976  0.00  0.00    +0.000 A 
ATOM      2  N   UNL     1       4.679   4.306  17.447  0.00  0.00    +0.000 NA
ATOM      3  C   UNL     1       4.809   4.028  18.754  0.00  0.00    +0.000 A 
ATOM      4  N   UNL     1       5.692   4.567  19.615  0.00  0.00    +0.000 NA
ATOM      5  C   UNL     1       6.527   5.484  19.085  0.00  0.00    +0.000 A 
ATOM      6  C   UNL     1       6.513   5.870  17.761  0.00  0.00    +0.000 A 
ATOM      7 CL   UNL     1       7.588   7.102  17.242  0.00  0.00    +0.000 Cl
ENDROOT
BRANCH   3   8
ATOM      8  S   UNL     1       3.712   2.788  19.430  0.00  0.00    +0.000 S 
ATOM      9  C   UNL     1       3.515   1.617  18.118  0.00  0.00    +0.000 C 
ATOM     10  O   UNL     1       4.417   2.107  20.502  0.00  0.00    +0.000 OA
ATOM     11  O   UNL     1       2.417   3.406  19.649  0.00  0.00    +0.000 OA
ENDBRANCH   3   8
BRANCH   1  12
ATOM     12  C   UNL     1       5.385   5.622  15.546  0.00  0.00    +0.000 C 
ATOM     13  O   UNL     1       5.237   6.757  15.132  0.00  0.00    +0.000 OA
BRANCH  12  14
ATOM     14  O   UNL     1       5.283   4.481  14.813  0.00  0.00    +0.000 OA
BRANCH  14  16
ATOM     15  C   UNL     1       5.922   3.499  12.737  0.00  0.00    +0.000 C 
ATOM     16  C   UNL     1       6.424   4.182  13.998  0.00  0.00    +0.000 C 
ENDBRANCH  14  16
ENDBRANCH  12  14
ENDBRANCH   1  12
TORSDOF 4
ENDMDL
MODEL 7
REMARK VINA RESULT:      -6.2      3.528      5.755
REMARK  Name = 
REMARK  6 active torsions:
REMARK  status: ('A' for Active; 'I' for Inactive)
REMARK    1  A    between atoms: C_1  and  C_2
REMARK    2  A    between atoms: C_2  and  O_3
REMARK    3  A    between atoms: O_3  and  C_4
REMARK    4  A    between atoms: C_4  and  C_6
REMARK    5  A    between atoms: C_8  and  S_9
REMARK    6  A    between atoms: S_9  and  C_10
REMARK                            x       y       z     vdW  Elec       q    Type
REMARK                         _______ _______ _______ _____ _____    ______ ____
ROOT
ATOM      1  C   UNL     1       5.090   5.139  17.053  0.00  0.00    +0.000 A 
ATOM      2  N   UNL     1       3.824   4.648  17.183  0.00  0.00    +0.000 NA
ATOM      3  C   UNL     1       3.421   4.471  18.451  0.00  0.00    +0.000 A 
ATOM      4  N   UNL     1       4.126   4.723  19.570  0.00  0.00    +0.000 NA
ATOM      5  C   UNL     1       5.369   5.207  19.370  0.00  0.00    +0.000 A 
ATOM      6  C   UNL     1       5.919   5.439  18.127  0.00  0.00    +0.000 A 
ATOM      7 CL   UNL     1       7.487   6.126  18.027  0.00  0.00    +0.000 Cl
ENDROOT
BRANCH   3   8
ATOM      8  S   UNL     1       1.781   3.800  18.692  0.00  0.00    +0.000 S 
ATOM      9  C   UNL     1       2.055   2.079  19.001  0.00  0.00    +0.000 C 
ATOM     10  O   UNL     1       1.244   4.368  19.917  0.00  0.00    +0.000 OA
ATOM     11  O   UNL     1       1.065   3.901  17.434  0.00  0.00    +0.000 OA
ENDBRANCH   3   8
BRANCH   1  12
ATOM     12  C   UNL     1       5.537   5.415  15.659  0.00  0.00    +0.000 C 
ATOM     13  O   UNL     1       5.519   6.503  15.115  0.00  0.00    +0.000 OA
BRANCH  12  14
ATOM     14  O   UNL     1       5.828   4.226  15.065  0.00  0.00    +0.000 OA
BRANCH  14  16
ATOM     15  C   UNL     1       5.942   3.557  12.780  0.00  0.00    +0.000 C 
ATOM     16  C   UNL     1       6.643   4.322  13.889  0.00  0.00    +0.000 C 
ENDBRANCH  14  16
ENDBRANCH  12  14
ENDBRANCH   1  12
TORSDOF 4
ENDMDL
MODEL 8
REMARK VINA RESULT:      -6.2      3.479      5.797
REMARK  Name = 
REMARK  6 active torsions:
REMARK  status: ('A' for Active; 'I' for Inactive)
REMARK    1  A    between atoms: C_1  and  C_2
REMARK    2  A    between atoms: C_2  and  O_3
REMARK    3  A    between atoms: O_3  and  C_4
REMARK    4  A    between atoms: C_4  and  C_6
REMARK    5  A    between atoms: C_8  and  S_9
REMARK    6  A    between atoms: S_9  and  C_10
REMARK                            x       y       z     vdW  Elec       q    Type
REMARK                         _______ _______ _______ _____ _____    ______ ____
ROOT
ATOM      1  C   UNL     1       5.228   5.121  17.074  0.00  0.00    +0.000 A 
ATOM      2  N   UNL     1       3.979   4.572  17.081  0.00  0.00    +0.000 NA
ATOM      3  C   UNL     1       3.507   4.275  18.302  0.00  0.00    +0.000 A 
ATOM      4  N   UNL     1       4.129   4.461  19.481  0.00  0.00    +0.000 NA
ATOM      5  C   UNL     1       5.360   5.008  19.402  0.00  0.00    +0.000 A 
ATOM      6  C   UNL     1       5.975   5.363  18.221  0.00  0.00    +0.000 A 
ATOM      7 CL   UNL     1       7.515   6.116  18.278  0.00  0.00    +0.000 Cl
ENDROOT
BRANCH   3   8
ATOM      8  S   UNL     1       1.886   3.524  18.381  0.00  0.00    +0.000 S 
ATOM      9  C   UNL     1       1.235   4.055  19.939  0.00  0.00    +0.000 C 
ATOM     10  O   UNL     1       1.062   4.133  17.351  0.00  0.00    +0.000 OA
ATOM     11  O   UNL     1       2.060   2.086  18.459  0.00  0.00    +0.000 OA
ENDBRANCH   3   8
BRANCH   1  12
ATOM     12  C   UNL     1       5.748   5.529  15.739  0.00  0.00    +0.000 C 
ATOM     13  O   UNL     1       5.446   6.548  15.146  0.00  0.00    +0.000 OA
BRANCH  12  14
ATOM     14  O   UNL     1       6.495   4.505  15.245  0.00  0.00    +0.000 OA
BRANCH  14  16
ATOM     15  C   UNL     1       6.170   3.666  13.038  0.00  0.00    +0.000 C 
ATOM     16  C   UNL     1       6.926   4.673  13.888  0.00  0.00    +0.000 C 
ENDBRANCH  14  16
ENDBRANCH  12  14
ENDBRANCH   1  12
TORSDOF 4
ENDMDL
MODEL 9
REMARK VINA RESULT:      -6.2      2.140      2.694
REMARK  Name = 
REMARK  6 active torsions:
REMARK  status: ('A' for Active; 'I' for Inactive)
REMARK    1  A    between atoms: C_1  and  C_2
REMARK    2  A    between atoms: C_2  and  O_3
REMARK    3  A    between atoms: O_3  and  C_4
REMARK    4  A    between atoms: C_4  and  C_6
REMARK    5  A    between atoms: C_8  and  S_9
REMARK    6  A    between atoms: S_9  and  C_10
REMARK                            x       y       z     vdW  Elec       q    Type
REMARK                         _______ _______ _______ _____ _____    ______ ____
ROOT
ATOM      1  C   UNL     1       3.414   4.522  17.848  0.00  0.00    +0.000 A 
ATOM      2  N   UNL     1       4.472   4.437  16.990  0.00  0.00    +0.000 NA
ATOM      3  C   UNL     1       5.610   4.978  17.452  0.00  0.00    +0.000 A 
ATOM      4  N   UNL     1       5.800   5.578  18.643  0.00  0.00    +0.000 NA
ATOM      5  C   UNL     1       4.714   5.627  19.441  0.00  0.00    +0.000 A 
ATOM      6  C   UNL     1       3.479   5.116  19.102  0.00  0.00    +0.000 A 
ATOM      7 CL   UNL     1       2.207   5.186  20.250  0.00  0.00    +0.000 Cl
ENDROOT
BRANCH   3   8
ATOM      8  S   UNL     1       7.029   4.928  16.365  0.00  0.00    +0.000 S 
ATOM      9  C   UNL     1       6.467   4.017  14.956  0.00  0.00    +0.000 C 
ATOM     10  O   UNL     1       7.292   6.284  15.913  0.00  0.00    +0.000 OA
ATOM     11  O   UNL     1       8.058   4.131  17.006  0.00  0.00    +0.000 OA
ENDBRANCH   3   8
BRANCH   1  12
ATOM     12  C   UNL     1       2.158   3.865  17.392  0.00  0.00    +0.000 C 
ATOM     13  O   UNL     1       1.083   4.419  17.250  0.00  0.00    +0.000 OA
BRANCH  12  14
ATOM     14  O   UNL     1       2.388   2.527  17.305  0.00  0.00    +0.000 OA
BRANCH  14  16
ATOM     15  C   UNL     1       1.197   1.920  19.278  0.00  0.00    +0.000 C 
ATOM     16  C   UNL     1       2.536   1.856  18.564  0.00  0.00    +0.000 C 
ENDBRANCH  14  16
ENDBRANCH  12  14
ENDBRANCH   1  12
TORSDOF 4
ENDMDL
