MODEL 1
REMARK VINA RESULT:      -7.6      0.000      0.000
REMARK  Name = 
REMARK  6 active torsions:
REMARK  status: ('A' for Active; 'I' for Inactive)
REMARK    1  A    between atoms: C_1  and  O_2
REMARK    2  A    between atoms: O_2  and  C_3
REMARK    3  A    between atoms: C_9  and  S_10
REMARK    4  A    between atoms: S_10  and  N_13
REMARK    5  A    between atoms: C_17  and  C_18
REMARK    6  A    between atoms: C_18  and  C_19
REMARK                            x       y       z     vdW  Elec       q    Type
REMARK                         _______ _______ _______ _____ _____    ______ ____
ROOT
ATOM      1  S   UNL     1       4.246   2.726  18.756  0.00  0.00    +0.000 S 
ATOM      2  O   UNL     1       4.163   1.407  18.160  0.00  0.00    +0.000 OA
ATOM      3  O   UNL     1       4.911   2.891  20.030  0.00  0.00    +0.000 OA
ENDROOT
BRANCH   1  10
ATOM      4  C   UNL     1       5.983   4.762  17.986  0.00  0.00    +0.000 A 
ATOM      5  C   UNL     1       6.630   5.535  17.010  0.00  0.00    +0.000 A 
ATOM      6  C   UNL     1       6.355   5.354  15.654  0.00  0.00    +0.000 A 
ATOM      7  C   UNL     1       5.451   4.376  15.257  0.00  0.00    +0.000 A 
ATOM      8 CL   UNL     1       5.123   4.157  13.584  0.00  0.00    +0.000 Cl
ATOM      9  C   UNL     1       4.814   3.578  16.204  0.00  0.00    +0.000 A 
ATOM     10  C   UNL     1       5.073   3.778  17.571  0.00  0.00    +0.000 A 
BRANCH   4  12
ATOM     11  C   UNL     1       7.426   5.586  19.679  0.00  0.00    +0.000 C 
ATOM     12  O   UNL     1       6.224   4.905  19.324  0.00  0.00    +0.000 OA
ENDBRANCH   4  12
ENDBRANCH   1  10
BRANCH   1  13
ATOM     13  N   UNL     1       2.677   3.330  18.807  0.00  0.00    +0.000 N 
ATOM     14  C   UNL     1       1.581   2.377  18.579  0.00  0.00    +0.000 C 
ATOM     15  C   UNL     1       0.518   2.918  19.534  0.00  0.00    +0.000 C 
ATOM     16  N   UNL     1       0.955   4.263  19.975  0.00  0.00    +0.000 NA
ATOM     17  C   UNL     1       2.198   4.393  19.610  0.00  0.00    +0.000 C 
BRANCH  17  18
ATOM     18  C   UNL     1       2.979   5.625  19.982  0.00  0.00    +0.000 C 
BRANCH  18  19
ATOM     19  C   UNL     1       2.406   6.930  19.470  0.00  0.00    +0.000 A 
ATOM     20  C   UNL     1       1.695   7.798  20.312  0.00  0.00    +0.000 A 
ATOM     21  C   UNL     1       1.278   9.052  19.856  0.00  0.00    +0.000 A 
ATOM     22  C   UNL     1       1.576   9.458  18.556  0.00  0.00    +0.000 A 
ATOM     23  C   UNL     1       2.280   8.606  17.709  0.00  0.00    +0.000 A 
ATOM     24  C   UNL     1       2.690   7.349  18.162  0.00  0.00    +0.000 A 
ENDBRANCH  18  19
ENDBRANCH  17  18
ENDBRANCH   1  13
TORSDOF 5
ENDMDL
MODEL 2
REMARK VINA RESULT:      -7.5      2.758      6.390
REMARK  Name = 
REMARK  6 active torsions:
REMARK  status: ('A' for Active; 'I' for Inactive)
REMARK    1  A    between atoms: C_1  and  O_2
REMARK    2  A    between atoms: O_2  and  C_3
REMARK    3  A    between atoms: C_9  and  S_10
REMARK    4  A    between atoms: S_10  and  N_13
REMARK    5  A    between atoms: C_17  and  C_18
REMARK    6  A    between atoms: C_18  and  C_19
REMARK                            x       y       z     vdW  Elec       q    Type
REMARK                         _______ _______ _______ _____ _____    ______ ____
ROOT
ATOM      1  S   UNL     1       4.768   3.970  18.439  0.00  0.00    +0.000 S 
ATOM      2  O   UNL     1       5.469   3.144  19.403  0.00  0.00    +0.000 OA
ATOM      3  O   UNL     1       4.315   3.384  17.196  0.00  0.00    +0.000 OA
ENDROOT
BRANCH   1  10
ATOM      4  C   UNL     1       2.390   3.800  19.877  0.00  0.00    +0.000 A 
ATOM      5  C   UNL     1       1.306   4.383  20.552  0.00  0.00    +0.000 A 
ATOM      6  C   UNL     1       1.154   5.768  20.603  0.00  0.00    +0.000 A 
ATOM      7  C   UNL     1       2.102   6.590  20.004  0.00  0.00    +0.000 A 
ATOM      8 CL   UNL     1       1.911   8.296  20.078  0.00  0.00    +0.000 Cl
ATOM      9  C   UNL     1       3.201   6.038  19.350  0.00  0.00    +0.000 A 
ATOM     10  C   UNL     1       3.339   4.641  19.277  0.00  0.00    +0.000 A 
BRANCH   4  12
ATOM     11  C   UNL     1       1.687   1.734  18.948  0.00  0.00    +0.000 C 
ATOM     12  O   UNL     1       2.576   2.448  19.804  0.00  0.00    +0.000 OA
ENDBRANCH   4  12
ENDBRANCH   1  10
BRANCH   1  13
ATOM     13  N   UNL     1       5.740   5.313  18.160  0.00  0.00    +0.000 N 
ATOM     14  C   UNL     1       6.762   5.626  19.169  0.00  0.00    +0.000 C 
ATOM     15  C   UNL     1       7.899   6.141  18.288  0.00  0.00    +0.000 C 
ATOM     16  N   UNL     1       7.346   6.371  16.933  0.00  0.00    +0.000 NA
ATOM     17  C   UNL     1       6.172   5.807  16.905  0.00  0.00    +0.000 C 
BRANCH  17  18
ATOM     18  C   UNL     1       5.365   5.783  15.634  0.00  0.00    +0.000 C 
BRANCH  18  19
ATOM     19  C   UNL     1       6.005   5.044  14.479  0.00  0.00    +0.000 A 
ATOM     20  C   UNL     1       5.337   4.005  13.813  0.00  0.00    +0.000 A 
ATOM     21  C   UNL     1       5.890   3.416  12.672  0.00  0.00    +0.000 A 
ATOM     22  C   UNL     1       7.113   3.864  12.177  0.00  0.00    +0.000 A 
ATOM     23  C   UNL     1       7.789   4.892  12.829  0.00  0.00    +0.000 A 
ATOM     24  C   UNL     1       7.240   5.476  13.974  0.00  0.00    +0.000 A 
ENDBRANCH  18  19
ENDBRANCH  17  18
ENDBRANCH   1  13
TORSDOF 5
ENDMDL
MODEL 3
REMARK VINA RESULT:      -7.5      2.645      6.354
REMARK  Name = 
REMARK  6 active torsions:
REMARK  status: ('A' for Active; 'I' for Inactive)
REMARK    1  A    between atoms: C_1  and  O_2
REMARK    2  A    between atoms: O_2  and  C_3
REMARK    3  A    between atoms: C_9  and  S_10
REMARK    4  A    between atoms: S_10  and  N_13
REMARK    5  A    between atoms: C_17  and  C_18
REMARK    6  A    between atoms: C_18  and  C_19
REMARK                            x       y       z     vdW  Elec       q    Type
REMARK                         _______ _______ _______ _____ _____    ______ ____
ROOT
ATOM      1  S   UNL     1       4.360   3.741  18.721  0.00  0.00    +0.000 S 
ATOM      2  O   UNL     1       4.849   3.064  19.906  0.00  0.00    +0.000 OA
ATOM      3  O   UNL     1       3.651   2.986  17.711  0.00  0.00    +0.000 OA
ENDROOT
BRANCH   1  10
ATOM      4  C   UNL     1       2.473   4.884  20.421  0.00  0.00    +0.000 A 
ATOM      5  C   UNL     1       1.669   5.956  20.837  0.00  0.00    +0.000 A 
ATOM      6  C   UNL     1       1.642   7.153  20.121  0.00  0.00    +0.000 A 
ATOM      7  C   UNL     1       2.444   7.301  18.995  0.00  0.00    +0.000 A 
ATOM      8 CL   UNL     1       2.410   8.782  18.122  0.00  0.00    +0.000 Cl
ATOM      9  C   UNL     1       3.271   6.262  18.575  0.00  0.00    +0.000 A 
ATOM     10  C   UNL     1       3.277   5.048  19.283  0.00  0.00    +0.000 A 
BRANCH   4  12
ATOM     11  C   UNL     1       1.347   2.900  21.069  0.00  0.00    +0.000 C 
ATOM     12  O   UNL     1       2.530   3.696  21.094  0.00  0.00    +0.000 OA
ENDBRANCH   4  12
ENDBRANCH   1  10
BRANCH   1  13
ATOM     13  N   UNL     1       5.671   4.560  18.060  0.00  0.00    +0.000 N 
ATOM     14  C   UNL     1       6.795   4.868  18.957  0.00  0.00    +0.000 C 
ATOM     15  C   UNL     1       7.982   4.697  18.011  0.00  0.00    +0.000 C 
ATOM     16  N   UNL     1       7.448   4.620  16.631  0.00  0.00    +0.000 NA
ATOM     17  C   UNL     1       6.161   4.458  16.735  0.00  0.00    +0.000 C 
BRANCH  17  18
ATOM     18  C   UNL     1       5.313   4.258  15.506  0.00  0.00    +0.000 C 
BRANCH  18  19
ATOM     19  C   UNL     1       6.076   4.197  14.200  0.00  0.00    +0.000 A 
ATOM     20  C   UNL     1       5.681   3.342  13.160  0.00  0.00    +0.000 A 
ATOM     21  C   UNL     1       6.321   3.385  11.918  0.00  0.00    +0.000 A 
ATOM     22  C   UNL     1       7.358   4.290  11.697  0.00  0.00    +0.000 A 
ATOM     23  C   UNL     1       7.761   5.144  12.721  0.00  0.00    +0.000 A 
ATOM     24  C   UNL     1       7.127   5.095  13.965  0.00  0.00    +0.000 A 
ENDBRANCH  18  19
ENDBRANCH  17  18
ENDBRANCH   1  13
TORSDOF 5
ENDMDL
MODEL 4
REMARK VINA RESULT:      -7.5      1.114      1.628
REMARK  Name = 
REMARK  6 active torsions:
REMARK  status: ('A' for Active; 'I' for Inactive)
REMARK    1  A    between atoms: C_1  and  O_2
REMARK    2  A    between atoms: O_2  and  C_3
REMARK    3  A    between atoms: C_9  and  S_10
REMARK    4  A    between atoms: S_10  and  N_13
REMARK    5  A    between atoms: C_17  and  C_18
REMARK    6  A    between atoms: C_18  and  C_19
REMARK                            x       y       z     vdW  Elec       q    Type
REMARK                         _______ _______ _______ _____ _____    ______ ____
ROOT
ATOM      1  S   UNL     1       4.804   4.147  18.952  0.00  0.00    +0.000 S 
ATOM      2  O   UNL     1       5.235   2.886  19.525  0.00  0.00    +0.000 OA
ATOM      3  O   UNL     1       4.925   5.360  19.731  0.00  0.00    +0.000 OA
ENDROOT
BRANCH   1  10
ATOM      4  C   UNL     1       7.071   4.804  17.475  0.00  0.00    +0.000 A 
ATOM      5  C   UNL     1       7.765   4.931  16.261  0.00  0.00    +0.000 A 
ATOM      6  C   UNL     1       7.136   4.666  15.044  0.00  0.00    +0.000 A 
ATOM      7  C   UNL     1       5.813   4.240  15.029  0.00  0.00    +0.000 A 
ATOM      8 CL   UNL     1       5.048   3.909  13.525  0.00  0.00    +0.000 Cl
ATOM      9  C   UNL     1       5.109   4.082  16.220  0.00  0.00    +0.000 A 
ATOM     10  C   UNL     1       5.736   4.374  17.444  0.00  0.00    +0.000 A 
BRANCH   4  12
ATOM     11  C   UNL     1       8.087   6.391  18.915  0.00  0.00    +0.000 C 
ATOM     12  O   UNL     1       7.649   5.053  18.687  0.00  0.00    +0.000 OA
ENDBRANCH   4  12
ENDBRANCH   1  10
BRANCH   1  13
ATOM     13  N   UNL     1       3.225   3.919  18.421  0.00  0.00    +0.000 N 
ATOM     14  C   UNL     1       2.562   2.663  18.800  0.00  0.00    +0.000 C 
ATOM     15  C   UNL     1       1.127   3.141  19.016  0.00  0.00    +0.000 C 
ATOM     16  N   UNL     1       1.022   4.510  18.458  0.00  0.00    +0.000 NA
ATOM     17  C   UNL     1       2.238   4.915  18.229  0.00  0.00    +0.000 C 
BRANCH  17  18
ATOM     18  C   UNL     1       2.496   6.313  17.731  0.00  0.00    +0.000 C 
BRANCH  18  19
ATOM     19  C   UNL     1       2.068   7.420  18.670  0.00  0.00    +0.000 A 
ATOM     20  C   UNL     1       1.624   8.661  18.187  0.00  0.00    +0.000 A 
ATOM     21  C   UNL     1       1.117   9.628  19.060  0.00  0.00    +0.000 A 
ATOM     22  C   UNL     1       1.039   9.364  20.426  0.00  0.00    +0.000 A 
ATOM     23  C   UNL     1       1.477   8.138  20.921  0.00  0.00    +0.000 A 
ATOM     24  C   UNL     1       1.992   7.174  20.049  0.00  0.00    +0.000 A 
ENDBRANCH  18  19
ENDBRANCH  17  18
ENDBRANCH   1  13
TORSDOF 5
ENDMDL
MODEL 5
REMARK VINA RESULT:      -7.3      2.649      6.326
REMARK  Name = 
REMARK  6 active torsions:
REMARK  status: ('A' for Active; 'I' for Inactive)
REMARK    1  A    between atoms: C_1  and  O_2
REMARK    2  A    between atoms: O_2  and  C_3
REMARK    3  A    between atoms: C_9  and  S_10
REMARK    4  A    between atoms: S_10  and  N_13
REMARK    5  A    between atoms: C_17  and  C_18
REMARK    6  A    between atoms: C_18  and  C_19
REMARK                            x       y       z     vdW  Elec       q    Type
REMARK                         _______ _______ _______ _____ _____    ______ ____
ROOT
ATOM      1  S   UNL     1       4.420   3.571  18.657  0.00  0.00    +0.000 S 
ATOM      2  O   UNL     1       4.919   2.833  19.801  0.00  0.00    +0.000 OA
ATOM      3  O   UNL     1       3.727   2.865  17.601  0.00  0.00    +0.000 OA
ENDROOT
BRANCH   1  10
ATOM      4  C   UNL     1       2.519   4.581  20.424  0.00  0.00    +0.000 A 
ATOM      5  C   UNL     1       1.694   5.611  20.900  0.00  0.00    +0.000 A 
ATOM      6  C   UNL     1       1.637   6.843  20.247  0.00  0.00    +0.000 A 
ATOM      7  C   UNL     1       2.428   7.068  19.126  0.00  0.00    +0.000 A 
ATOM      8 CL   UNL     1       2.354   8.591  18.331  0.00  0.00    +0.000 Cl
ATOM      9  C   UNL     1       3.274   6.071  18.648  0.00  0.00    +0.000 A 
ATOM     10  C   UNL     1       3.312   4.822  19.292  0.00  0.00    +0.000 A 
BRANCH   4  12
ATOM     11  C   UNL     1       1.376   2.777  21.455  0.00  0.00    +0.000 C 
ATOM     12  O   UNL     1       2.606   3.361  21.034  0.00  0.00    +0.000 OA
ENDBRANCH   4  12
ENDBRANCH   1  10
BRANCH   1  13
ATOM     13  N   UNL     1       5.717   4.451  18.050  0.00  0.00    +0.000 N 
ATOM     14  C   UNL     1       6.892   4.607  18.920  0.00  0.00    +0.000 C 
ATOM     15  C   UNL     1       8.026   4.550  17.898  0.00  0.00    +0.000 C 
ATOM     16  N   UNL     1       7.422   4.682  16.551  0.00  0.00    +0.000 NA
ATOM     17  C   UNL     1       6.137   4.531  16.700  0.00  0.00    +0.000 C 
BRANCH  17  18
ATOM     18  C   UNL     1       5.224   4.525  15.502  0.00  0.00    +0.000 C 
BRANCH  18  19
ATOM     19  C   UNL     1       5.922   4.440  14.161  0.00  0.00    +0.000 A 
ATOM     20  C   UNL     1       7.057   5.213  13.875  0.00  0.00    +0.000 A 
ATOM     21  C   UNL     1       7.761   5.035  12.681  0.00  0.00    +0.000 A 
ATOM     22  C   UNL     1       7.344   4.074  11.761  0.00  0.00    +0.000 A 
ATOM     23  C   UNL     1       6.218   3.301  12.030  0.00  0.00    +0.000 A 
ATOM     24  C   UNL     1       5.509   3.484  13.221  0.00  0.00    +0.000 A 
ENDBRANCH  18  19
ENDBRANCH  17  18
ENDBRANCH   1  13
TORSDOF 5
ENDMDL
MODEL 6
REMARK VINA RESULT:      -7.3      0.924      1.485
REMARK  Name = 
REMARK  6 active torsions:
REMARK  status: ('A' for Active; 'I' for Inactive)
REMARK    1  A    between atoms: C_1  and  O_2
REMARK    2  A    between atoms: O_2  and  C_3
REMARK    3  A    between atoms: C_9  and  S_10
REMARK    4  A    between atoms: S_10  and  N_13
REMARK    5  A    between atoms: C_17  and  C_18
REMARK    6  A    between atoms: C_18  and  C_19
REMARK                            x       y       z     vdW  Elec       q    Type
REMARK                         _______ _______ _______ _____ _____    ______ ____
ROOT
ATOM      1  S   UNL     1       4.813   4.112  19.145  0.00  0.00    +0.000 S 
ATOM      2  O   UNL     1       5.177   2.800  19.645  0.00  0.00    +0.000 OA
ATOM      3  O   UNL     1       5.074   5.281  19.956  0.00  0.00    +0.000 OA
ENDROOT
BRANCH   1  10
ATOM      4  C   UNL     1       7.030   4.666  17.554  0.00  0.00    +0.000 A 
ATOM      5  C   UNL     1       7.660   4.787  16.305  0.00  0.00    +0.000 A 
ATOM      6  C   UNL     1       6.946   4.604  15.121  0.00  0.00    +0.000 A 
ATOM      7  C   UNL     1       5.598   4.269  15.172  0.00  0.00    +0.000 A 
ATOM      8 CL   UNL     1       4.727   4.039  13.708  0.00  0.00    +0.000 Cl
ATOM      9  C   UNL     1       4.955   4.118  16.398  0.00  0.00    +0.000 A 
ATOM     10  C   UNL     1       5.670   4.327  17.590  0.00  0.00    +0.000 A 
BRANCH   4  12
ATOM     11  C   UNL     1       8.075   6.171  19.060  0.00  0.00    +0.000 C 
ATOM     12  O   UNL     1       7.693   4.835  18.737  0.00  0.00    +0.000 OA
ENDBRANCH   4  12
ENDBRANCH   1  10
BRANCH   1  13
ATOM     13  N   UNL     1       3.193   4.025  18.704  0.00  0.00    +0.000 N 
ATOM     14  C   UNL     1       2.778   2.878  17.884  0.00  0.00    +0.000 C 
ATOM     15  C   UNL     1       1.381   2.607  18.440  0.00  0.00    +0.000 C 
ATOM     16  N   UNL     1       1.000   3.769  19.277  0.00  0.00    +0.000 NA
ATOM     17  C   UNL     1       2.080   4.474  19.456  0.00  0.00    +0.000 C 
BRANCH  17  18
ATOM     18  C   UNL     1       2.060   5.693  20.341  0.00  0.00    +0.000 C 
BRANCH  18  19
ATOM     19  C   UNL     1       2.043   7.018  19.610  0.00  0.00    +0.000 A 
ATOM     20  C   UNL     1       2.527   7.139  18.299  0.00  0.00    +0.000 A 
ATOM     21  C   UNL     1       2.392   8.340  17.595  0.00  0.00    +0.000 A 
ATOM     22  C   UNL     1       1.763   9.431  18.190  0.00  0.00    +0.000 A 
ATOM     23  C   UNL     1       1.279   9.327  19.491  0.00  0.00    +0.000 A 
ATOM     24  C   UNL     1       1.421   8.129  20.198  0.00  0.00    +0.000 A 
ENDBRANCH  18  19
ENDBRANCH  17  18
ENDBRANCH   1  13
TORSDOF 5
ENDMDL
MODEL 7
REMARK VINA RESULT:      -7.2      1.065      1.417
REMARK  Name = 
REMARK  6 active torsions:
REMARK  status: ('A' for Active; 'I' for Inactive)
REMARK    1  A    between atoms: C_1  and  O_2
REMARK    2  A    between atoms: O_2  and  C_3
REMARK    3  A    between atoms: C_9  and  S_10
REMARK    4  A    between atoms: S_10  and  N_13
REMARK    5  A    between atoms: C_17  and  C_18
REMARK    6  A    between atoms: C_18  and  C_19
REMARK                            x       y       z     vdW  Elec       q    Type
REMARK                         _______ _______ _______ _____ _____    ______ ____
ROOT
ATOM      1  S   UNL     1       4.650   3.915  19.059  0.00  0.00    +0.000 S 
ATOM      2  O   UNL     1       5.169   2.721  19.696  0.00  0.00    +0.000 OA
ATOM      3  O   UNL     1       4.583   5.151  19.808  0.00  0.00    +0.000 OA
ENDROOT
BRANCH   1  10
ATOM      4  C   UNL     1       6.994   4.623  17.734  0.00  0.00    +0.000 A 
ATOM      5  C   UNL     1       7.750   4.805  16.565  0.00  0.00    +0.000 A 
ATOM      6  C   UNL     1       7.182   4.610  15.306  0.00  0.00    +0.000 A 
ATOM      7  C   UNL     1       5.858   4.200  15.202  0.00  0.00    +0.000 A 
ATOM      8 CL   UNL     1       5.168   3.956  13.646  0.00  0.00    +0.000 Cl
ATOM      9  C   UNL     1       5.093   3.988  16.346  0.00  0.00    +0.000 A 
ATOM     10  C   UNL     1       5.659   4.210  17.613  0.00  0.00    +0.000 A 
BRANCH   4  12
ATOM     11  C   UNL     1       7.961   6.119  19.299  0.00  0.00    +0.000 C 
ATOM     12  O   UNL     1       7.511   4.803  18.985  0.00  0.00    +0.000 OA
ENDBRANCH   4  12
ENDBRANCH   1  10
BRANCH   1  13
ATOM     13  N   UNL     1       3.147   3.506  18.425  0.00  0.00    +0.000 N 
ATOM     14  C   UNL     1       2.601   2.189  18.782  0.00  0.00    +0.000 C 
ATOM     15  C   UNL     1       1.110   2.507  18.890  0.00  0.00    +0.000 C 
ATOM     16  N   UNL     1       0.895   3.849  18.299  0.00  0.00    +0.000 NA
ATOM     17  C   UNL     1       2.071   4.384  18.146  0.00  0.00    +0.000 C 
BRANCH  17  18
ATOM     18  C   UNL     1       2.208   5.796  17.640  0.00  0.00    +0.000 C 
BRANCH  18  19
ATOM     19  C   UNL     1       1.831   6.875  18.633  0.00  0.00    +0.000 A 
ATOM     20  C   UNL     1       1.740   6.607  20.008  0.00  0.00    +0.000 A 
ATOM     21  C   UNL     1       1.511   7.639  20.923  0.00  0.00    +0.000 A 
ATOM     22  C   UNL     1       1.380   8.953  20.477  0.00  0.00    +0.000 A 
ATOM     23  C   UNL     1       1.466   9.234  19.115  0.00  0.00    +0.000 A 
ATOM     24  C   UNL     1       1.687   8.201  18.199  0.00  0.00    +0.000 A 
ENDBRANCH  18  19
ENDBRANCH  17  18
ENDBRANCH   1  13
TORSDOF 5
ENDMDL
MODEL 8
REMARK VINA RESULT:      -6.9      3.106      6.494
REMARK  Name = 
REMARK  6 active torsions:
REMARK  status: ('A' for Active; 'I' for Inactive)
REMARK    1  A    between atoms: C_1  and  O_2
REMARK    2  A    between atoms: O_2  and  C_3
REMARK    3  A    between atoms: C_9  and  S_10
REMARK    4  A    between atoms: S_10  and  N_13
REMARK    5  A    between atoms: C_17  and  C_18
REMARK    6  A    between atoms: C_18  and  C_19
REMARK                            x       y       z     vdW  Elec       q    Type
REMARK                         _______ _______ _______ _____ _____    ______ ____
ROOT
ATOM      1  S   UNL     1       4.049   3.724  17.423  0.00  0.00    +0.000 S 
ATOM      2  O   UNL     1       4.467   2.373  17.746  0.00  0.00    +0.000 OA
ATOM      3  O   UNL     1       3.298   3.967  16.210  0.00  0.00    +0.000 OA
ENDROOT
BRANCH   1  10
ATOM      4  C   UNL     1       2.690   5.651  18.904  0.00  0.00    +0.000 A 
ATOM      5  C   UNL     1       1.885   6.042  19.985  0.00  0.00    +0.000 A 
ATOM      6  C   UNL     1       1.487   5.120  20.953  0.00  0.00    +0.000 A 
ATOM      7  C   UNL     1       1.865   3.788  20.835  0.00  0.00    +0.000 A 
ATOM      8 CL   UNL     1       1.364   2.658  22.030  0.00  0.00    +0.000 Cl
ATOM      9  C   UNL     1       2.642   3.368  19.758  0.00  0.00    +0.000 A 
ATOM     10  C   UNL     1       3.063   4.303  18.797  0.00  0.00    +0.000 A 
BRANCH   4  12
ATOM     11  C   UNL     1       2.716   7.883  18.104  0.00  0.00    +0.000 C 
ATOM     12  O   UNL     1       3.100   6.521  17.933  0.00  0.00    +0.000 OA
ENDBRANCH   4  12
ENDBRANCH   1  10
BRANCH   1  13
ATOM     13  N   UNL     1       5.430   4.681  17.485  0.00  0.00    +0.000 N 
ATOM     14  C   UNL     1       6.322   4.502  18.640  0.00  0.00    +0.000 C 
ATOM     15  C   UNL     1       7.690   4.705  17.990  0.00  0.00    +0.000 C 
ATOM     16  N   UNL     1       7.464   5.275  16.640  0.00  0.00    +0.000 NA
ATOM     17  C   UNL     1       6.193   5.150  16.388  0.00  0.00    +0.000 C 
BRANCH  17  18
ATOM     18  C   UNL     1       5.635   5.558  15.050  0.00  0.00    +0.000 C 
BRANCH  18  19
ATOM     19  C   UNL     1       6.084   4.710  13.880  0.00  0.00    +0.000 A 
ATOM     20  C   UNL     1       5.279   3.677  13.373  0.00  0.00    +0.000 A 
ATOM     21  C   UNL     1       5.652   2.984  12.217  0.00  0.00    +0.000 A 
ATOM     22  C   UNL     1       6.828   3.320  11.549  0.00  0.00    +0.000 A 
ATOM     23  C   UNL     1       7.637   4.341  12.041  0.00  0.00    +0.000 A 
ATOM     24  C   UNL     1       7.269   5.029  13.201  0.00  0.00    +0.000 A 
ENDBRANCH  18  19
ENDBRANCH  17  18
ENDBRANCH   1  13
TORSDOF 5
ENDMDL
MODEL 9
REMARK VINA RESULT:      -6.8      1.043      1.480
REMARK  Name = 
REMARK  6 active torsions:
REMARK  status: ('A' for Active; 'I' for Inactive)
REMARK    1  A    between atoms: C_1  and  O_2
REMARK    2  A    between atoms: O_2  and  C_3
REMARK    3  A    between atoms: C_9  and  S_10
REMARK    4  A    between atoms: S_10  and  N_13
REMARK    5  A    between atoms: C_17  and  C_18
REMARK    6  A    between atoms: C_18  and  C_19
REMARK                            x       y       z     vdW  Elec       q    Type
REMARK                         _______ _______ _______ _____ _____    ______ ____
ROOT
ATOM      1  S   UNL     1       4.367   3.307  18.574  0.00  0.00    +0.000 S 
ATOM      2  O   UNL     1       4.440   2.293  17.540  0.00  0.00    +0.000 OA
ATOM      3  O   UNL     1       4.964   3.051  19.867  0.00  0.00    +0.000 OA
ENDROOT
BRANCH   1  10
ATOM      4  C   UNL     1       6.168   5.432  18.589  0.00  0.00    +0.000 A 
ATOM      5  C   UNL     1       6.752   6.564  18.001  0.00  0.00    +0.000 A 
ATOM      6  C   UNL     1       6.294   7.055  16.779  0.00  0.00    +0.000 A 
ATOM      7  C   UNL     1       5.263   6.400  16.114  0.00  0.00    +0.000 A 
ATOM      8 CL   UNL     1       4.708   7.009  14.605  0.00  0.00    +0.000 Cl
ATOM      9  C   UNL     1       4.682   5.260  16.663  0.00  0.00    +0.000 A 
ATOM     10  C   UNL     1       5.128   4.781  17.907  0.00  0.00    +0.000 A 
BRANCH   4  12
ATOM     11  C   UNL     1       7.912   5.258  20.187  0.00  0.00    +0.000 C 
ATOM     12  O   UNL     1       6.587   4.918  19.784  0.00  0.00    +0.000 OA
ENDBRANCH   4  12
ENDBRANCH   1  10
BRANCH   1  13
ATOM     13  N   UNL     1       2.745   3.724  18.725  0.00  0.00    +0.000 N 
ATOM     14  C   UNL     1       1.751   2.716  18.328  0.00  0.00    +0.000 C 
ATOM     15  C   UNL     1       0.652   2.964  19.360  0.00  0.00    +0.000 C 
ATOM     16  N   UNL     1       0.952   4.249  20.034  0.00  0.00    +0.000 NA
ATOM     17  C   UNL     1       2.169   4.571  19.703  0.00  0.00    +0.000 C 
BRANCH  17  18
ATOM     18  C   UNL     1       2.823   5.794  20.289  0.00  0.00    +0.000 C 
BRANCH  18  19
ATOM     19  C   UNL     1       2.338   7.115  19.730  0.00  0.00    +0.000 A 
ATOM     20  C   UNL     1       2.476   7.429  18.369  0.00  0.00    +0.000 A 
ATOM     21  C   UNL     1       1.914   8.598  17.846  0.00  0.00    +0.000 A 
ATOM     22  C   UNL     1       1.201   9.462  18.675  0.00  0.00    +0.000 A 
ATOM     23  C   UNL     1       1.058   9.164  20.027  0.00  0.00    +0.000 A 
ATOM     24  C   UNL     1       1.626   8.000  20.553  0.00  0.00    +0.000 A 
ENDBRANCH  18  19
ENDBRANCH  17  18
ENDBRANCH   1  13
TORSDOF 5
ENDMDL
