MODEL 1
REMARK VINA RESULT:      -7.2      0.000      0.000
REMARK  Name = 
REMARK  8 active torsions:
REMARK  status: ('A' for Active; 'I' for Inactive)
REMARK    1  A    between atoms: C_1  and  C_2
REMARK    2  A    between atoms: C_2  and  C_3
REMARK    3  A    between atoms: C_6  and  N_7
REMARK    4  A    between atoms: C_8  and  C_10
REMARK    5  A    between atoms: C_10  and  N_11
REMARK    6  A    between atoms: C_12  and  C_13
REMARK    7  A    between atoms: C_16  and  C_17
REMARK    8  A    between atoms: C_17  and  C_18
REMARK                            x       y       z     vdW  Elec       q    Type
REMARK                         _______ _______ _______ _____ _____    ______ ____
ROOT
ATOM      1  C   UNL     1       2.601   4.514  19.538  0.00  0.00    +0.000 A 
ATOM      2  C   UNL     1       3.077   3.285  19.049  0.00  0.00    +0.000 A 
ATOM      3  C   UNL     1       3.877   3.212  17.912  0.00  0.00    +0.000 A 
ATOM      4  C   UNL     1       4.229   4.368  17.222  0.00  0.00    +0.000 A 
ATOM      5  C   UNL     1       3.726   5.598  17.676  0.00  0.00    +0.000 A 
ATOM      6  C   UNL     1       2.928   5.698  18.840  0.00  0.00    +0.000 A 
ENDROOT
BRANCH   4   7
ATOM      7  N   UNL     1       5.055   4.359  16.076  0.00  0.00    +0.000 N 
ATOM      8  C   UNL     1       6.417   4.631  16.035  0.00  0.00    +0.000 C 
ATOM      9  O   UNL     1       7.143   4.888  16.994  0.00  0.00    +0.000 OA
ATOM     10  H   UNL     1       4.603   4.143  15.194  0.00  0.00    +0.000 HD
BRANCH   8  11
ATOM     11  C   UNL     1       7.027   4.502  14.641  0.00  0.00    +0.000 C 
BRANCH  11  12
ATOM     12  N   UNL     1       6.209   3.610  13.844  0.00  0.00    +0.000 N 
ATOM     13  C   UNL     1       6.360   3.568  12.480  0.00  0.00    +0.000 C 
ATOM     14  C   UNL     1       5.382   2.672  11.768  0.00  0.00    +0.000 C 
ATOM     15  O   UNL     1       7.233   4.199  11.885  0.00  0.00    +0.000 OA
ATOM     16  H   UNL     1       5.330   3.309  14.249  0.00  0.00    +0.000 HD
ENDBRANCH  11  12
ENDBRANCH   8  11
ENDBRANCH   4   7
BRANCH   1  18
ATOM     17  C   UNL     1       1.432   3.046  21.191  0.00  0.00    +0.000 C 
ATOM     18  C   UNL     1       1.810   4.474  20.825  0.00  0.00    +0.000 C 
ENDBRANCH   1  18
BRANCH   6  19
ATOM     19  C   UNL     1       2.422   7.066  19.254  0.00  0.00    +0.000 C 
ATOM     20  C   UNL     1       2.231   8.046  18.102  0.00  0.00    +0.000 C 
ENDBRANCH   6  19
TORSDOF 5
ENDMDL
MODEL 2
REMARK VINA RESULT:      -7.0      1.386      2.344
REMARK  Name = 
REMARK  8 active torsions:
REMARK  status: ('A' for Active; 'I' for Inactive)
REMARK    1  A    between atoms: C_1  and  C_2
REMARK    2  A    between atoms: C_2  and  C_3
REMARK    3  A    between atoms: C_6  and  N_7
REMARK    4  A    between atoms: C_8  and  C_10
REMARK    5  A    between atoms: C_10  and  N_11
REMARK    6  A    between atoms: C_12  and  C_13
REMARK    7  A    between atoms: C_16  and  C_17
REMARK    8  A    between atoms: C_17  and  C_18
REMARK                            x       y       z     vdW  Elec       q    Type
REMARK                         _______ _______ _______ _____ _____    ______ ____
ROOT
ATOM      1  C   UNL     1       2.668   5.150  19.459  0.00  0.00    +0.000 A 
ATOM      2  C   UNL     1       3.953   5.717  19.497  0.00  0.00    +0.000 A 
ATOM      3  C   UNL     1       4.892   5.465  18.500  0.00  0.00    +0.000 A 
ATOM      4  C   UNL     1       4.578   4.634  17.429  0.00  0.00    +0.000 A 
ATOM      5  C   UNL     1       3.311   4.028  17.401  0.00  0.00    +0.000 A 
ATOM      6  C   UNL     1       2.335   4.286  18.393  0.00  0.00    +0.000 A 
ENDROOT
BRANCH   4   7
ATOM      7  N   UNL     1       5.479   4.358  16.378  0.00  0.00    +0.000 N 
ATOM      8  C   UNL     1       5.843   5.221  15.351  0.00  0.00    +0.000 C 
ATOM      9  O   UNL     1       5.471   6.383  15.204  0.00  0.00    +0.000 OA
ATOM     10  H   UNL     1       5.894   3.432  16.368  0.00  0.00    +0.000 HD
BRANCH   8  11
ATOM     11  C   UNL     1       6.871   4.631  14.388  0.00  0.00    +0.000 C 
BRANCH  11  12
ATOM     12  N   UNL     1       6.257   3.553  13.639  0.00  0.00    +0.000 N 
ATOM     13  C   UNL     1       6.453   3.455  12.283  0.00  0.00    +0.000 C 
ATOM     14  C   UNL     1       5.680   2.348  11.617  0.00  0.00    +0.000 C 
ATOM     15  O   UNL     1       7.209   4.200  11.662  0.00  0.00    +0.000 OA
ATOM     16  H   UNL     1       5.439   3.117  14.048  0.00  0.00    +0.000 HD
ENDBRANCH  11  12
ENDBRANCH   8  11
ENDBRANCH   4   7
BRANCH   1  18
ATOM     17  C   UNL     1       1.641   7.078  20.678  0.00  0.00    +0.000 C 
ATOM     18  C   UNL     1       1.710   5.562  20.553  0.00  0.00    +0.000 C 
ENDBRANCH   1  18
BRANCH   6  19
ATOM     19  C   UNL     1       0.995   3.583  18.288  0.00  0.00    +0.000 C 
ATOM     20  C   UNL     1       0.968   2.179  18.883  0.00  0.00    +0.000 C 
ENDBRANCH   6  19
TORSDOF 5
ENDMDL
MODEL 3
REMARK VINA RESULT:      -7.0      1.471      2.000
REMARK  Name = 
REMARK  8 active torsions:
REMARK  status: ('A' for Active; 'I' for Inactive)
REMARK    1  A    between atoms: C_1  and  C_2
REMARK    2  A    between atoms: C_2  and  C_3
REMARK    3  A    between atoms: C_6  and  N_7
REMARK    4  A    between atoms: C_8  and  C_10
REMARK    5  A    between atoms: C_10  and  N_11
REMARK    6  A    between atoms: C_12  and  C_13
REMARK    7  A    between atoms: C_16  and  C_17
REMARK    8  A    between atoms: C_17  and  C_18
REMARK                            x       y       z     vdW  Elec       q    Type
REMARK                         _______ _______ _______ _____ _____    ______ ____
ROOT
ATOM      1  C   UNL     1       3.135   4.431  19.650  0.00  0.00    +0.000 A 
ATOM      2  C   UNL     1       4.516   4.683  19.729  0.00  0.00    +0.000 A 
ATOM      3  C   UNL     1       5.339   4.593  18.610  0.00  0.00    +0.000 A 
ATOM      4  C   UNL     1       4.811   4.247  17.371  0.00  0.00    +0.000 A 
ATOM      5  C   UNL     1       3.440   3.953  17.287  0.00  0.00    +0.000 A 
ATOM      6  C   UNL     1       2.581   4.058  18.406  0.00  0.00    +0.000 A 
ENDROOT
BRANCH   4   7
ATOM      7  N   UNL     1       5.591   4.162  16.197  0.00  0.00    +0.000 N 
ATOM      8  C   UNL     1       6.242   5.210  15.557  0.00  0.00    +0.000 C 
ATOM      9  O   UNL     1       6.280   6.383  15.924  0.00  0.00    +0.000 OA
ATOM     10  H   UNL     1       5.676   3.243  15.776  0.00  0.00    +0.000 HD
BRANCH   8  11
ATOM     11  C   UNL     1       7.036   4.779  14.326  0.00  0.00    +0.000 C 
BRANCH  11  12
ATOM     12  N   UNL     1       6.333   3.701  13.660  0.00  0.00    +0.000 N 
ATOM     13  C   UNL     1       6.491   3.502  12.310  0.00  0.00    +0.000 C 
ATOM     14  C   UNL     1       5.630   2.411  11.732  0.00  0.00    +0.000 C 
ATOM     15  O   UNL     1       7.284   4.151  11.629  0.00  0.00    +0.000 OA
ATOM     16  H   UNL     1       5.496   3.351  14.111  0.00  0.00    +0.000 HD
ENDBRANCH  11  12
ENDBRANCH   8  11
ENDBRANCH   4   7
BRANCH   1  18
ATOM     17  C   UNL     1       2.248   3.355  21.727  0.00  0.00    +0.000 C 
ATOM     18  C   UNL     1       2.332   4.639  20.913  0.00  0.00    +0.000 C 
ENDBRANCH   1  18
BRANCH   6  19
ATOM     19  C   UNL     1       1.115   3.714  18.226  0.00  0.00    +0.000 C 
ATOM     20  C   UNL     1       0.731   2.312  18.688  0.00  0.00    +0.000 C 
ENDBRANCH   6  19
TORSDOF 5
ENDMDL
MODEL 4
REMARK VINA RESULT:      -6.6      2.520      3.541
REMARK  Name = 
REMARK  8 active torsions:
REMARK  status: ('A' for Active; 'I' for Inactive)
REMARK    1  A    between atoms: C_1  and  C_2
REMARK    2  A    between atoms: C_2  and  C_3
REMARK    3  A    between atoms: C_6  and  N_7
REMARK    4  A    between atoms: C_8  and  C_10
REMARK    5  A    between atoms: C_10  and  N_11
REMARK    6  A    between atoms: C_12  and  C_13
REMARK    7  A    between atoms: C_16  and  C_17
REMARK    8  A    between atoms: C_17  and  C_18
REMARK                            x       y       z     vdW  Elec       q    Type
REMARK                         _______ _______ _______ _____ _____    ______ ____
ROOT
ATOM      1  C   UNL     1       2.197   3.275  19.833  0.00  0.00    +0.000 A 
ATOM      2  C   UNL     1       2.917   2.300  19.122  0.00  0.00    +0.000 A 
ATOM      3  C   UNL     1       4.097   2.609  18.451  0.00  0.00    +0.000 A 
ATOM      4  C   UNL     1       4.599   3.907  18.467  0.00  0.00    +0.000 A 
ATOM      5  C   UNL     1       3.866   4.899  19.139  0.00  0.00    +0.000 A 
ATOM      6  C   UNL     1       2.676   4.604  19.844  0.00  0.00    +0.000 A 
ENDROOT
BRANCH   4   7
ATOM      7  N   UNL     1       5.800   4.276  17.824  0.00  0.00    +0.000 N 
ATOM      8  C   UNL     1       5.919   4.969  16.625  0.00  0.00    +0.000 C 
ATOM      9  O   UNL     1       4.999   5.411  15.939  0.00  0.00    +0.000 OA
ATOM     10  H   UNL     1       6.662   3.997  18.280  0.00  0.00    +0.000 HD
BRANCH   8  11
ATOM     11  C   UNL     1       7.364   5.246  16.215  0.00  0.00    +0.000 C 
BRANCH  11  12
ATOM     12  N   UNL     1       7.651   6.653  16.405  0.00  0.00    +0.000 N 
ATOM     13  C   UNL     1       7.764   7.172  17.672  0.00  0.00    +0.000 C 
ATOM     14  C   UNL     1       7.966   8.662  17.724  0.00  0.00    +0.000 C 
ATOM     15  O   UNL     1       7.719   6.474  18.684  0.00  0.00    +0.000 OA
ATOM     16  H   UNL     1       7.417   7.277  15.640  0.00  0.00    +0.000 HD
ENDBRANCH  11  12
ENDBRANCH   8  11
ENDBRANCH   4   7
BRANCH   1  18
ATOM     17  C   UNL     1       1.336   2.389  22.008  0.00  0.00    +0.000 C 
ATOM     18  C   UNL     1       0.976   2.803  20.589  0.00  0.00    +0.000 C 
ENDBRANCH   1  18
BRANCH   6  19
ATOM     19  C   UNL     1       1.946   5.738  20.536  0.00  0.00    +0.000 C 
ATOM     20  C   UNL     1       2.151   7.107  19.897  0.00  0.00    +0.000 C 
ENDBRANCH   6  19
TORSDOF 5
ENDMDL
MODEL 5
REMARK VINA RESULT:      -6.5      0.971      2.505
REMARK  Name = 
REMARK  8 active torsions:
REMARK  status: ('A' for Active; 'I' for Inactive)
REMARK    1  A    between atoms: C_1  and  C_2
REMARK    2  A    between atoms: C_2  and  C_3
REMARK    3  A    between atoms: C_6  and  N_7
REMARK    4  A    between atoms: C_8  and  C_10
REMARK    5  A    between atoms: C_10  and  N_11
REMARK    6  A    between atoms: C_12  and  C_13
REMARK    7  A    between atoms: C_16  and  C_17
REMARK    8  A    between atoms: C_17  and  C_18
REMARK                            x       y       z     vdW  Elec       q    Type
REMARK                         _______ _______ _______ _____ _____    ______ ____
ROOT
ATOM      1  C   UNL     1       2.813   5.790  19.348  0.00  0.00    +0.000 A 
ATOM      2  C   UNL     1       3.220   6.847  18.516  0.00  0.00    +0.000 A 
ATOM      3  C   UNL     1       4.015   6.628  17.394  0.00  0.00    +0.000 A 
ATOM      4  C   UNL     1       4.433   5.343  17.065  0.00  0.00    +0.000 A 
ATOM      5  C   UNL     1       4.068   4.283  17.912  0.00  0.00    +0.000 A 
ATOM      6  C   UNL     1       3.244   4.480  19.046  0.00  0.00    +0.000 A 
ENDROOT
BRANCH   4   7
ATOM      7  N   UNL     1       5.222   5.056  15.930  0.00  0.00    +0.000 N 
ATOM      8  C   UNL     1       6.597   5.223  15.813  0.00  0.00    +0.000 C 
ATOM      9  O   UNL     1       7.365   5.614  16.690  0.00  0.00    +0.000 OA
ATOM     10  H   UNL     1       4.731   4.702  15.115  0.00  0.00    +0.000 HD
BRANCH   8  11
ATOM     11  C   UNL     1       7.156   4.785  14.461  0.00  0.00    +0.000 C 
BRANCH  11  12
ATOM     12  N   UNL     1       6.176   3.956  13.788  0.00  0.00    +0.000 N 
ATOM     13  C   UNL     1       6.295   3.699  12.444  0.00  0.00    +0.000 C 
ATOM     14  C   UNL     1       5.159   2.907  11.854  0.00  0.00    +0.000 C 
ATOM     15  O   UNL     1       7.259   4.072  11.776  0.00  0.00    +0.000 OA
ATOM     16  H   UNL     1       5.263   3.879  14.221  0.00  0.00    +0.000 HD
ENDBRANCH  11  12
ENDBRANCH   8  11
ENDBRANCH   4   7
BRANCH   1  18
ATOM     17  C   UNL     1       1.660   7.643  20.570  0.00  0.00    +0.000 C 
ATOM     18  C   UNL     1       1.885   6.140  20.489  0.00  0.00    +0.000 C 
ENDBRANCH   1  18
BRANCH   6  19
ATOM     19  C   UNL     1       2.905   3.280  19.909  0.00  0.00    +0.000 C 
ATOM     20  C   UNL     1       4.080   2.350  20.192  0.00  0.00    +0.000 C 
ENDBRANCH   6  19
TORSDOF 5
ENDMDL
MODEL 6
REMARK VINA RESULT:      -6.5      3.251      6.682
REMARK  Name = 
REMARK  8 active torsions:
REMARK  status: ('A' for Active; 'I' for Inactive)
REMARK    1  A    between atoms: C_1  and  C_2
REMARK    2  A    between atoms: C_2  and  C_3
REMARK    3  A    between atoms: C_6  and  N_7
REMARK    4  A    between atoms: C_8  and  C_10
REMARK    5  A    between atoms: C_10  and  N_11
REMARK    6  A    between atoms: C_12  and  C_13
REMARK    7  A    between atoms: C_16  and  C_17
REMARK    8  A    between atoms: C_17  and  C_18
REMARK                            x       y       z     vdW  Elec       q    Type
REMARK                         _______ _______ _______ _____ _____    ______ ____
ROOT
ATOM      1  C   UNL     1       6.141   5.001  15.894  0.00  0.00    +0.000 A 
ATOM      2  C   UNL     1       4.958   4.242  15.918  0.00  0.00    +0.000 A 
ATOM      3  C   UNL     1       4.062   4.320  16.981  0.00  0.00    +0.000 A 
ATOM      4  C   UNL     1       4.319   5.160  18.060  0.00  0.00    +0.000 A 
ATOM      5  C   UNL     1       5.517   5.893  18.068  0.00  0.00    +0.000 A 
ATOM      6  C   UNL     1       6.432   5.844  16.989  0.00  0.00    +0.000 A 
ENDROOT
BRANCH   4   7
ATOM      7  N   UNL     1       3.438   5.298  19.155  0.00  0.00    +0.000 N 
ATOM      8  C   UNL     1       2.635   6.397  19.439  0.00  0.00    +0.000 C 
ATOM      9  O   UNL     1       2.528   7.420  18.766  0.00  0.00    +0.000 OA
ATOM     10  H   UNL     1       3.397   4.519  19.804  0.00  0.00    +0.000 HD
BRANCH   8  11
ATOM     11  C   UNL     1       1.767   6.218  20.683  0.00  0.00    +0.000 C 
BRANCH  11  12
ATOM     12  N   UNL     1       2.092   4.953  21.312  0.00  0.00    +0.000 N 
ATOM     13  C   UNL     1       1.435   3.806  20.939  0.00  0.00    +0.000 C 
ATOM     14  C   UNL     1       1.801   2.585  21.739  0.00  0.00    +0.000 C 
ATOM     15  O   UNL     1       0.623   3.774  20.015  0.00  0.00    +0.000 OA
ATOM     16  H   UNL     1       2.524   4.993  22.228  0.00  0.00    +0.000 HD
ENDBRANCH  11  12
ENDBRANCH   8  11
ENDBRANCH   4   7
BRANCH   1  18
ATOM     17  C   UNL     1       6.361   3.955  13.633  0.00  0.00    +0.000 C 
ATOM     18  C   UNL     1       6.994   4.893  14.651  0.00  0.00    +0.000 C 
ENDBRANCH   1  18
BRANCH   6  19
ATOM     19  C   UNL     1       7.705   6.662  17.085  0.00  0.00    +0.000 C 
ATOM     20  C   UNL     1       7.504   8.096  17.562  0.00  0.00    +0.000 C 
ENDBRANCH   6  19
TORSDOF 5
ENDMDL
MODEL 7
REMARK VINA RESULT:      -6.4      5.308      8.486
REMARK  Name = 
REMARK  8 active torsions:
REMARK  status: ('A' for Active; 'I' for Inactive)
REMARK    1  A    between atoms: C_1  and  C_2
REMARK    2  A    between atoms: C_2  and  C_3
REMARK    3  A    between atoms: C_6  and  N_7
REMARK    4  A    between atoms: C_8  and  C_10
REMARK    5  A    between atoms: C_10  and  N_11
REMARK    6  A    between atoms: C_12  and  C_13
REMARK    7  A    between atoms: C_16  and  C_17
REMARK    8  A    between atoms: C_17  and  C_18
REMARK                            x       y       z     vdW  Elec       q    Type
REMARK                         _______ _______ _______ _____ _____    ______ ____
ROOT
ATOM      1  C   UNL     1       2.134   4.259  18.414  0.00  0.00    +0.000 A 
ATOM      2  C   UNL     1       2.541   5.497  17.889  0.00  0.00    +0.000 A 
ATOM      3  C   UNL     1       2.499   6.663  18.650  0.00  0.00    +0.000 A 
ATOM      4  C   UNL     1       2.047   6.631  19.965  0.00  0.00    +0.000 A 
ATOM      5  C   UNL     1       1.598   5.407  20.489  0.00  0.00    +0.000 A 
ATOM      6  C   UNL     1       1.651   4.207  19.740  0.00  0.00    +0.000 A 
ENDROOT
BRANCH   4   7
ATOM      7  N   UNL     1       2.002   7.774  20.792  0.00  0.00    +0.000 N 
ATOM      8  C   UNL     1       0.866   8.349  21.349  0.00  0.00    +0.000 C 
ATOM      9  O   UNL     1      -0.289   7.939  21.247  0.00  0.00    +0.000 OA
ATOM     10  H   UNL     1       2.889   8.225  20.990  0.00  0.00    +0.000 HD
BRANCH   8  11
ATOM     11  C   UNL     1       1.159   9.562  22.229  0.00  0.00    +0.000 C 
BRANCH  11  12
ATOM     12  N   UNL     1       0.490  10.723  21.677  0.00  0.00    +0.000 N 
ATOM     13  C   UNL     1      -0.577  11.284  22.335  0.00  0.00    +0.000 C 
ATOM     14  C   UNL     1      -1.237  12.422  21.603  0.00  0.00    +0.000 C 
ATOM     15  O   UNL     1      -0.955  10.900  23.441  0.00  0.00    +0.000 OA
ATOM     16  H   UNL     1       0.585  10.877  20.680  0.00  0.00    +0.000 HD
ENDBRANCH  11  12
ENDBRANCH   8  11
ENDBRANCH   4   7
BRANCH   1  18
ATOM     17  C   UNL     1       3.563   2.278  17.877  0.00  0.00    +0.000 C 
ATOM     18  C   UNL     1       2.302   3.052  17.520  0.00  0.00    +0.000 C 
ENDBRANCH   1  18
BRANCH   6  19
ATOM     19  C   UNL     1       1.139   2.932  20.382  0.00  0.00    +0.000 C 
ATOM     20  C   UNL     1       1.749   2.619  21.744  0.00  0.00    +0.000 C 
ENDBRANCH   6  19
TORSDOF 5
ENDMDL
MODEL 8
REMARK VINA RESULT:      -6.3      1.697      1.969
REMARK  Name = 
REMARK  8 active torsions:
REMARK  status: ('A' for Active; 'I' for Inactive)
REMARK    1  A    between atoms: C_1  and  C_2
REMARK    2  A    between atoms: C_2  and  C_3
REMARK    3  A    between atoms: C_6  and  N_7
REMARK    4  A    between atoms: C_8  and  C_10
REMARK    5  A    between atoms: C_10  and  N_11
REMARK    6  A    between atoms: C_12  and  C_13
REMARK    7  A    between atoms: C_16  and  C_17
REMARK    8  A    between atoms: C_17  and  C_18
REMARK                            x       y       z     vdW  Elec       q    Type
REMARK                         _______ _______ _______ _____ _____    ______ ____
ROOT
ATOM      1  C   UNL     1       1.984   4.220  19.971  0.00  0.00    +0.000 A 
ATOM      2  C   UNL     1       2.699   3.354  19.126  0.00  0.00    +0.000 A 
ATOM      3  C   UNL     1       3.745   3.810  18.328  0.00  0.00    +0.000 A 
ATOM      4  C   UNL     1       4.112   5.152  18.345  0.00  0.00    +0.000 A 
ATOM      5  C   UNL     1       3.378   6.036  19.154  0.00  0.00    +0.000 A 
ATOM      6  C   UNL     1       2.326   5.590  19.988  0.00  0.00    +0.000 A 
ENDROOT
BRANCH   4   7
ATOM      7  N   UNL     1       5.176   5.670  17.575  0.00  0.00    +0.000 N 
ATOM      8  C   UNL     1       6.524   5.362  17.713  0.00  0.00    +0.000 C 
ATOM      9  O   UNL     1       7.016   4.559  18.504  0.00  0.00    +0.000 OA
ATOM     10  H   UNL     1       4.930   6.342  16.856  0.00  0.00    +0.000 HD
BRANCH   8  11
ATOM     11  C   UNL     1       7.422   6.066  16.698  0.00  0.00    +0.000 C 
BRANCH  11  12
ATOM     12  N   UNL     1       7.547   5.235  15.517  0.00  0.00    +0.000 N 
ATOM     13  C   UNL     1       6.519   5.167  14.608  0.00  0.00    +0.000 C 
ATOM     14  C   UNL     1       6.743   4.194  13.481  0.00  0.00    +0.000 C 
ATOM     15  O   UNL     1       5.504   5.855  14.697  0.00  0.00    +0.000 OA
ATOM     16  H   UNL     1       8.213   4.473  15.560  0.00  0.00    +0.000 HD
ENDBRANCH  11  12
ENDBRANCH   8  11
ENDBRANCH   4   7
BRANCH   1  18
ATOM     17  C   UNL     1       1.522   2.509  21.735  0.00  0.00    +0.000 C 
ATOM     18  C   UNL     1       0.926   3.594  20.849  0.00  0.00    +0.000 C 
ENDBRANCH   1  18
BRANCH   6  19
ATOM     19  C   UNL     1       1.582   6.615  20.823  0.00  0.00    +0.000 C 
ATOM     20  C   UNL     1       1.689   8.047  20.312  0.00  0.00    +0.000 C 
ENDBRANCH   6  19
TORSDOF 5
ENDMDL
MODEL 9
REMARK VINA RESULT:      -6.3      1.276      2.648
REMARK  Name = 
REMARK  8 active torsions:
REMARK  status: ('A' for Active; 'I' for Inactive)
REMARK    1  A    between atoms: C_1  and  C_2
REMARK    2  A    between atoms: C_2  and  C_3
REMARK    3  A    between atoms: C_6  and  N_7
REMARK    4  A    between atoms: C_8  and  C_10
REMARK    5  A    between atoms: C_10  and  N_11
REMARK    6  A    between atoms: C_12  and  C_13
REMARK    7  A    between atoms: C_16  and  C_17
REMARK    8  A    between atoms: C_17  and  C_18
REMARK                            x       y       z     vdW  Elec       q    Type
REMARK                         _______ _______ _______ _____ _____    ______ ____
ROOT
ATOM      1  C   UNL     1       3.285   4.800  19.258  0.00  0.00    +0.000 A 
ATOM      2  C   UNL     1       3.587   5.922  18.467  0.00  0.00    +0.000 A 
ATOM      3  C   UNL     1       4.191   5.794  17.220  0.00  0.00    +0.000 A 
ATOM      4  C   UNL     1       4.517   4.538  16.718  0.00  0.00    +0.000 A 
ATOM      5  C   UNL     1       4.258   3.411  17.516  0.00  0.00    +0.000 A 
ATOM      6  C   UNL     1       3.626   3.516  18.778  0.00  0.00    +0.000 A 
ENDROOT
BRANCH   4   7
ATOM      7  N   UNL     1       5.111   4.344  15.452  0.00  0.00    +0.000 N 
ATOM      8  C   UNL     1       6.465   4.437  15.150  0.00  0.00    +0.000 C 
ATOM      9  O   UNL     1       7.379   4.668  15.940  0.00  0.00    +0.000 OA
ATOM     10  H   UNL     1       4.484   4.125  14.686  0.00  0.00    +0.000 HD
BRANCH   8  11
ATOM     11  C   UNL     1       6.790   4.134  13.689  0.00  0.00    +0.000 C 
BRANCH  11  12
ATOM     12  N   UNL     1       5.555   4.046  12.935  0.00  0.00    +0.000 N 
ATOM     13  C   UNL     1       5.409   3.093  11.957  0.00  0.00    +0.000 C 
ATOM     14  C   UNL     1       4.117   3.177  11.188  0.00  0.00    +0.000 C 
ATOM     15  O   UNL     1       6.257   2.231  11.734  0.00  0.00    +0.000 OA
ATOM     16  H   UNL     1       4.980   4.880  12.895  0.00  0.00    +0.000 HD
ENDBRANCH  11  12
ENDBRANCH   8  11
ENDBRANCH   4   7
BRANCH   1  18
ATOM     17  C   UNL     1       1.852   6.409  20.530  0.00  0.00    +0.000 C 
ATOM     18  C   UNL     1       2.555   5.058  20.556  0.00  0.00    +0.000 C 
ENDBRANCH   1  18
BRANCH   6  19
ATOM     19  C   UNL     1       3.392   2.248  19.576  0.00  0.00    +0.000 C 
ATOM     20  C   UNL     1       4.556   1.837  20.471  0.00  0.00    +0.000 C 
ENDBRANCH   6  19
TORSDOF 5
ENDMDL
