MODEL 1
REMARK VINA RESULT:      -8.4      0.000      0.000
REMARK  Name = 
REMARK  3 active torsions:
REMARK  status: ('A' for Active; 'I' for Inactive)
REMARK    1  A    between atoms: C_1  and  O_2
REMARK    2  A    between atoms: O_2  and  C_3
REMARK    3  A    between atoms: C_17  and  C_19
REMARK                            x       y       z     vdW  Elec       q    Type
REMARK                         _______ _______ _______ _____ _____    ______ ____
ROOT
ATOM      1  C   UNL     1       3.237   3.814  19.026  0.00  0.00    +0.000 A 
ATOM      2  C   UNL     1       3.895   3.569  17.821  0.00  0.00    +0.000 A 
ATOM      3  C   UNL     1       4.168   4.621  16.961  0.00  0.00    +0.000 A 
ATOM      4  C   UNL     1       3.797   5.919  17.309  0.00  0.00    +0.000 A 
ATOM      5  C   UNL     1       3.091   6.198  18.498  0.00  0.00    +0.000 A 
ATOM      6  C   UNL     1       2.784   5.117  19.340  0.00  0.00    +0.000 A 
ATOM      7  C   UNL     1       2.045   5.332  20.622  0.00  0.00    +0.000 C 
ATOM      8  C   UNL     1       1.201   6.589  20.647  0.00  0.00    +0.000 C 
ATOM      9  C   UNL     1       1.900   7.873  20.173  0.00  0.00    +0.000 C 
ATOM     10  C   UNL     1       2.741   7.647  18.858  0.00  0.00    +0.000 C 
ATOM     11  C   UNL     1       2.136   8.368  17.642  0.00  0.00    +0.000 C 
ATOM     12  C   UNL     1       1.888   9.837  17.883  0.00  0.00    +0.000 C 
ATOM     13  C   UNL     1       1.390  10.176  19.271  0.00  0.00    +0.000 C 
ATOM     14  N   UNL     1       0.976   9.068  20.122  0.00  0.00    +0.000 N 
ATOM     15  C   UNL     1       0.036   9.265  21.177  0.00  0.00    +0.000 C 
ATOM     16  O   UNL     1      -0.270   8.393  21.990  0.00  0.00    +0.000 OA
ENDROOT
BRANCH  15  17
ATOM     17  C   UNL     1      -0.717  10.541  21.371  0.00  0.00    +0.000 A 
ATOM     18  C   UNL     1      -0.766  11.062  22.681  0.00  0.00    +0.000 A 
ATOM     19  C   UNL     1      -1.473  12.236  22.980  0.00  0.00    +0.000 A 
ATOM     20  C   UNL     1      -2.211  12.838  21.955  0.00  0.00    +0.000 A 
ATOM     21  N   UNL     1      -3.095  13.886  22.000  0.00  0.00    +0.000 NA
ATOM     22  C   UNL     1      -3.574  13.986  20.780  0.00  0.00    +0.000 A 
ATOM     23  N   UNL     1      -2.964  13.113  19.925  0.00  0.00    +0.000 N 
ATOM     24  C   UNL     1      -2.104  12.338  20.661  0.00  0.00    +0.000 A 
ATOM     25  C   UNL     1      -1.289  11.263  20.316  0.00  0.00    +0.000 A 
ATOM     26  H   UNL     1      -3.187  12.983  18.950  0.00  0.00    +0.000 HD
ENDBRANCH  15  17
BRANCH   1  28
ATOM     27  C   UNL     1       4.132   2.168  20.458  0.00  0.00    +0.000 C 
ATOM     28  O   UNL     1       2.976   2.823  19.940  0.00  0.00    +0.000 OA
ENDBRANCH   1  28
TORSDOF 2
ENDMDL
MODEL 2
REMARK VINA RESULT:      -8.1      0.843      1.446
REMARK  Name = 
REMARK  3 active torsions:
REMARK  status: ('A' for Active; 'I' for Inactive)
REMARK    1  A    between atoms: C_1  and  O_2
REMARK    2  A    between atoms: O_2  and  C_3
REMARK    3  A    between atoms: C_17  and  C_19
REMARK                            x       y       z     vdW  Elec       q    Type
REMARK                         _______ _______ _______ _____ _____    ______ ____
ROOT
ATOM      1  C   UNL     1       3.019   3.855  19.095  0.00  0.00    +0.000 A 
ATOM      2  C   UNL     1       3.689   3.583  17.903  0.00  0.00    +0.000 A 
ATOM      3  C   UNL     1       4.021   4.623  17.049  0.00  0.00    +0.000 A 
ATOM      4  C   UNL     1       3.698   5.935  17.391  0.00  0.00    +0.000 A 
ATOM      5  C   UNL     1       2.981   6.243  18.566  0.00  0.00    +0.000 A 
ATOM      6  C   UNL     1       2.614   5.175  19.402  0.00  0.00    +0.000 A 
ATOM      7  C   UNL     1       1.860   5.421  20.670  0.00  0.00    +0.000 C 
ATOM      8  C   UNL     1       1.068   6.712  20.679  0.00  0.00    +0.000 C 
ATOM      9  C   UNL     1       1.828   7.966  20.220  0.00  0.00    +0.000 C 
ATOM     10  C   UNL     1       2.684   7.705  18.920  0.00  0.00    +0.000 C 
ATOM     11  C   UNL     1       2.133   8.451  17.694  0.00  0.00    +0.000 C 
ATOM     12  C   UNL     1       1.941   9.929  17.932  0.00  0.00    +0.000 C 
ATOM     13  C   UNL     1       1.431  10.288  19.310  0.00  0.00    +0.000 C 
ATOM     14  N   UNL     1       0.956   9.198  20.152  0.00  0.00    +0.000 N 
ATOM     15  C   UNL     1       0.004   9.433  21.189  0.00  0.00    +0.000 C 
ATOM     16  O   UNL     1      -0.352   8.575  21.996  0.00  0.00    +0.000 OA
ENDROOT
BRANCH  15  17
ATOM     17  C   UNL     1      -0.699  10.740  21.370  0.00  0.00    +0.000 A 
ATOM     18  C   UNL     1      -1.400  11.248  20.256  0.00  0.00    +0.000 A 
ATOM     19  C   UNL     1      -2.067  12.481  20.306  0.00  0.00    +0.000 A 
ATOM     20  C   UNL     1      -1.946  13.246  21.472  0.00  0.00    +0.000 A 
ATOM     21  N   UNL     1      -2.359  14.527  21.735  0.00  0.00    +0.000 NA
ATOM     22  C   UNL     1      -1.915  14.792  22.943  0.00  0.00    +0.000 A 
ATOM     23  N   UNL     1      -1.320  13.703  23.512  0.00  0.00    +0.000 N 
ATOM     24  C   UNL     1      -1.296  12.701  22.574  0.00  0.00    +0.000 A 
ATOM     25  C   UNL     1      -0.756  11.417  22.594  0.00  0.00    +0.000 A 
ATOM     26  H   UNL     1      -0.875  13.673  24.417  0.00  0.00    +0.000 HD
ENDBRANCH  15  17
BRANCH   1  28
ATOM     27  C   UNL     1       1.742   1.925  19.546  0.00  0.00    +0.000 C 
ATOM     28  O   UNL     1       2.700   2.876  20.004  0.00  0.00    +0.000 OA
ENDBRANCH   1  28
TORSDOF 2
ENDMDL
MODEL 3
REMARK VINA RESULT:      -8.1      2.471      9.064
REMARK  Name = 
REMARK  3 active torsions:
REMARK  status: ('A' for Active; 'I' for Inactive)
REMARK    1  A    between atoms: C_1  and  O_2
REMARK    2  A    between atoms: O_2  and  C_3
REMARK    3  A    between atoms: C_17  and  C_19
REMARK                            x       y       z     vdW  Elec       q    Type
REMARK                         _______ _______ _______ _____ _____    ______ ____
ROOT
ATOM      1  C   UNL     1      -3.981  13.440  21.534  0.00  0.00    +0.000 A 
ATOM      2  C   UNL     1      -4.518  13.599  22.810  0.00  0.00    +0.000 A 
ATOM      3  C   UNL     1      -3.877  13.033  23.901  0.00  0.00    +0.000 A 
ATOM      4  C   UNL     1      -2.693  12.321  23.720  0.00  0.00    +0.000 A 
ATOM      5  C   UNL     1      -2.144  12.102  22.440  0.00  0.00    +0.000 A 
ATOM      6  C   UNL     1      -2.827  12.646  21.339  0.00  0.00    +0.000 A 
ATOM      7  C   UNL     1      -2.305  12.463  19.949  0.00  0.00    +0.000 C 
ATOM      8  C   UNL     1      -1.408  11.255  19.778  0.00  0.00    +0.000 C 
ATOM      9  C   UNL     1      -0.298  11.091  20.827  0.00  0.00    +0.000 C 
ATOM     10  C   UNL     1      -0.817  11.347  22.294  0.00  0.00    +0.000 C 
ATOM     11  C   UNL     1      -0.836  10.065  23.143  0.00  0.00    +0.000 C 
ATOM     12  C   UNL     1       0.486   9.337  23.153  0.00  0.00    +0.000 C 
ATOM     13  C   UNL     1       1.222   9.342  21.832  0.00  0.00    +0.000 C 
ATOM     14  N   UNL     1       0.492   9.813  20.662  0.00  0.00    +0.000 N 
ATOM     15  C   UNL     1       0.854   9.385  19.350  0.00  0.00    +0.000 C 
ATOM     16  O   UNL     1       0.343   9.829  18.322  0.00  0.00    +0.000 OA
ENDROOT
BRANCH  15  17
ATOM     17  C   UNL     1       1.859   8.309  19.091  0.00  0.00    +0.000 A 
ATOM     18  C   UNL     1       2.603   8.403  17.896  0.00  0.00    +0.000 A 
ATOM     19  C   UNL     1       3.548   7.431  17.539  0.00  0.00    +0.000 A 
ATOM     20  C   UNL     1       3.675   6.305  18.361  0.00  0.00    +0.000 A 
ATOM     21  N   UNL     1       4.397   5.153  18.178  0.00  0.00    +0.000 NA
ATOM     22  C   UNL     1       4.093   4.388  19.203  0.00  0.00    +0.000 A 
ATOM     23  N   UNL     1       3.283   5.034  20.092  0.00  0.00    +0.000 N 
ATOM     24  C   UNL     1       2.971   6.260  19.560  0.00  0.00    +0.000 A 
ATOM     25  C   UNL     1       2.141   7.287  20.005  0.00  0.00    +0.000 A 
ATOM     26  H   UNL     1       2.892   4.641  20.935  0.00  0.00    +0.000 HD
ENDBRANCH  15  17
BRANCH   1  28
ATOM     27  C   UNL     1      -5.928  13.729  20.236  0.00  0.00    +0.000 C 
ATOM     28  O   UNL     1      -4.542  14.012  20.419  0.00  0.00    +0.000 OA
ENDBRANCH   1  28
TORSDOF 2
ENDMDL
MODEL 4
REMARK VINA RESULT:      -8.0      2.072      3.432
REMARK  Name = 
REMARK  3 active torsions:
REMARK  status: ('A' for Active; 'I' for Inactive)
REMARK    1  A    between atoms: C_1  and  O_2
REMARK    2  A    between atoms: O_2  and  C_3
REMARK    3  A    between atoms: C_17  and  C_19
REMARK                            x       y       z     vdW  Elec       q    Type
REMARK                         _______ _______ _______ _____ _____    ______ ____
ROOT
ATOM      1  C   UNL     1       2.214   6.841  19.734  0.00  0.00    +0.000 A 
ATOM      2  C   UNL     1       2.654   6.690  18.421  0.00  0.00    +0.000 A 
ATOM      3  C   UNL     1       2.536   7.745  17.530  0.00  0.00    +0.000 A 
ATOM      4  C   UNL     1       1.992   8.956  17.954  0.00  0.00    +0.000 A 
ATOM      5  C   UNL     1       1.496   9.132  19.263  0.00  0.00    +0.000 A 
ATOM      6  C   UNL     1       1.583   8.040  20.142  0.00  0.00    +0.000 A 
ATOM      7  C   UNL     1       1.086   8.149  21.549  0.00  0.00    +0.000 C 
ATOM      8  C   UNL     1       0.032   9.217  21.751  0.00  0.00    +0.000 C 
ATOM      9  C   UNL     1       0.353  10.597  21.155  0.00  0.00    +0.000 C 
ATOM     10  C   UNL     1       0.944  10.495  19.696  0.00  0.00    +0.000 C 
ATOM     11  C   UNL     1      -0.021  11.043  18.632  0.00  0.00    +0.000 C 
ATOM     12  C   UNL     1      -0.503  12.443  18.928  0.00  0.00    +0.000 C 
ATOM     13  C   UNL     1      -0.772  12.724  20.390  0.00  0.00    +0.000 C 
ATOM     14  N   UNL     1      -0.780  11.585  21.300  0.00  0.00    +0.000 N 
ATOM     15  C   UNL     1      -1.512  11.629  22.523  0.00  0.00    +0.000 C 
ATOM     16  O   UNL     1      -1.471  10.742  23.376  0.00  0.00    +0.000 OA
ENDROOT
BRANCH  15  17
ATOM     17  C   UNL     1      -2.449  12.740  22.874  0.00  0.00    +0.000 A 
ATOM     18  C   UNL     1      -1.911  13.829  23.591  0.00  0.00    +0.000 A 
ATOM     19  C   UNL     1      -2.709  14.907  23.999  0.00  0.00    +0.000 A 
ATOM     20  C   UNL     1      -4.085  14.837  23.753  0.00  0.00    +0.000 A 
ATOM     21  N   UNL     1      -5.100  15.662  24.166  0.00  0.00    +0.000 NA
ATOM     22  C   UNL     1      -6.204  15.093  23.736  0.00  0.00    +0.000 A 
ATOM     23  N   UNL     1      -5.940  13.989  22.977  0.00  0.00    +0.000 N 
ATOM     24  C   UNL     1      -4.584  13.782  22.997  0.00  0.00    +0.000 A 
ATOM     25  C   UNL     1      -3.785  12.777  22.455  0.00  0.00    +0.000 A 
ATOM     26  H   UNL     1      -6.624  13.371  22.568  0.00  0.00    +0.000 HD
ENDBRANCH  15  17
BRANCH   1  28
ATOM     27  C   UNL     1       1.619   4.655  20.388  0.00  0.00    +0.000 C 
ATOM     28  O   UNL     1       2.342   5.850  20.676  0.00  0.00    +0.000 OA
ENDBRANCH   1  28
TORSDOF 2
ENDMDL
MODEL 5
REMARK VINA RESULT:      -8.0      2.167      3.825
REMARK  Name = 
REMARK  3 active torsions:
REMARK  status: ('A' for Active; 'I' for Inactive)
REMARK    1  A    between atoms: C_1  and  O_2
REMARK    2  A    between atoms: O_2  and  C_3
REMARK    3  A    between atoms: C_17  and  C_19
REMARK                            x       y       z     vdW  Elec       q    Type
REMARK                         _______ _______ _______ _____ _____    ______ ____
ROOT
ATOM      1  C   UNL     1       2.191   7.172  19.642  0.00  0.00    +0.000 A 
ATOM      2  C   UNL     1       2.632   7.098  18.322  0.00  0.00    +0.000 A 
ATOM      3  C   UNL     1       2.465   8.186  17.479  0.00  0.00    +0.000 A 
ATOM      4  C   UNL     1       1.871   9.352  17.958  0.00  0.00    +0.000 A 
ATOM      5  C   UNL     1       1.372   9.448  19.274  0.00  0.00    +0.000 A 
ATOM      6  C   UNL     1       1.511   8.323  20.104  0.00  0.00    +0.000 A 
ATOM      7  C   UNL     1       1.015   8.348  21.515  0.00  0.00    +0.000 C 
ATOM      8  C   UNL     1      -0.084   9.360  21.767  0.00  0.00    +0.000 C 
ATOM      9  C   UNL     1       0.175  10.777  21.232  0.00  0.00    +0.000 C 
ATOM     10  C   UNL     1       0.763  10.766  19.768  0.00  0.00    +0.000 C 
ATOM     11  C   UNL     1      -0.229  11.317  18.731  0.00  0.00    +0.000 C 
ATOM     12  C   UNL     1      -0.770  12.680  19.090  0.00  0.00    +0.000 C 
ATOM     13  C   UNL     1      -1.045  12.885  20.563  0.00  0.00    +0.000 C 
ATOM     14  N   UNL     1      -1.000  11.708  21.422  0.00  0.00    +0.000 N 
ATOM     15  C   UNL     1      -1.728  11.666  22.648  0.00  0.00    +0.000 C 
ATOM     16  O   UNL     1      -1.645  10.745  23.460  0.00  0.00    +0.000 OA
ENDROOT
BRANCH  15  17
ATOM     17  C   UNL     1      -2.711  12.718  23.049  0.00  0.00    +0.000 A 
ATOM     18  C   UNL     1      -4.002  12.635  22.486  0.00  0.00    +0.000 A 
ATOM     19  C   UNL     1      -4.991  13.588  22.769  0.00  0.00    +0.000 A 
ATOM     20  C   UNL     1      -4.637  14.686  23.562  0.00  0.00    +0.000 A 
ATOM     21  N   UNL     1      -5.346  15.820  23.868  0.00  0.00    +0.000 NA
ATOM     22  C   UNL     1      -4.519  16.565  24.568  0.00  0.00    +0.000 A 
ATOM     23  N   UNL     1      -3.342  15.919  24.813  0.00  0.00    +0.000 N 
ATOM     24  C   UNL     1      -3.377  14.718  24.150  0.00  0.00    +0.000 A 
ATOM     25  C   UNL     1      -2.432  13.705  24.002  0.00  0.00    +0.000 A 
ATOM     26  H   UNL     1      -2.544  16.300  25.299  0.00  0.00    +0.000 HD
ENDBRANCH  15  17
BRANCH   1  28
ATOM     27  C   UNL     1       1.971   4.863  20.062  0.00  0.00    +0.000 C 
ATOM     28  O   UNL     1       2.366   6.147  20.539  0.00  0.00    +0.000 OA
ENDBRANCH   1  28
TORSDOF 2
ENDMDL
MODEL 6
REMARK VINA RESULT:      -7.8      2.856      9.000
REMARK  Name = 
REMARK  3 active torsions:
REMARK  status: ('A' for Active; 'I' for Inactive)
REMARK    1  A    between atoms: C_1  and  O_2
REMARK    2  A    between atoms: O_2  and  C_3
REMARK    3  A    between atoms: C_17  and  C_19
REMARK                            x       y       z     vdW  Elec       q    Type
REMARK                         _______ _______ _______ _____ _____    ______ ____
ROOT
ATOM      1  C   UNL     1      -1.639  13.427  20.924  0.00  0.00    +0.000 A 
ATOM      2  C   UNL     1      -2.454  13.432  22.055  0.00  0.00    +0.000 A 
ATOM      3  C   UNL     1      -2.368  12.392  22.968  0.00  0.00    +0.000 A 
ATOM      4  C   UNL     1      -1.461  11.356  22.759  0.00  0.00    +0.000 A 
ATOM      5  C   UNL     1      -0.653  11.295  21.604  0.00  0.00    +0.000 A 
ATOM      6  C   UNL     1      -0.780  12.334  20.667  0.00  0.00    +0.000 A 
ATOM      7  C   UNL     1       0.047  12.345  19.421  0.00  0.00    +0.000 C 
ATOM      8  C   UNL     1       0.539  10.979  18.992  0.00  0.00    +0.000 C 
ATOM      9  C   UNL     1       1.185  10.124  20.093  0.00  0.00    +0.000 C 
ATOM     10  C   UNL     1       0.360  10.156  21.438  0.00  0.00    +0.000 C 
ATOM     11  C   UNL     1      -0.299   8.803  21.755  0.00  0.00    +0.000 C 
ATOM     12  C   UNL     1       0.673   7.649  21.740  0.00  0.00    +0.000 C 
ATOM     13  C   UNL     1       1.730   7.724  20.661  0.00  0.00    +0.000 C 
ATOM     14  N   UNL     1       1.559   8.736  19.626  0.00  0.00    +0.000 N 
ATOM     15  C   UNL     1       2.142   8.571  18.335  0.00  0.00    +0.000 C 
ATOM     16  O   UNL     1       2.119   9.436  17.460  0.00  0.00    +0.000 OA
ENDROOT
BRANCH  15  17
ATOM     17  C   UNL     1       2.799   7.304  17.893  0.00  0.00    +0.000 A 
ATOM     18  C   UNL     1       2.072   6.108  18.074  0.00  0.00    +0.000 A 
ATOM     19  C   UNL     1       2.608   4.861  17.725  0.00  0.00    +0.000 A 
ATOM     20  C   UNL     1       3.930   4.818  17.269  0.00  0.00    +0.000 A 
ATOM     21  N   UNL     1       4.740   3.742  17.004  0.00  0.00    +0.000 NA
ATOM     22  C   UNL     1       5.908   4.258  16.694  0.00  0.00    +0.000 A 
ATOM     23  N   UNL     1       5.862   5.622  16.649  0.00  0.00    +0.000 N 
ATOM     24  C   UNL     1       4.608   6.012  17.047  0.00  0.00    +0.000 A 
ATOM     25  C   UNL     1       4.041   7.269  17.246  0.00  0.00    +0.000 A 
ATOM     26  H   UNL     1       6.640   6.238  16.468  0.00  0.00    +0.000 HD
ENDBRANCH  15  17
BRANCH   1  28
ATOM     27  C   UNL     1      -1.812  15.751  20.560  0.00  0.00    +0.000 C 
ATOM     28  O   UNL     1      -1.645  14.448  20.005  0.00  0.00    +0.000 OA
ENDBRANCH   1  28
TORSDOF 2
ENDMDL
MODEL 7
REMARK VINA RESULT:      -7.7      2.967      8.964
REMARK  Name = 
REMARK  3 active torsions:
REMARK  status: ('A' for Active; 'I' for Inactive)
REMARK    1  A    between atoms: C_1  and  O_2
REMARK    2  A    between atoms: O_2  and  C_3
REMARK    3  A    between atoms: C_17  and  C_19
REMARK                            x       y       z     vdW  Elec       q    Type
REMARK                         _______ _______ _______ _____ _____    ______ ____
ROOT
ATOM      1  C   UNL     1      -0.509  13.864  19.574  0.00  0.00    +0.000 A 
ATOM      2  C   UNL     1      -1.402  14.302  20.550  0.00  0.00    +0.000 A 
ATOM      3  C   UNL     1      -1.652  13.507  21.658  0.00  0.00    +0.000 A 
ATOM      4  C   UNL     1      -1.001  12.284  21.799  0.00  0.00    +0.000 A 
ATOM      5  C   UNL     1      -0.125  11.789  20.810  0.00  0.00    +0.000 A 
ATOM      6  C   UNL     1       0.087  12.585  19.673  0.00  0.00    +0.000 A 
ATOM      7  C   UNL     1       1.007  12.133  18.583  0.00  0.00    +0.000 C 
ATOM      8  C   UNL     1       1.199  10.633  18.518  0.00  0.00    +0.000 C 
ATOM      9  C   UNL     1       1.518   9.940  19.852  0.00  0.00    +0.000 C 
ATOM     10  C   UNL     1       0.601  10.455  21.028  0.00  0.00    +0.000 C 
ATOM     11  C   UNL     1      -0.387   9.383  21.517  0.00  0.00    +0.000 C 
ATOM     12  C   UNL     1       0.280   8.079  21.878  0.00  0.00    +0.000 C 
ATOM     13  C   UNL     1       1.422   7.678  20.971  0.00  0.00    +0.000 C 
ATOM     14  N   UNL     1       1.594   8.436  19.738  0.00  0.00    +0.000 N 
ATOM     15  C   UNL     1       2.241   7.857  18.606  0.00  0.00    +0.000 C 
ATOM     16  O   UNL     1       2.506   8.481  17.578  0.00  0.00    +0.000 OA
ENDROOT
BRANCH  15  17
ATOM     17  C   UNL     1       2.618   6.412  18.531  0.00  0.00    +0.000 A 
ATOM     18  C   UNL     1       1.722   5.551  17.865  0.00  0.00    +0.000 A 
ATOM     19  C   UNL     1       1.962   4.173  17.765  0.00  0.00    +0.000 A 
ATOM     20  C   UNL     1       3.079   3.651  18.427  0.00  0.00    +0.000 A 
ATOM     21  N   UNL     1       3.465   2.349  18.620  0.00  0.00    +0.000 NA
ATOM     22  C   UNL     1       4.533   2.415  19.382  0.00  0.00    +0.000 A 
ATOM     23  N   UNL     1       4.914   3.706  19.608  0.00  0.00    +0.000 N 
ATOM     24  C   UNL     1       3.976   4.525  19.032  0.00  0.00    +0.000 A 
ATOM     25  C   UNL     1       3.834   5.911  19.012  0.00  0.00    +0.000 A 
ATOM     26  H   UNL     1       5.681   4.007  20.189  0.00  0.00    +0.000 HD
ENDBRANCH  15  17
BRANCH   1  28
ATOM     27  C   UNL     1      -0.087  16.022  18.723  0.00  0.00    +0.000 C 
ATOM     28  O   UNL     1      -0.185  14.622  18.475  0.00  0.00    +0.000 OA
ENDBRANCH   1  28
TORSDOF 2
ENDMDL
MODEL 8
REMARK VINA RESULT:      -7.6      2.937      8.954
REMARK  Name = 
REMARK  3 active torsions:
REMARK  status: ('A' for Active; 'I' for Inactive)
REMARK    1  A    between atoms: C_1  and  O_2
REMARK    2  A    between atoms: O_2  and  C_3
REMARK    3  A    between atoms: C_17  and  C_19
REMARK                            x       y       z     vdW  Elec       q    Type
REMARK                         _______ _______ _______ _____ _____    ______ ____
ROOT
ATOM      1  C   UNL     1      -0.703  14.000  19.717  0.00  0.00    +0.000 A 
ATOM      2  C   UNL     1      -1.569  14.354  20.751  0.00  0.00    +0.000 A 
ATOM      3  C   UNL     1      -1.736  13.500  21.830  0.00  0.00    +0.000 A 
ATOM      4  C   UNL     1      -1.030  12.301  21.884  0.00  0.00    +0.000 A 
ATOM      5  C   UNL     1      -0.180  11.889  20.836  0.00  0.00    +0.000 A 
ATOM      6  C   UNL     1      -0.052  12.745  19.730  0.00  0.00    +0.000 A 
ATOM      7  C   UNL     1       0.836  12.383  18.582  0.00  0.00    +0.000 C 
ATOM      8  C   UNL     1       1.087  10.896  18.438  0.00  0.00    +0.000 C 
ATOM      9  C   UNL     1       1.492  10.158  19.723  0.00  0.00    +0.000 C 
ATOM     10  C   UNL     1       0.608  10.579  20.960  0.00  0.00    +0.000 C 
ATOM     11  C   UNL     1      -0.313   9.444  21.438  0.00  0.00    +0.000 C 
ATOM     12  C   UNL     1       0.423   8.154  21.709  0.00  0.00    +0.000 C 
ATOM     13  C   UNL     1       1.538   7.845  20.735  0.00  0.00    +0.000 C 
ATOM     14  N   UNL     1       1.624   8.665  19.533  0.00  0.00    +0.000 N 
ATOM     15  C   UNL     1       2.243   8.167  18.348  0.00  0.00    +0.000 C 
ATOM     16  O   UNL     1       2.437   8.847  17.342  0.00  0.00    +0.000 OA
ENDROOT
BRANCH  15  17
ATOM     17  C   UNL     1       2.675   6.744  18.189  0.00  0.00    +0.000 A 
ATOM     18  C   UNL     1       3.978   6.522  17.698  0.00  0.00    +0.000 A 
ATOM     19  C   UNL     1       4.472   5.229  17.479  0.00  0.00    +0.000 A 
ATOM     20  C   UNL     1       3.602   4.151  17.679  0.00  0.00    +0.000 A 
ATOM     21  N   UNL     1       3.769   2.817  17.404  0.00  0.00    +0.000 NA
ATOM     22  C   UNL     1       2.616   2.258  17.697  0.00  0.00    +0.000 A 
ATOM     23  N   UNL     1       1.744   3.154  18.244  0.00  0.00    +0.000 N 
ATOM     24  C   UNL     1       2.341   4.390  18.215  0.00  0.00    +0.000 A 
ATOM     25  C   UNL     1       1.886   5.655  18.579  0.00  0.00    +0.000 A 
ATOM     26  H   UNL     1       0.791   2.967  18.516  0.00  0.00    +0.000 HD
ENDBRANCH  15  17
BRANCH   1  28
ATOM     27  C   UNL     1      -0.457  16.214  18.944  0.00  0.00    +0.000 C 
ATOM     28  O   UNL     1      -0.459  14.821  18.643  0.00  0.00    +0.000 OA
ENDBRANCH   1  28
TORSDOF 2
ENDMDL
MODEL 9
REMARK VINA RESULT:      -7.6      2.810      3.684
REMARK  Name = 
REMARK  3 active torsions:
REMARK  status: ('A' for Active; 'I' for Inactive)
REMARK    1  A    between atoms: C_1  and  O_2
REMARK    2  A    between atoms: O_2  and  C_3
REMARK    3  A    between atoms: C_17  and  C_19
REMARK                            x       y       z     vdW  Elec       q    Type
REMARK                         _______ _______ _______ _____ _____    ______ ____
ROOT
ATOM      1  C   UNL     1       3.189   5.297  18.553  0.00  0.00    +0.000 A 
ATOM      2  C   UNL     1       3.095   4.301  19.524  0.00  0.00    +0.000 A 
ATOM      3  C   UNL     1       2.376   4.538  20.685  0.00  0.00    +0.000 A 
ATOM      4  C   UNL     1       1.739   5.763  20.871  0.00  0.00    +0.000 A 
ATOM      5  C   UNL     1       1.849   6.810  19.932  0.00  0.00    +0.000 A 
ATOM      6  C   UNL     1       2.616   6.570  18.779  0.00  0.00    +0.000 A 
ATOM      7  C   UNL     1       2.774   7.627  17.733  0.00  0.00    +0.000 C 
ATOM      8  C   UNL     1       2.573   9.039  18.243  0.00  0.00    +0.000 C 
ATOM      9  C   UNL     1       1.316   9.270  19.096  0.00  0.00    +0.000 C 
ATOM     10  C   UNL     1       1.097   8.127  20.161  0.00  0.00    +0.000 C 
ATOM     11  C   UNL     1       1.306   8.618  21.603  0.00  0.00    +0.000 C 
ATOM     12  C   UNL     1       0.488   9.841  21.940  0.00  0.00    +0.000 C 
ATOM     13  C   UNL     1       0.368  10.851  20.822  0.00  0.00    +0.000 C 
ATOM     14  N   UNL     1       1.229  10.669  19.660  0.00  0.00    +0.000 N 
ATOM     15  C   UNL     1       1.591  11.775  18.834  0.00  0.00    +0.000 C 
ATOM     16  O   UNL     1       2.226  11.664  17.786  0.00  0.00    +0.000 OA
ENDROOT
BRANCH  15  17
ATOM     17  C   UNL     1       1.279  13.193  19.187  0.00  0.00    +0.000 A 
ATOM     18  C   UNL     1       2.219  13.876  19.987  0.00  0.00    +0.000 A 
ATOM     19  C   UNL     1       2.010  15.198  20.403  0.00  0.00    +0.000 A 
ATOM     20  C   UNL     1       0.791  15.804  20.078  0.00  0.00    +0.000 A 
ATOM     21  N   UNL     1       0.269  17.009  20.475  0.00  0.00    +0.000 NA
ATOM     22  C   UNL     1      -0.938  17.049  19.957  0.00  0.00    +0.000 A 
ATOM     23  N   UNL     1      -1.182  15.968  19.159  0.00  0.00    +0.000 N 
ATOM     24  C   UNL     1      -0.097  15.132  19.244  0.00  0.00    +0.000 A 
ATOM     25  C   UNL     1       0.159  13.877  18.697  0.00  0.00    +0.000 A 
ATOM     26  H   UNL     1      -2.047  15.763  18.683  0.00  0.00    +0.000 HD
ENDBRANCH  15  17
BRANCH   1  28
ATOM     27  C   UNL     1       4.160   3.753  17.059  0.00  0.00    +0.000 C 
ATOM     28  O   UNL     1       3.849   5.111  17.363  0.00  0.00    +0.000 OA
ENDBRANCH   1  28
TORSDOF 2
ENDMDL
