MODEL 1
REMARK VINA RESULT:      -7.8      0.000      0.000
REMARK  Name = 
REMARK  3 active torsions:
REMARK  status: ('A' for Active; 'I' for Inactive)
REMARK    1  A    between atoms: C_4  and  C_5
REMARK    2  A    between atoms: N_9  and  C_10
REMARK    3  A    between atoms: C_13  and  C_14
REMARK                            x       y       z     vdW  Elec       q    Type
REMARK                         _______ _______ _______ _____ _____    ______ ____
ROOT
ATOM      1  C   UNL     1      -2.950  11.394  18.499  0.00  0.00    +0.000 A 
ATOM      2  C   UNL     1      -2.308  10.372  17.841  0.00  0.00    +0.000 A 
ATOM      3  N   UNL     1      -1.074   9.942  18.151  0.00  0.00    +0.000 NA
ATOM      4  C   UNL     1      -0.430  10.539  19.165  0.00  0.00    +0.000 A 
ATOM      5  N   UNL     1       0.843  10.112  19.521  0.00  0.00    +0.000 N 
ATOM      6  N   UNL     1      -0.949  11.566  19.855  0.00  0.00    +0.000 NA
ATOM      7  C   UNL     1      -2.199  11.963  19.507  0.00  0.00    +0.000 A 
ATOM      8  H   UNL     1       1.261  10.716  20.212  0.00  0.00    +0.000 HD
ENDROOT
BRANCH   5   9
ATOM      9  C   UNL     1       1.556   8.980  19.112  0.00  0.00    +0.000 A 
ATOM     10  C   UNL     1       1.709   7.906  19.994  0.00  0.00    +0.000 A 
ATOM     11  C   UNL     1       2.496   6.802  19.651  0.00  0.00    +0.000 A 
ATOM     12  C   UNL     1       3.156   6.750  18.416  0.00  0.00    +0.000 A 
ATOM     13  C   UNL     1       3.013   7.822  17.533  0.00  0.00    +0.000 A 
ATOM     14  C   UNL     1       2.227   8.918  17.883  0.00  0.00    +0.000 A 
BRANCH  12  15
ATOM     15  C   UNL     1       3.962   5.544  17.991  0.00  0.00    +0.000 C 
ATOM     16  C   UNL     1       5.018   5.204  19.074  0.00  0.00    +0.000 C 
ATOM     17  N   UNL     1       5.889   4.073  18.691  0.00  0.00    +0.000 NA
ATOM     18  C   UNL     1       6.472   4.375  17.371  0.00  0.00    +0.000 C 
ATOM     19  C   UNL     1       5.400   4.697  16.319  0.00  0.00    +0.000 C 
ATOM     20  O   UNL     1       4.591   5.805  16.724  0.00  0.00    +0.000 OA
ATOM     21  H   UNL     1       5.310   3.237  18.607  0.00  0.00    +0.000 HD
ENDBRANCH  12  15
ENDBRANCH   5   9
BRANCH   1  25
ATOM     22  C   UNL     1      -6.307  12.386  17.357  0.00  0.00    +0.000 A 
ATOM     23  C   UNL     1      -6.230  12.710  18.689  0.00  0.00    +0.000 A 
ATOM     24  O   UNL     1      -5.017  12.364  19.187  0.00  0.00    +0.000 OA
ATOM     25  C   UNL     1      -4.296  11.811  18.164  0.00  0.00    +0.000 A 
ATOM     26  C   UNL     1      -5.061  11.803  17.017  0.00  0.00    +0.000 A 
ENDBRANCH   1  25
TORSDOF 3
ENDMDL
MODEL 2
REMARK VINA RESULT:      -7.6      0.281      1.017
REMARK  Name = 
REMARK  3 active torsions:
REMARK  status: ('A' for Active; 'I' for Inactive)
REMARK    1  A    between atoms: C_4  and  C_5
REMARK    2  A    between atoms: N_9  and  C_10
REMARK    3  A    between atoms: C_13  and  C_14
REMARK                            x       y       z     vdW  Elec       q    Type
REMARK                         _______ _______ _______ _____ _____    ______ ____
ROOT
ATOM      1  C   UNL     1      -2.768  11.326  18.587  0.00  0.00    +0.000 A 
ATOM      2  C   UNL     1      -2.026  10.400  17.895  0.00  0.00    +0.000 A 
ATOM      3  N   UNL     1      -0.833   9.939  18.307  0.00  0.00    +0.000 NA
ATOM      4  C   UNL     1      -0.338  10.406  19.464  0.00  0.00    +0.000 A 
ATOM      5  N   UNL     1       0.887   9.943  19.926  0.00  0.00    +0.000 N 
ATOM      6  N   UNL     1      -0.963  11.334  20.203  0.00  0.00    +0.000 NA
ATOM      7  C   UNL     1      -2.166  11.766  19.747  0.00  0.00    +0.000 A 
ATOM      8  H   UNL     1       1.200  10.456  20.735  0.00  0.00    +0.000 HD
ENDROOT
BRANCH   5   9
ATOM      9  C   UNL     1       1.671   8.875  19.475  0.00  0.00    +0.000 A 
ATOM     10  C   UNL     1       2.279   8.948  18.218  0.00  0.00    +0.000 A 
ATOM     11  C   UNL     1       2.988   7.860  17.700  0.00  0.00    +0.000 A 
ATOM     12  C   UNL     1       3.100   6.667  18.426  0.00  0.00    +0.000 A 
ATOM     13  C   UNL     1       2.489   6.585  19.679  0.00  0.00    +0.000 A 
ATOM     14  C   UNL     1       1.784   7.674  20.188  0.00  0.00    +0.000 A 
BRANCH  12  15
ATOM     15  C   UNL     1       3.911   5.496  17.920  0.00  0.00    +0.000 C 
ATOM     16  C   UNL     1       5.018   5.137  18.945  0.00  0.00    +0.000 C 
ATOM     17  N   UNL     1       5.895   4.041  18.480  0.00  0.00    +0.000 NA
ATOM     18  C   UNL     1       6.415   4.408  17.151  0.00  0.00    +0.000 C 
ATOM     19  C   UNL     1       5.295   4.747  16.158  0.00  0.00    +0.000 C 
ATOM     20  O   UNL     1       4.481   5.821  16.639  0.00  0.00    +0.000 OA
ATOM     21  H   UNL     1       5.329   3.197  18.386  0.00  0.00    +0.000 HD
ENDBRANCH  12  15
ENDBRANCH   5   9
BRANCH   1  25
ATOM     22  C   UNL     1      -5.992  12.386  17.154  0.00  0.00    +0.000 A 
ATOM     23  C   UNL     1      -5.998  12.771  18.473  0.00  0.00    +0.000 A 
ATOM     24  O   UNL     1      -4.839  12.404  19.075  0.00  0.00    +0.000 OA
ATOM     25  C   UNL     1      -4.069  11.777  18.135  0.00  0.00    +0.000 A 
ATOM     26  C   UNL     1      -4.748  11.741  16.935  0.00  0.00    +0.000 A 
ENDBRANCH   1  25
TORSDOF 3
ENDMDL
MODEL 3
REMARK VINA RESULT:      -7.5      1.390      1.618
REMARK  Name = 
REMARK  3 active torsions:
REMARK  status: ('A' for Active; 'I' for Inactive)
REMARK    1  A    between atoms: C_4  and  C_5
REMARK    2  A    between atoms: N_9  and  C_10
REMARK    3  A    between atoms: C_13  and  C_14
REMARK                            x       y       z     vdW  Elec       q    Type
REMARK                         _______ _______ _______ _____ _____    ______ ____
ROOT
ATOM      1  C   UNL     1      -2.803  11.347  18.218  0.00  0.00    +0.000 A 
ATOM      2  C   UNL     1      -2.347  10.078  17.952  0.00  0.00    +0.000 A 
ATOM      3  N   UNL     1      -1.082   9.678  18.164  0.00  0.00    +0.000 NA
ATOM      4  C   UNL     1      -0.213  10.567  18.669  0.00  0.00    +0.000 A 
ATOM      5  N   UNL     1       1.101  10.185  18.912  0.00  0.00    +0.000 N 
ATOM      6  N   UNL     1      -0.542  11.840  18.936  0.00  0.00    +0.000 NA
ATOM      7  C   UNL     1      -1.832  12.195  18.708  0.00  0.00    +0.000 A 
ATOM      8  H   UNL     1       1.676  10.970  19.175  0.00  0.00    +0.000 HD
ENDROOT
BRANCH   5   9
ATOM      9  C   UNL     1       1.682   8.913  18.899  0.00  0.00    +0.000 A 
ATOM     10  C   UNL     1       1.599   8.105  20.038  0.00  0.00    +0.000 A 
ATOM     11  C   UNL     1       2.251   6.869  20.089  0.00  0.00    +0.000 A 
ATOM     12  C   UNL     1       3.009   6.413  19.003  0.00  0.00    +0.000 A 
ATOM     13  C   UNL     1       3.102   7.217  17.865  0.00  0.00    +0.000 A 
ATOM     14  C   UNL     1       2.449   8.448  17.822  0.00  0.00    +0.000 A 
BRANCH  12  15
ATOM     15  C   UNL     1       3.673   5.055  19.005  0.00  0.00    +0.000 C 
ATOM     16  C   UNL     1       3.809   4.530  17.553  0.00  0.00    +0.000 C 
ATOM     17  N   UNL     1       4.390   3.172  17.486  0.00  0.00    +0.000 NA
ATOM     18  C   UNL     1       3.593   2.294  18.362  0.00  0.00    +0.000 C 
ATOM     19  C   UNL     1       3.488   2.837  19.794  0.00  0.00    +0.000 C 
ATOM     20  O   UNL     1       2.908   4.144  19.813  0.00  0.00    +0.000 OA
ATOM     21  H   UNL     1       5.343   3.214  17.848  0.00  0.00    +0.000 HD
ENDBRANCH  12  15
ENDBRANCH   5   9
BRANCH   1  25
ATOM     22  C   UNL     1      -6.256  12.325  17.393  0.00  0.00    +0.000 A 
ATOM     23  C   UNL     1      -6.133  12.416  18.758  0.00  0.00    +0.000 A 
ATOM     24  O   UNL     1      -4.882  12.060  19.142  0.00  0.00    +0.000 OA
ATOM     25  C   UNL     1      -4.183  11.737  18.012  0.00  0.00    +0.000 A 
ATOM     26  C   UNL     1      -4.999  11.884  16.910  0.00  0.00    +0.000 A 
ENDBRANCH   1  25
TORSDOF 3
ENDMDL
MODEL 4
REMARK VINA RESULT:      -7.5      1.327      1.864
REMARK  Name = 
REMARK  3 active torsions:
REMARK  status: ('A' for Active; 'I' for Inactive)
REMARK    1  A    between atoms: C_4  and  C_5
REMARK    2  A    between atoms: N_9  and  C_10
REMARK    3  A    between atoms: C_13  and  C_14
REMARK                            x       y       z     vdW  Elec       q    Type
REMARK                         _______ _______ _______ _____ _____    ______ ____
ROOT
ATOM      1  C   UNL     1      -3.382  11.622  18.695  0.00  0.00    +0.000 A 
ATOM      2  C   UNL     1      -2.727  10.550  18.140  0.00  0.00    +0.000 A 
ATOM      3  N   UNL     1      -1.448  10.236  18.407  0.00  0.00    +0.000 NA
ATOM      4  C   UNL     1      -0.771  11.011  19.268  0.00  0.00    +0.000 A 
ATOM      5  N   UNL     1       0.550  10.709  19.575  0.00  0.00    +0.000 N 
ATOM      6  N   UNL     1      -1.302  12.100  19.842  0.00  0.00    +0.000 NA
ATOM      7  C   UNL     1      -2.598  12.374  19.545  0.00  0.00    +0.000 A 
ATOM      8  H   UNL     1       0.978  11.430  20.135  0.00  0.00    +0.000 HD
ENDROOT
BRANCH   5   9
ATOM      9  C   UNL     1       1.302   9.568  19.277  0.00  0.00    +0.000 A 
ATOM     10  C   UNL     1       1.849   9.417  17.999  0.00  0.00    +0.000 A 
ATOM     11  C   UNL     1       2.523   8.245  17.641  0.00  0.00    +0.000 A 
ATOM     12  C   UNL     1       2.661   7.191  18.554  0.00  0.00    +0.000 A 
ATOM     13  C   UNL     1       2.112   7.333  19.830  0.00  0.00    +0.000 A 
ATOM     14  C   UNL     1       1.441   8.503  20.178  0.00  0.00    +0.000 A 
BRANCH  12  15
ATOM     15  C   UNL     1       3.438   5.939  18.218  0.00  0.00    +0.000 C 
ATOM     16  C   UNL     1       2.460   4.779  17.899  0.00  0.00    +0.000 C 
ATOM     17  N   UNL     1       3.154   3.502  17.627  0.00  0.00    +0.000 NA
ATOM     18  C   UNL     1       4.054   3.224  18.762  0.00  0.00    +0.000 C 
ATOM     19  C   UNL     1       5.015   4.387  19.043  0.00  0.00    +0.000 C 
ATOM     20  O   UNL     1       4.302   5.597  19.315  0.00  0.00    +0.000 OA
ATOM     21  H   UNL     1       3.719   3.618  16.785  0.00  0.00    +0.000 HD
ENDBRANCH  12  15
ENDBRANCH   5   9
BRANCH   1  25
ATOM     22  C   UNL     1      -6.980  12.286  18.274  0.00  0.00    +0.000 A 
ATOM     23  C   UNL     1      -6.401  12.439  17.038  0.00  0.00    +0.000 A 
ATOM     24  O   UNL     1      -5.065  12.219  17.114  0.00  0.00    +0.000 OA
ATOM     25  C   UNL     1      -4.773  11.914  18.416  0.00  0.00    +0.000 A 
ATOM     26  C   UNL     1      -5.931  11.950  19.165  0.00  0.00    +0.000 A 
ENDBRANCH   1  25
TORSDOF 3
ENDMDL
MODEL 5
REMARK VINA RESULT:      -7.3      1.382      1.848
REMARK  Name = 
REMARK  3 active torsions:
REMARK  status: ('A' for Active; 'I' for Inactive)
REMARK    1  A    between atoms: C_4  and  C_5
REMARK    2  A    between atoms: N_9  and  C_10
REMARK    3  A    between atoms: C_13  and  C_14
REMARK                            x       y       z     vdW  Elec       q    Type
REMARK                         _______ _______ _______ _____ _____    ______ ____
ROOT
ATOM      1  C   UNL     1      -3.241  11.213  18.140  0.00  0.00    +0.000 A 
ATOM      2  C   UNL     1      -2.666   9.979  17.956  0.00  0.00    +0.000 A 
ATOM      3  N   UNL     1      -1.366   9.719  18.176  0.00  0.00    +0.000 NA
ATOM      4  C   UNL     1      -0.583  10.721  18.605  0.00  0.00    +0.000 A 
ATOM      5  N   UNL     1       0.763  10.486  18.853  0.00  0.00    +0.000 N 
ATOM      6  N   UNL     1      -1.032  11.972  18.787  0.00  0.00    +0.000 NA
ATOM      7  C   UNL     1      -2.353  12.183  18.555  0.00  0.00    +0.000 A 
ATOM      8  H   UNL     1       1.262  11.339  19.053  0.00  0.00    +0.000 HD
ENDROOT
BRANCH   5   9
ATOM      9  C   UNL     1       1.465   9.278  18.920  0.00  0.00    +0.000 A 
ATOM     10  C   UNL     1       2.128   8.802  17.785  0.00  0.00    +0.000 A 
ATOM     11  C   UNL     1       2.757   7.553  17.793  0.00  0.00    +0.000 A 
ATOM     12  C   UNL     1       2.732   6.745  18.937  0.00  0.00    +0.000 A 
ATOM     13  C   UNL     1       2.066   7.211  20.072  0.00  0.00    +0.000 A 
ATOM     14  C   UNL     1       1.441   8.457  20.056  0.00  0.00    +0.000 A 
BRANCH  12  15
ATOM     15  C   UNL     1       3.455   5.419  18.996  0.00  0.00    +0.000 C 
ATOM     16  C   UNL     1       4.118   5.116  17.628  0.00  0.00    +0.000 C 
ATOM     17  N   UNL     1       4.787   3.798  17.594  0.00  0.00    +0.000 NA
ATOM     18  C   UNL     1       3.807   2.781  18.015  0.00  0.00    +0.000 C 
ATOM     19  C   UNL     1       3.177   3.104  19.377  0.00  0.00    +0.000 C 
ATOM     20  O   UNL     1       2.529   4.380  19.361  0.00  0.00    +0.000 OA
ATOM     21  H   UNL     1       5.553   3.811  18.269  0.00  0.00    +0.000 HD
ENDBRANCH  12  15
ENDBRANCH   5   9
BRANCH   1  25
ATOM     22  C   UNL     1      -6.753  12.055  17.419  0.00  0.00    +0.000 A 
ATOM     23  C   UNL     1      -6.770  11.063  18.370  0.00  0.00    +0.000 A 
ATOM     24  O   UNL     1      -5.504  10.691  18.683  0.00  0.00    +0.000 OA
ATOM     25  C   UNL     1      -4.654  11.453  17.929  0.00  0.00    +0.000 A 
ATOM     26  C   UNL     1      -5.388  12.305  17.132  0.00  0.00    +0.000 A 
ENDBRANCH   1  25
TORSDOF 3
ENDMDL
MODEL 6
REMARK VINA RESULT:      -7.2      0.966      1.159
REMARK  Name = 
REMARK  3 active torsions:
REMARK  status: ('A' for Active; 'I' for Inactive)
REMARK    1  A    between atoms: C_4  and  C_5
REMARK    2  A    between atoms: N_9  and  C_10
REMARK    3  A    between atoms: C_13  and  C_14
REMARK                            x       y       z     vdW  Elec       q    Type
REMARK                         _______ _______ _______ _____ _____    ______ ____
ROOT
ATOM      1  C   UNL     1      -3.020  11.566  18.596  0.00  0.00    +0.000 A 
ATOM      2  C   UNL     1      -2.517  10.370  18.143  0.00  0.00    +0.000 A 
ATOM      3  N   UNL     1      -1.251   9.968  18.344  0.00  0.00    +0.000 NA
ATOM      4  C   UNL     1      -0.430  10.777  19.031  0.00  0.00    +0.000 A 
ATOM      5  N   UNL     1       0.883  10.388  19.267  0.00  0.00    +0.000 N 
ATOM      6  N   UNL     1      -0.806  11.980  19.490  0.00  0.00    +0.000 NA
ATOM      7  C   UNL     1      -2.095  12.341  19.265  0.00  0.00    +0.000 A 
ATOM      8  H   UNL     1       1.424  11.130  19.684  0.00  0.00    +0.000 HD
ENDROOT
BRANCH   5   9
ATOM      9  C   UNL     1       1.500   9.148  19.070  0.00  0.00    +0.000 A 
ATOM     10  C   UNL     1       1.551   8.228  20.121  0.00  0.00    +0.000 A 
ATOM     11  C   UNL     1       2.244   7.021  19.985  0.00  0.00    +0.000 A 
ATOM     12  C   UNL     1       2.910   6.708  18.792  0.00  0.00    +0.000 A 
ATOM     13  C   UNL     1       2.868   7.625  17.741  0.00  0.00    +0.000 A 
ATOM     14  C   UNL     1       2.176   8.826  17.885  0.00  0.00    +0.000 A 
BRANCH  12  15
ATOM     15  C   UNL     1       3.614   5.385  18.593  0.00  0.00    +0.000 C 
ATOM     16  C   UNL     1       5.074   5.627  18.130  0.00  0.00    +0.000 C 
ATOM     17  N   UNL     1       5.801   4.371  17.850  0.00  0.00    +0.000 NA
ATOM     18  C   UNL     1       4.999   3.585  16.895  0.00  0.00    +0.000 C 
ATOM     19  C   UNL     1       3.564   3.354  17.388  0.00  0.00    +0.000 C 
ATOM     20  O   UNL     1       2.893   4.594  17.633  0.00  0.00    +0.000 OA
ATOM     21  H   UNL     1       5.878   3.845  18.720  0.00  0.00    +0.000 HD
ENDBRANCH  12  15
ENDBRANCH   5   9
BRANCH   1  25
ATOM     22  C   UNL     1      -6.567  12.534  18.385  0.00  0.00    +0.000 A 
ATOM     23  C   UNL     1      -6.108  12.426  17.095  0.00  0.00    +0.000 A 
ATOM     24  O   UNL     1      -4.797  12.079  17.090  0.00  0.00    +0.000 OA
ATOM     25  C   UNL     1      -4.400  11.956  18.394  0.00  0.00    +0.000 A 
ATOM     26  C   UNL     1      -5.465  12.234  19.225  0.00  0.00    +0.000 A 
ENDBRANCH   1  25
TORSDOF 3
ENDMDL
MODEL 7
REMARK VINA RESULT:      -7.1      2.692      4.483
REMARK  Name = 
REMARK  3 active torsions:
REMARK  status: ('A' for Active; 'I' for Inactive)
REMARK    1  A    between atoms: C_4  and  C_5
REMARK    2  A    between atoms: N_9  and  C_10
REMARK    3  A    between atoms: C_13  and  C_14
REMARK                            x       y       z     vdW  Elec       q    Type
REMARK                         _______ _______ _______ _____ _____    ______ ____
ROOT
ATOM      1  C   UNL     1       0.592   9.562  19.225  0.00  0.00    +0.000 A 
ATOM      2  C   UNL     1       1.298   9.296  18.077  0.00  0.00    +0.000 A 
ATOM      3  N   UNL     1       2.215   8.319  17.972  0.00  0.00    +0.000 NA
ATOM      4  C   UNL     1       2.453   7.555  19.049  0.00  0.00    +0.000 A 
ATOM      5  N   UNL     1       3.386   6.529  18.974  0.00  0.00    +0.000 N 
ATOM      6  N   UNL     1       1.845   7.747  20.229  0.00  0.00    +0.000 NA
ATOM      7  C   UNL     1       0.925   8.743  20.284  0.00  0.00    +0.000 A 
ATOM      8  H   UNL     1       3.558   6.112  19.875  0.00  0.00    +0.000 HD
ENDROOT
BRANCH   5   9
ATOM      9  C   UNL     1       4.036   5.987  17.859  0.00  0.00    +0.000 A 
ATOM     10  C   UNL     1       3.823   4.648  17.519  0.00  0.00    +0.000 A 
ATOM     11  C   UNL     1       4.530   4.053  16.470  0.00  0.00    +0.000 A 
ATOM     12  C   UNL     1       5.476   4.783  15.738  0.00  0.00    +0.000 A 
ATOM     13  C   UNL     1       5.698   6.119  16.077  0.00  0.00    +0.000 A 
ATOM     14  C   UNL     1       4.990   6.705  17.124  0.00  0.00    +0.000 A 
BRANCH  12  15
ATOM     15  C   UNL     1       6.210   4.186  14.560  0.00  0.00    +0.000 C 
ATOM     16  C   UNL     1       7.259   5.194  14.023  0.00  0.00    +0.000 C 
ATOM     17  N   UNL     1       7.968   4.699  12.824  0.00  0.00    +0.000 NA
ATOM     18  C   UNL     1       6.955   4.310  11.826  0.00  0.00    +0.000 C 
ATOM     19  C   UNL     1       5.940   3.304  12.385  0.00  0.00    +0.000 C 
ATOM     20  O   UNL     1       5.267   3.828  13.534  0.00  0.00    +0.000 OA
ATOM     21  H   UNL     1       8.501   3.869  13.087  0.00  0.00    +0.000 HD
ENDBRANCH  12  15
ENDBRANCH   5   9
BRANCH   1  25
ATOM     22  C   UNL     1      -2.049  12.126  19.118  0.00  0.00    +0.000 A 
ATOM     23  C   UNL     1      -1.390  12.284  20.313  0.00  0.00    +0.000 A 
ATOM     24  O   UNL     1      -0.402  11.363  20.431  0.00  0.00    +0.000 OA
ATOM     25  C   UNL     1      -0.416  10.599  19.296  0.00  0.00    +0.000 A 
ATOM     26  C   UNL     1      -1.424  11.037  18.462  0.00  0.00    +0.000 A 
ENDBRANCH   1  25
TORSDOF 3
ENDMDL
MODEL 8
REMARK VINA RESULT:      -7.0      2.644      3.582
REMARK  Name = 
REMARK  3 active torsions:
REMARK  status: ('A' for Active; 'I' for Inactive)
REMARK    1  A    between atoms: C_4  and  C_5
REMARK    2  A    between atoms: N_9  and  C_10
REMARK    3  A    between atoms: C_13  and  C_14
REMARK                            x       y       z     vdW  Elec       q    Type
REMARK                         _______ _______ _______ _____ _____    ______ ____
ROOT
ATOM      1  C   UNL     1      -0.147  10.130  20.553  0.00  0.00    +0.000 A 
ATOM      2  C   UNL     1       0.768   9.866  19.563  0.00  0.00    +0.000 A 
ATOM      3  N   UNL     1       1.543   8.768  19.534  0.00  0.00    +0.000 NA
ATOM      4  C   UNL     1       1.413   7.875  20.527  0.00  0.00    +0.000 A 
ATOM      5  N   UNL     1       2.190   6.723  20.523  0.00  0.00    +0.000 N 
ATOM      6  N   UNL     1       0.575   8.047  21.559  0.00  0.00    +0.000 NA
ATOM      7  C   UNL     1      -0.188   9.170  21.542  0.00  0.00    +0.000 A 
ATOM      8  H   UNL     1       2.085   6.198  21.378  0.00  0.00    +0.000 HD
ENDROOT
BRANCH   5   9
ATOM      9  C   UNL     1       3.006   6.194  19.517  0.00  0.00    +0.000 A 
ATOM     10  C   UNL     1       3.763   5.047  19.775  0.00  0.00    +0.000 A 
ATOM     11  C   UNL     1       4.659   4.551  18.824  0.00  0.00    +0.000 A 
ATOM     12  C   UNL     1       4.826   5.196  17.591  0.00  0.00    +0.000 A 
ATOM     13  C   UNL     1       4.077   6.345  17.329  0.00  0.00    +0.000 A 
ATOM     14  C   UNL     1       3.186   6.834  18.283  0.00  0.00    +0.000 A 
BRANCH  12  15
ATOM     15  C   UNL     1       5.740   4.649  16.519  0.00  0.00    +0.000 C 
ATOM     16  C   UNL     1       6.809   5.707  16.144  0.00  0.00    +0.000 C 
ATOM     17  N   UNL     1       7.697   5.262  15.049  0.00  0.00    +0.000 NA
ATOM     18  C   UNL     1       6.849   4.849  13.916  0.00  0.00    +0.000 C 
ATOM     19  C   UNL     1       5.810   3.793  14.318  0.00  0.00    +0.000 C 
ATOM     20  O   UNL     1       4.964   4.271  15.368  0.00  0.00    +0.000 OA
ATOM     21  H   UNL     1       8.223   4.450  15.374  0.00  0.00    +0.000 HD
ENDBRANCH  12  15
ENDBRANCH   5   9
BRANCH   1  25
ATOM     22  C   UNL     1      -2.242  13.139  20.212  0.00  0.00    +0.000 A 
ATOM     23  C   UNL     1      -2.190  12.842  21.552  0.00  0.00    +0.000 A 
ATOM     24  O   UNL     1      -1.438  11.732  21.758  0.00  0.00    +0.000 OA
ATOM     25  C   UNL     1      -0.993  11.305  20.537  0.00  0.00    +0.000 A 
ATOM     26  C   UNL     1      -1.473  12.147  19.555  0.00  0.00    +0.000 A 
ENDBRANCH   1  25
TORSDOF 3
ENDMDL
MODEL 9
REMARK VINA RESULT:      -7.0      2.390      9.439
REMARK  Name = 
REMARK  3 active torsions:
REMARK  status: ('A' for Active; 'I' for Inactive)
REMARK    1  A    between atoms: C_4  and  C_5
REMARK    2  A    between atoms: N_9  and  C_10
REMARK    3  A    between atoms: C_13  and  C_14
REMARK                            x       y       z     vdW  Elec       q    Type
REMARK                         _______ _______ _______ _____ _____    ______ ____
ROOT
ATOM      1  C   UNL     1       3.170   5.872  19.080  0.00  0.00    +0.000 A 
ATOM      2  C   UNL     1       2.276   6.592  19.835  0.00  0.00    +0.000 A 
ATOM      3  N   UNL     1       1.834   7.817  19.503  0.00  0.00    +0.000 NA
ATOM      4  C   UNL     1       2.286   8.368  18.366  0.00  0.00    +0.000 A 
ATOM      5  N   UNL     1       1.841   9.628  17.986  0.00  0.00    +0.000 N 
ATOM      6  N   UNL     1       3.184   7.768  17.571  0.00  0.00    +0.000 NA
ATOM      7  C   UNL     1       3.598   6.531  17.946  0.00  0.00    +0.000 A 
ATOM      8  H   UNL     1       2.343   9.976  17.184  0.00  0.00    +0.000 HD
ENDROOT
BRANCH   5   9
ATOM      9  C   UNL     1       0.802  10.407  18.506  0.00  0.00    +0.000 A 
ATOM     10  C   UNL     1       1.077  11.349  19.502  0.00  0.00    +0.000 A 
ATOM     11  C   UNL     1       0.047  12.074  20.108  0.00  0.00    +0.000 A 
ATOM     12  C   UNL     1      -1.288  11.868  19.738  0.00  0.00    +0.000 A 
ATOM     13  C   UNL     1      -1.571  10.923  18.749  0.00  0.00    +0.000 A 
ATOM     14  C   UNL     1      -0.539  10.205  18.150  0.00  0.00    +0.000 A 
BRANCH  12  15
ATOM     15  C   UNL     1      -2.417  12.680  20.331  0.00  0.00    +0.000 C 
ATOM     16  C   UNL     1      -2.515  12.416  21.856  0.00  0.00    +0.000 C 
ATOM     17  N   UNL     1      -3.645  13.129  22.489  0.00  0.00    +0.000 NA
ATOM     18  C   UNL     1      -4.872  12.783  21.749  0.00  0.00    +0.000 C 
ATOM     19  C   UNL     1      -4.746  13.065  20.245  0.00  0.00    +0.000 C 
ATOM     20  O   UNL     1      -3.651  12.346  19.671  0.00  0.00    +0.000 OA
ATOM     21  H   UNL     1      -3.482  14.132  22.398  0.00  0.00    +0.000 HD
ENDBRANCH  12  15
ENDBRANCH   5   9
BRANCH   1  25
ATOM     22  C   UNL     1       4.492   2.512  19.808  0.00  0.00    +0.000 A 
ATOM     23  C   UNL     1       3.325   2.643  20.520  0.00  0.00    +0.000 A 
ATOM     24  O   UNL     1       2.780   3.866  20.310  0.00  0.00    +0.000 OA
ATOM     25  C   UNL     1       3.601   4.538  19.446  0.00  0.00    +0.000 A 
ATOM     26  C   UNL     1       4.673   3.736  19.116  0.00  0.00    +0.000 A 
ENDBRANCH   1  25
TORSDOF 3
ENDMDL
