MODEL 1
REMARK VINA RESULT:      -8.0      0.000      0.000
REMARK  Name = 
REMARK  8 active torsions:
REMARK  status: ('A' for Active; 'I' for Inactive)
REMARK    1  A    between atoms: C_1  and  C_2
REMARK    2  A    between atoms: C_2  and  C_3
REMARK    3  A    between atoms: C_2  and  C_4
REMARK    4  A    between atoms: C_7  and  C_8
REMARK    5  A    between atoms: C_8  and  C_9
REMARK    6  A    between atoms: C_9  and  C_10
REMARK    7  A    between atoms: C_17  and  C_18
REMARK    8  A    between atoms: C_18  and  C_19
REMARK                            x       y       z     vdW  Elec       q    Type
REMARK                         _______ _______ _______ _____ _____    ______ ____
ROOT
ATOM      1  C   UNL     1       5.268   4.959  18.796  0.00  0.00    +0.000 C 
ATOM      2  O   UNL     1       6.210   4.471  19.412  0.00  0.00    +0.000 OA
ATOM      3  N   UNL     1       4.046   4.312  18.694  0.00  0.00    +0.000 N 
ATOM      4  C   UNL     1       4.092   2.874  19.000  0.00  0.00    +0.000 C 
ATOM      5  C   UNL     1       3.179   2.111  18.046  0.00  0.00    +0.000 C 
ATOM      6  O   UNL     1       1.833   2.584  18.159  0.00  0.00    +0.000 OA
ATOM      7  C   UNL     1       1.745   3.983  17.839  0.00  0.00    +0.000 C 
ATOM      8  C   UNL     1       2.640   4.858  18.760  0.00  0.00    +0.000 C 
ENDROOT
BRANCH   1   9
ATOM      9  C   UNL     1       5.483   6.217  17.988  0.00  0.00    +0.000 C 
BRANCH   9  10
ATOM     10  C   UNL     1       4.849   6.054  16.602  0.00  0.00    +0.000 C 
BRANCH  10  14
ATOM     11  C   UNL     1       6.492   4.430  13.933  0.00  0.00    +0.000 A 
ATOM     12  N   UNL     1       7.555   5.020  14.441  0.00  0.00    +0.000 NA
ATOM     13  N   UNL     1       7.118   5.738  15.535  0.00  0.00    +0.000 NA
ATOM     14  C   UNL     1       5.821   5.528  15.620  0.00  0.00    +0.000 A 
ATOM     15  O   UNL     1       5.346   4.707  14.632  0.00  0.00    +0.000 OA
BRANCH  11  17
ATOM     16  C   UNL     1       4.940   3.536  12.229  0.00  0.00    +0.000 C 
ATOM     17  C   UNL     1       6.380   3.549  12.740  0.00  0.00    +0.000 C 
ATOM     18  C   UNL     1       7.338   4.006  11.641  0.00  0.00    +0.000 C 
ENDBRANCH  11  17
ENDBRANCH  10  14
ENDBRANCH   9  10
ENDBRANCH   1   9
BRANCH   8  19
ATOM     19  C   UNL     1       2.409   6.358  18.493  0.00  0.00    +0.000 C 
BRANCH  19  20
ATOM     20  C   UNL     1       2.347   7.224  19.769  0.00  0.00    +0.000 C 
ATOM     21  C   UNL     1       1.509   8.534  19.889  0.00  0.00    +0.000 C 
ATOM     22  C   UNL     1       1.091   8.072  21.302  0.00  0.00    +0.000 C 
ATOM     23  C   UNL     1       1.408   6.634  20.859  0.00  0.00    +0.000 C 
ENDBRANCH  19  20
ENDBRANCH   8  19
TORSDOF 6
ENDMDL
MODEL 2
REMARK VINA RESULT:      -8.0      1.664      2.205
REMARK  Name = 
REMARK  8 active torsions:
REMARK  status: ('A' for Active; 'I' for Inactive)
REMARK    1  A    between atoms: C_1  and  C_2
REMARK    2  A    between atoms: C_2  and  C_3
REMARK    3  A    between atoms: C_2  and  C_4
REMARK    4  A    between atoms: C_7  and  C_8
REMARK    5  A    between atoms: C_8  and  C_9
REMARK    6  A    between atoms: C_9  and  C_10
REMARK    7  A    between atoms: C_17  and  C_18
REMARK    8  A    between atoms: C_18  and  C_19
REMARK                            x       y       z     vdW  Elec       q    Type
REMARK                         _______ _______ _______ _____ _____    ______ ____
ROOT
ATOM      1  C   UNL     1       3.892   2.990  17.743  0.00  0.00    +0.000 C 
ATOM      2  O   UNL     1       4.353   1.866  17.561  0.00  0.00    +0.000 OA
ATOM      3  N   UNL     1       2.918   3.236  18.698  0.00  0.00    +0.000 N 
ATOM      4  C   UNL     1       2.204   2.037  19.163  0.00  0.00    +0.000 C 
ATOM      5  C   UNL     1       0.726   2.356  19.360  0.00  0.00    +0.000 C 
ATOM      6  O   UNL     1       0.567   3.411  20.314  0.00  0.00    +0.000 OA
ATOM      7  C   UNL     1       1.230   4.611  19.879  0.00  0.00    +0.000 C 
ATOM      8  C   UNL     1       2.752   4.396  19.651  0.00  0.00    +0.000 C 
ENDROOT
BRANCH   1   9
ATOM      9  C   UNL     1       4.268   4.105  16.797  0.00  0.00    +0.000 C 
BRANCH   9  10
ATOM     10  C   UNL     1       5.786   4.313  16.823  0.00  0.00    +0.000 C 
BRANCH  10  14
ATOM     11  C   UNL     1       6.492   4.251  13.365  0.00  0.00    +0.000 A 
ATOM     12  N   UNL     1       7.407   5.138  13.699  0.00  0.00    +0.000 NA
ATOM     13  N   UNL     1       7.297   5.317  15.063  0.00  0.00    +0.000 NA
ATOM     14  C   UNL     1       6.328   4.521  15.463  0.00  0.00    +0.000 A 
ATOM     15  O   UNL     1       5.761   3.811  14.438  0.00  0.00    +0.000 OA
BRANCH  11  17
ATOM     16  C   UNL     1       7.064   2.515  11.700  0.00  0.00    +0.000 C 
ATOM     17  C   UNL     1       6.155   3.700  12.025  0.00  0.00    +0.000 C 
ATOM     18  C   UNL     1       4.686   3.284  11.967  0.00  0.00    +0.000 C 
ENDBRANCH  11  17
ENDBRANCH  10  14
ENDBRANCH   9  10
ENDBRANCH   1   9
BRANCH   8  19
ATOM     19  C   UNL     1       3.457   5.728  19.333  0.00  0.00    +0.000 C 
BRANCH  19  20
ATOM     20  C   UNL     1       2.579   6.740  18.566  0.00  0.00    +0.000 C 
ATOM     21  C   UNL     1       2.062   8.078  19.177  0.00  0.00    +0.000 C 
ATOM     22  C   UNL     1       2.394   8.757  17.830  0.00  0.00    +0.000 C 
ATOM     23  C   UNL     1       3.391   7.617  17.571  0.00  0.00    +0.000 C 
ENDBRANCH  19  20
ENDBRANCH   8  19
TORSDOF 6
ENDMDL
MODEL 3
REMARK VINA RESULT:      -7.9      1.306      1.397
REMARK  Name = 
REMARK  8 active torsions:
REMARK  status: ('A' for Active; 'I' for Inactive)
REMARK    1  A    between atoms: C_1  and  C_2
REMARK    2  A    between atoms: C_2  and  C_3
REMARK    3  A    between atoms: C_2  and  C_4
REMARK    4  A    between atoms: C_7  and  C_8
REMARK    5  A    between atoms: C_8  and  C_9
REMARK    6  A    between atoms: C_9  and  C_10
REMARK    7  A    between atoms: C_17  and  C_18
REMARK    8  A    between atoms: C_18  and  C_19
REMARK                            x       y       z     vdW  Elec       q    Type
REMARK                         _______ _______ _______ _____ _____    ______ ____
ROOT
ATOM      1  C   UNL     1       4.553   4.086  19.003  0.00  0.00    +0.000 C 
ATOM      2  O   UNL     1       5.600   3.597  19.420  0.00  0.00    +0.000 OA
ATOM      3  N   UNL     1       3.368   3.997  19.718  0.00  0.00    +0.000 N 
ATOM      4  C   UNL     1       3.362   2.957  20.758  0.00  0.00    +0.000 C 
ATOM      5  C   UNL     1       1.998   2.275  20.801  0.00  0.00    +0.000 C 
ATOM      6  O   UNL     1       0.970   3.233  21.072  0.00  0.00    +0.000 OA
ATOM      7  C   UNL     1       0.928   4.253  20.059  0.00  0.00    +0.000 C 
ATOM      8  C   UNL     1       2.276   5.017  19.934  0.00  0.00    +0.000 C 
ENDROOT
BRANCH   1   9
ATOM      9  C   UNL     1       4.507   4.655  17.606  0.00  0.00    +0.000 C 
BRANCH   9  10
ATOM     10  C   UNL     1       5.704   5.588  17.389  0.00  0.00    +0.000 C 
BRANCH  10  14
ATOM     11  C   UNL     1       6.624   4.459  14.174  0.00  0.00    +0.000 A 
ATOM     12  N   UNL     1       7.621   5.304  14.339  0.00  0.00    +0.000 NA
ATOM     13  N   UNL     1       7.445   5.880  15.581  0.00  0.00    +0.000 NA
ATOM     14  C   UNL     1       6.357   5.338  16.086  0.00  0.00    +0.000 A 
ATOM     15  O   UNL     1       5.773   4.425  15.249  0.00  0.00    +0.000 OA
BRANCH  11  17
ATOM     16  C   UNL     1       4.825   3.685  12.664  0.00  0.00    +0.000 C 
ATOM     17  C   UNL     1       6.310   3.582  13.014  0.00  0.00    +0.000 C 
ATOM     18  C   UNL     1       7.174   3.951  11.810  0.00  0.00    +0.000 C 
ENDBRANCH  11  17
ENDBRANCH  10  14
ENDBRANCH   9  10
ENDBRANCH   1   9
BRANCH   8  19
ATOM     19  C   UNL     1       2.153   6.197  18.950  0.00  0.00    +0.000 C 
BRANCH  19  20
ATOM     20  C   UNL     1       2.223   7.586  19.619  0.00  0.00    +0.000 C 
ATOM     21  C   UNL     1       1.512   8.856  19.059  0.00  0.00    +0.000 C 
ATOM     22  C   UNL     1       1.114   9.206  20.510  0.00  0.00    +0.000 C 
ATOM     23  C   UNL     1       1.281   7.716  20.850  0.00  0.00    +0.000 C 
ENDBRANCH  19  20
ENDBRANCH   8  19
TORSDOF 6
ENDMDL
MODEL 4
REMARK VINA RESULT:      -7.8      0.873      1.115
REMARK  Name = 
REMARK  8 active torsions:
REMARK  status: ('A' for Active; 'I' for Inactive)
REMARK    1  A    between atoms: C_1  and  C_2
REMARK    2  A    between atoms: C_2  and  C_3
REMARK    3  A    between atoms: C_2  and  C_4
REMARK    4  A    between atoms: C_7  and  C_8
REMARK    5  A    between atoms: C_8  and  C_9
REMARK    6  A    between atoms: C_9  and  C_10
REMARK    7  A    between atoms: C_17  and  C_18
REMARK    8  A    between atoms: C_18  and  C_19
REMARK                            x       y       z     vdW  Elec       q    Type
REMARK                         _______ _______ _______ _____ _____    ______ ____
ROOT
ATOM      1  C   UNL     1       5.233   4.983  19.054  0.00  0.00    +0.000 C 
ATOM      2  O   UNL     1       6.255   4.387  19.380  0.00  0.00    +0.000 OA
ATOM      3  N   UNL     1       3.978   4.568  19.472  0.00  0.00    +0.000 N 
ATOM      4  C   UNL     1       3.927   3.181  19.958  0.00  0.00    +0.000 C 
ATOM      5  C   UNL     1       2.634   2.517  19.497  0.00  0.00    +0.000 C 
ATOM      6  O   UNL     1       1.500   3.240  19.986  0.00  0.00    +0.000 OA
ATOM      7  C   UNL     1       1.502   4.596  19.508  0.00  0.00    +0.000 C 
ATOM      8  C   UNL     1       2.783   5.370  19.928  0.00  0.00    +0.000 C 
ENDROOT
BRANCH   1   9
ATOM      9  C   UNL     1       5.319   6.100  18.041  0.00  0.00    +0.000 C 
BRANCH   9  10
ATOM     10  C   UNL     1       4.694   5.644  16.718  0.00  0.00    +0.000 C 
BRANCH  10  14
ATOM     11  C   UNL     1       6.534   4.435  13.959  0.00  0.00    +0.000 A 
ATOM     12  N   UNL     1       7.522   5.087  14.537  0.00  0.00    +0.000 NA
ATOM     13  N   UNL     1       6.997   5.660  15.678  0.00  0.00    +0.000 NA
ATOM     14  C   UNL     1       5.729   5.309  15.716  0.00  0.00    +0.000 A 
ATOM     15  O   UNL     1       5.356   4.530  14.653  0.00  0.00    +0.000 OA
BRANCH  11  17
ATOM     16  C   UNL     1       5.095   3.403  12.233  0.00  0.00    +0.000 C 
ATOM     17  C   UNL     1       6.531   3.651  12.695  0.00  0.00    +0.000 C 
ATOM     18  C   UNL     1       7.328   4.374  11.611  0.00  0.00    +0.000 C 
ENDBRANCH  11  17
ENDBRANCH  10  14
ENDBRANCH   9  10
ENDBRANCH   1   9
BRANCH   8  19
ATOM     19  C   UNL     1       2.686   6.856  19.531  0.00  0.00    +0.000 C 
BRANCH  19  20
ATOM     20  C   UNL     1       1.458   7.586  20.115  0.00  0.00    +0.000 C 
ATOM     21  C   UNL     1       1.442   8.275  21.514  0.00  0.00    +0.000 C 
ATOM     22  C   UNL     1       0.668   9.445  20.868  0.00  0.00    +0.000 C 
ATOM     23  C   UNL     1       1.257   9.008  19.517  0.00  0.00    +0.000 C 
ENDBRANCH  19  20
ENDBRANCH   8  19
TORSDOF 6
ENDMDL
MODEL 5
REMARK VINA RESULT:      -7.8      1.597      2.009
REMARK  Name = 
REMARK  8 active torsions:
REMARK  status: ('A' for Active; 'I' for Inactive)
REMARK    1  A    between atoms: C_1  and  C_2
REMARK    2  A    between atoms: C_2  and  C_3
REMARK    3  A    between atoms: C_2  and  C_4
REMARK    4  A    between atoms: C_7  and  C_8
REMARK    5  A    between atoms: C_8  and  C_9
REMARK    6  A    between atoms: C_9  and  C_10
REMARK    7  A    between atoms: C_17  and  C_18
REMARK    8  A    between atoms: C_18  and  C_19
REMARK                            x       y       z     vdW  Elec       q    Type
REMARK                         _______ _______ _______ _____ _____    ______ ____
ROOT
ATOM      1  C   UNL     1       4.457   3.306  19.108  0.00  0.00    +0.000 C 
ATOM      2  O   UNL     1       5.155   2.400  19.553  0.00  0.00    +0.000 OA
ATOM      3  N   UNL     1       3.347   3.779  19.792  0.00  0.00    +0.000 N 
ATOM      4  C   UNL     1       2.844   2.872  20.835  0.00  0.00    +0.000 C 
ATOM      5  C   UNL     1       1.319   2.889  20.845  0.00  0.00    +0.000 C 
ATOM      6  O   UNL     1       0.837   4.215  21.086  0.00  0.00    +0.000 OA
ATOM      7  C   UNL     1       1.287   5.125  20.068  0.00  0.00    +0.000 C 
ATOM      8  C   UNL     1       2.837   5.188  19.975  0.00  0.00    +0.000 C 
ENDROOT
BRANCH   1   9
ATOM      9  C   UNL     1       4.706   3.812  17.707  0.00  0.00    +0.000 C 
BRANCH   9  10
ATOM     10  C   UNL     1       5.962   4.690  17.693  0.00  0.00    +0.000 C 
BRANCH  10  14
ATOM     11  C   UNL     1       6.741   4.396  14.262  0.00  0.00    +0.000 A 
ATOM     12  N   UNL     1       7.553   5.400  14.526  0.00  0.00    +0.000 NA
ATOM     13  N   UNL     1       7.397   5.687  15.867  0.00  0.00    +0.000 NA
ATOM     14  C   UNL     1       6.507   4.833  16.325  0.00  0.00    +0.000 A 
ATOM     15  O   UNL     1       6.038   3.978  15.363  0.00  0.00    +0.000 OA
BRANCH  11  17
ATOM     16  C   UNL     1       4.994   3.680  12.666  0.00  0.00    +0.000 C 
ATOM     17  C   UNL     1       6.491   3.696  12.974  0.00  0.00    +0.000 C 
ATOM     18  C   UNL     1       7.268   4.362  11.839  0.00  0.00    +0.000 C 
ENDBRANCH  11  17
ENDBRANCH  10  14
ENDBRANCH   9  10
ENDBRANCH   1   9
BRANCH   8  19
ATOM     19  C   UNL     1       3.288   6.279  18.984  0.00  0.00    +0.000 C 
BRANCH  19  20
ATOM     20  C   UNL     1       2.179   7.282  18.603  0.00  0.00    +0.000 C 
ATOM     21  C   UNL     1       1.806   8.531  19.460  0.00  0.00    +0.000 C 
ATOM     22  C   UNL     1       1.696   9.332  18.145  0.00  0.00    +0.000 C 
ATOM     23  C   UNL     1       2.622   8.288  17.502  0.00  0.00    +0.000 C 
ENDBRANCH  19  20
ENDBRANCH   8  19
TORSDOF 6
ENDMDL
MODEL 6
REMARK VINA RESULT:      -7.8      2.261      3.766
REMARK  Name = 
REMARK  8 active torsions:
REMARK  status: ('A' for Active; 'I' for Inactive)
REMARK    1  A    between atoms: C_1  and  C_2
REMARK    2  A    between atoms: C_2  and  C_3
REMARK    3  A    between atoms: C_2  and  C_4
REMARK    4  A    between atoms: C_7  and  C_8
REMARK    5  A    between atoms: C_8  and  C_9
REMARK    6  A    between atoms: C_9  and  C_10
REMARK    7  A    between atoms: C_17  and  C_18
REMARK    8  A    between atoms: C_18  and  C_19
REMARK                            x       y       z     vdW  Elec       q    Type
REMARK                         _______ _______ _______ _____ _____    ______ ____
ROOT
ATOM      1  C   UNL     1       3.473   2.886  18.036  0.00  0.00    +0.000 C 
ATOM      2  O   UNL     1       3.846   1.736  17.822  0.00  0.00    +0.000 OA
ATOM      3  N   UNL     1       3.054   3.299  19.292  0.00  0.00    +0.000 N 
ATOM      4  C   UNL     1       2.701   2.201  20.206  0.00  0.00    +0.000 C 
ATOM      5  C   UNL     1       1.476   2.586  21.030  0.00  0.00    +0.000 C 
ATOM      6  O   UNL     1       1.736   3.775  21.783  0.00  0.00    +0.000 OA
ATOM      7  C   UNL     1       2.059   4.879  20.919  0.00  0.00    +0.000 C 
ATOM      8  C   UNL     1       3.302   4.591  20.031  0.00  0.00    +0.000 C 
ENDROOT
BRANCH   1   9
ATOM      9  C   UNL     1       3.306   3.838  16.876  0.00  0.00    +0.000 C 
BRANCH   9  10
ATOM     10  C   UNL     1       4.582   3.842  16.025  0.00  0.00    +0.000 C 
BRANCH  10  14
ATOM     11  C   UNL     1       6.907   6.188  17.268  0.00  0.00    +0.000 A 
ATOM     12  N   UNL     1       6.376   6.963  16.344  0.00  0.00    +0.000 NA
ATOM     13  N   UNL     1       5.407   6.210  15.712  0.00  0.00    +0.000 NA
ATOM     14  C   UNL     1       5.413   5.033  16.301  0.00  0.00    +0.000 A 
ATOM     15  O   UNL     1       6.344   4.939  17.302  0.00  0.00    +0.000 OA
BRANCH  11  17
ATOM     16  C   UNL     1       8.182   7.992  18.379  0.00  0.00    +0.000 C 
ATOM     17  C   UNL     1       8.002   6.481  18.231  0.00  0.00    +0.000 C 
ATOM     18  C   UNL     1       7.715   5.837  19.586  0.00  0.00    +0.000 C 
ENDBRANCH  11  17
ENDBRANCH  10  14
ENDBRANCH   9  10
ENDBRANCH   1   9
BRANCH   8  19
ATOM     19  C   UNL     1       3.711   5.842  19.230  0.00  0.00    +0.000 C 
BRANCH  19  20
ATOM     20  C   UNL     1       2.523   6.722  18.784  0.00  0.00    +0.000 C 
ATOM     21  C   UNL     1       2.022   7.968  19.577  0.00  0.00    +0.000 C 
ATOM     22  C   UNL     1       1.866   8.697  18.223  0.00  0.00    +0.000 C 
ATOM     23  C   UNL     1       2.896   7.713  17.645  0.00  0.00    +0.000 C 
ENDBRANCH  19  20
ENDBRANCH   8  19
TORSDOF 6
ENDMDL
MODEL 7
REMARK VINA RESULT:      -7.7      1.167      1.505
REMARK  Name = 
REMARK  8 active torsions:
REMARK  status: ('A' for Active; 'I' for Inactive)
REMARK    1  A    between atoms: C_1  and  C_2
REMARK    2  A    between atoms: C_2  and  C_3
REMARK    3  A    between atoms: C_2  and  C_4
REMARK    4  A    between atoms: C_7  and  C_8
REMARK    5  A    between atoms: C_8  and  C_9
REMARK    6  A    between atoms: C_9  and  C_10
REMARK    7  A    between atoms: C_17  and  C_18
REMARK    8  A    between atoms: C_18  and  C_19
REMARK                            x       y       z     vdW  Elec       q    Type
REMARK                         _______ _______ _______ _____ _____    ______ ____
ROOT
ATOM      1  C   UNL     1       5.159   4.684  19.072  0.00  0.00    +0.000 C 
ATOM      2  O   UNL     1       5.970   4.442  19.961  0.00  0.00    +0.000 OA
ATOM      3  N   UNL     1       3.808   4.409  19.218  0.00  0.00    +0.000 N 
ATOM      4  C   UNL     1       3.494   3.459  20.295  0.00  0.00    +0.000 C 
ATOM      5  C   UNL     1       2.373   2.524  19.852  0.00  0.00    +0.000 C 
ATOM      6  O   UNL     1       1.202   3.275  19.516  0.00  0.00    +0.000 OA
ATOM      7  C   UNL     1       1.465   4.197  18.445  0.00  0.00    +0.000 C 
ATOM      8  C   UNL     1       2.596   5.204  18.796  0.00  0.00    +0.000 C 
ENDROOT
BRANCH   1   9
ATOM      9  C   UNL     1       5.657   5.141  17.721  0.00  0.00    +0.000 C 
BRANCH   9  10
ATOM     10  C   UNL     1       5.471   4.016  16.696  0.00  0.00    +0.000 C 
BRANCH  10  14
ATOM     11  C   UNL     1       6.513   4.215  13.330  0.00  0.00    +0.000 A 
ATOM     12  N   UNL     1       7.343   5.120  13.808  0.00  0.00    +0.000 NA
ATOM     13  N   UNL     1       7.091   5.204  15.163  0.00  0.00    +0.000 NA
ATOM     14  C   UNL     1       6.131   4.339  15.413  0.00  0.00    +0.000 A 
ATOM     15  O   UNL     1       5.706   3.671  14.295  0.00  0.00    +0.000 OA
BRANCH  11  17
ATOM     16  C   UNL     1       7.315   2.598  11.640  0.00  0.00    +0.000 C 
ATOM     17  C   UNL     1       6.340   3.738  11.932  0.00  0.00    +0.000 C 
ATOM     18  C   UNL     1       4.900   3.290  11.690  0.00  0.00    +0.000 C 
ENDBRANCH  11  17
ENDBRANCH  10  14
ENDBRANCH   9  10
ENDBRANCH   1   9
BRANCH   8  19
ATOM     19  C   UNL     1       2.750   6.269  17.693  0.00  0.00    +0.000 C 
BRANCH  19  20
ATOM     20  C   UNL     1       2.660   7.723  18.203  0.00  0.00    +0.000 C 
ATOM     21  C   UNL     1       1.580   8.744  17.730  0.00  0.00    +0.000 C 
ATOM     22  C   UNL     1       1.449   9.203  19.198  0.00  0.00    +0.000 C 
ATOM     23  C   UNL     1       2.011   7.834  19.612  0.00  0.00    +0.000 C 
ENDBRANCH  19  20
ENDBRANCH   8  19
TORSDOF 6
ENDMDL
MODEL 8
REMARK VINA RESULT:      -7.6      1.373      1.669
REMARK  Name = 
REMARK  8 active torsions:
REMARK  status: ('A' for Active; 'I' for Inactive)
REMARK    1  A    between atoms: C_1  and  C_2
REMARK    2  A    between atoms: C_2  and  C_3
REMARK    3  A    between atoms: C_2  and  C_4
REMARK    4  A    between atoms: C_7  and  C_8
REMARK    5  A    between atoms: C_8  and  C_9
REMARK    6  A    between atoms: C_9  and  C_10
REMARK    7  A    between atoms: C_17  and  C_18
REMARK    8  A    between atoms: C_18  and  C_19
REMARK                            x       y       z     vdW  Elec       q    Type
REMARK                         _______ _______ _______ _____ _____    ______ ____
ROOT
ATOM      1  C   UNL     1       5.773   5.552  18.911  0.00  0.00    +0.000 C 
ATOM      2  O   UNL     1       6.615   5.134  19.700  0.00  0.00    +0.000 OA
ATOM      3  N   UNL     1       4.479   5.056  18.889  0.00  0.00    +0.000 N 
ATOM      4  C   UNL     1       4.314   3.757  19.560  0.00  0.00    +0.000 C 
ATOM      5  C   UNL     1       3.342   2.886  18.771  0.00  0.00    +0.000 C 
ATOM      6  O   UNL     1       2.071   3.533  18.657  0.00  0.00    +0.000 OA
ATOM      7  C   UNL     1       2.189   4.796  17.980  0.00  0.00    +0.000 C 
ATOM      8  C   UNL     1       3.160   5.768  18.708  0.00  0.00    +0.000 C 
ENDROOT
BRANCH   1   9
ATOM      9  C   UNL     1       6.191   6.512  17.823  0.00  0.00    +0.000 C 
BRANCH   9  10
ATOM     10  C   UNL     1       7.334   5.899  17.005  0.00  0.00    +0.000 C 
BRANCH  10  14
ATOM     11  C   UNL     1       6.695   4.118  14.026  0.00  0.00    +0.000 A 
ATOM     12  N   UNL     1       5.787   3.520  14.768  0.00  0.00    +0.000 NA
ATOM     13  N   UNL     1       5.872   4.087  16.024  0.00  0.00    +0.000 NA
ATOM     14  C   UNL     1       6.822   4.995  15.953  0.00  0.00    +0.000 A 
ATOM     15  O   UNL     1       7.399   5.074  14.713  0.00  0.00    +0.000 OA
BRANCH  11  17
ATOM     16  C   UNL     1       5.872   3.256  11.860  0.00  0.00    +0.000 C 
ATOM     17  C   UNL     1       7.050   3.890  12.599  0.00  0.00    +0.000 C 
ATOM     18  C   UNL     1       7.464   5.200  11.931  0.00  0.00    +0.000 C 
ENDBRANCH  11  17
ENDBRANCH  10  14
ENDBRANCH   9  10
ENDBRANCH   1   9
BRANCH   8  19
ATOM     19  C   UNL     1       3.149   7.159  18.045  0.00  0.00    +0.000 C 
BRANCH  19  20
ATOM     20  C   UNL     1       1.872   7.981  18.323  0.00  0.00    +0.000 C 
ATOM     21  C   UNL     1       1.516   8.588  19.715  0.00  0.00    +0.000 C 
ATOM     22  C   UNL     1       1.060   9.867  18.979  0.00  0.00    +0.000 C 
ATOM     23  C   UNL     1       1.970   9.447  17.814  0.00  0.00    +0.000 C 
ENDBRANCH  19  20
ENDBRANCH   8  19
TORSDOF 6
ENDMDL
MODEL 9
REMARK VINA RESULT:      -7.6      1.287      1.819
REMARK  Name = 
REMARK  8 active torsions:
REMARK  status: ('A' for Active; 'I' for Inactive)
REMARK    1  A    between atoms: C_1  and  C_2
REMARK    2  A    between atoms: C_2  and  C_3
REMARK    3  A    between atoms: C_2  and  C_4
REMARK    4  A    between atoms: C_7  and  C_8
REMARK    5  A    between atoms: C_8  and  C_9
REMARK    6  A    between atoms: C_9  and  C_10
REMARK    7  A    between atoms: C_17  and  C_18
REMARK    8  A    between atoms: C_18  and  C_19
REMARK                            x       y       z     vdW  Elec       q    Type
REMARK                         _______ _______ _______ _____ _____    ______ ____
ROOT
ATOM      1  C   UNL     1       5.913   4.852  18.151  0.00  0.00    +0.000 C 
ATOM      2  O   UNL     1       6.947   4.360  18.593  0.00  0.00    +0.000 OA
ATOM      3  N   UNL     1       4.680   4.619  18.741  0.00  0.00    +0.000 N 
ATOM      4  C   UNL     1       4.646   3.452  19.636  0.00  0.00    +0.000 C 
ATOM      5  C   UNL     1       3.323   2.712  19.472  0.00  0.00    +0.000 C 
ATOM      6  O   UNL     1       2.225   3.580  19.770  0.00  0.00    +0.000 OA
ATOM      7  C   UNL     1       2.211   4.721  18.895  0.00  0.00    +0.000 C 
ATOM      8  C   UNL     1       3.520   5.553  18.987  0.00  0.00    +0.000 C 
ENDROOT
BRANCH   1   9
ATOM      9  C   UNL     1       5.951   5.597  16.839  0.00  0.00    +0.000 C 
BRANCH   9  10
ATOM     10  C   UNL     1       5.011   4.920  15.834  0.00  0.00    +0.000 C 
BRANCH  10  14
ATOM     11  C   UNL     1       5.968   3.706  12.661  0.00  0.00    +0.000 A 
ATOM     12  N   UNL     1       7.130   4.231  12.989  0.00  0.00    +0.000 NA
ATOM     13  N   UNL     1       6.970   4.784  14.244  0.00  0.00    +0.000 NA
ATOM     14  C   UNL     1       5.723   4.549  14.592  0.00  0.00    +0.000 A 
ATOM     15  O   UNL     1       5.017   3.869  13.635  0.00  0.00    +0.000 OA
BRANCH  11  17
ATOM     16  C   UNL     1       6.026   1.542  11.467  0.00  0.00    +0.000 C 
ATOM     17  C   UNL     1       5.568   2.999  11.415  0.00  0.00    +0.000 C 
ATOM     18  C   UNL     1       4.056   3.082  11.209  0.00  0.00    +0.000 C 
ENDBRANCH  11  17
ENDBRANCH  10  14
ENDBRANCH   9  10
ENDBRANCH   1   9
BRANCH   8  19
ATOM     19  C   UNL     1       3.414   6.845  18.154  0.00  0.00    +0.000 C 
BRANCH  19  20
ATOM     20  C   UNL     1       2.105   7.633  18.376  0.00  0.00    +0.000 C 
ATOM     21  C   UNL     1       1.712   8.299  19.731  0.00  0.00    +0.000 C 
ATOM     22  C   UNL     1       1.220   9.521  18.925  0.00  0.00    +0.000 C 
ATOM     23  C   UNL     1       2.158   9.074  17.792  0.00  0.00    +0.000 C 
ENDBRANCH  19  20
ENDBRANCH   8  19
TORSDOF 6
ENDMDL
