MODEL 1
REMARK VINA RESULT:      -8.4      0.000      0.000
REMARK  Name = 
REMARK  8 active torsions:
REMARK  status: ('A' for Active; 'I' for Inactive)
REMARK    1  A    between atoms: C_1  and  O_2
REMARK    2  A    between atoms: O_2  and  C_3
REMARK    3  A    between atoms: C_5  and  C_6
REMARK    4  A    between atoms: C_6  and  C_7
REMARK    5  A    between atoms: C_13  and  N_14
REMARK    6  A    between atoms: C_17  and  O_18
REMARK    7  A    between atoms: O_18  and  C_19
REMARK    8  A    between atoms: C_21  and  C_22
REMARK                            x       y       z     vdW  Elec       q    Type
REMARK                         _______ _______ _______ _____ _____    ______ ____
ROOT
ATOM      1  C   UNL     1       1.890   4.212  18.634  0.00  0.00    +0.000 A 
ATOM      2  C   UNL     1       1.887   5.600  18.798  0.00  0.00    +0.000 A 
ATOM      3  C   UNL     1       2.851   6.412  18.182  0.00  0.00    +0.000 A 
ATOM      4  C   UNL     1       3.907   5.801  17.469  0.00  0.00    +0.000 A 
ATOM      5  C   UNL     1       3.907   4.397  17.293  0.00  0.00    +0.000 A 
ATOM      6  C   UNL     1       2.905   3.597  17.879  0.00  0.00    +0.000 A 
ATOM      7  O   UNL     1       4.801   3.798  16.438  0.00  0.00    +0.000 OA
ATOM      8  C   UNL     1       6.084   4.415  16.277  0.00  0.00    +0.000 C 
ATOM      9  C   UNL     1       6.048   5.913  16.371  0.00  0.00    +0.000 C 
ATOM     10  C   UNL     1       5.011   6.574  16.898  0.00  0.00    +0.000 C 
ENDROOT
BRANCH   8  11
ATOM     11  C   UNL     1       6.647   3.943  14.952  0.00  0.00    +0.000 C 
ATOM     12  C   UNL     1       6.997   4.916  13.851  0.00  0.00    +0.000 C 
ATOM     13  C   UNL     1       5.805   4.014  13.699  0.00  0.00    +0.000 C 
ENDBRANCH   8  11
BRANCH   1  15
ATOM     14  C   UNL     1       1.039   3.229  20.612  0.00  0.00    +0.000 C 
ATOM     15  O   UNL     1       0.938   3.401  19.202  0.00  0.00    +0.000 OA
ENDBRANCH   1  15
BRANCH   6  16
ATOM     16  O   UNL     1       2.772   2.238  17.728  0.00  0.00    +0.000 OA
ATOM     17  C   UNL     1       3.612   1.408  18.516  0.00  0.00    +0.000 C 
ENDBRANCH   6  16
BRANCH   3  18
ATOM     18  C   UNL     1       2.608   7.908  18.238  0.00  0.00    +0.000 C 
BRANCH  18  19
ATOM     19  C   UNL     1       1.681   8.456  19.278  0.00  0.00    +0.000 A 
ATOM     20  C   UNL     1       1.672   8.040  20.592  0.00  0.00    +0.000 A 
ATOM     21  N   UNL     1       1.044   8.699  21.584  0.00  0.00    +0.000 NA
ATOM     22  C   UNL     1       0.397   9.811  21.234  0.00  0.00    +0.000 A 
ATOM     23  N   UNL     1      -0.082  10.609  22.247  0.00  0.00    +0.000 N 
ATOM     24  N   UNL     1       0.223  10.230  19.981  0.00  0.00    +0.000 NA
ATOM     25  C   UNL     1       0.868   9.553  19.022  0.00  0.00    +0.000 A 
ATOM     26  H   UNL     1      -0.212  10.081  23.096  0.00  0.00    +0.000 HD
ATOM     27  H   UNL     1      -0.830  11.202  21.923  0.00  0.00    +0.000 HD
BRANCH  25  28
ATOM     28  N   UNL     1       0.651  10.025  17.728  0.00  0.00    +0.000 N 
ATOM     29  H   UNL     1      -0.357  10.011  17.571  0.00  0.00    +0.000 HD
ATOM     30  H   UNL     1       1.027  10.959  17.587  0.00  0.00    +0.000 HD
ENDBRANCH  25  28
ENDBRANCH  18  19
ENDBRANCH   3  18
TORSDOF 6
ENDMDL
MODEL 2
REMARK VINA RESULT:      -8.1      3.871      7.209
REMARK  Name = 
REMARK  8 active torsions:
REMARK  status: ('A' for Active; 'I' for Inactive)
REMARK    1  A    between atoms: C_1  and  O_2
REMARK    2  A    between atoms: O_2  and  C_3
REMARK    3  A    between atoms: C_5  and  C_6
REMARK    4  A    between atoms: C_6  and  C_7
REMARK    5  A    between atoms: C_13  and  N_14
REMARK    6  A    between atoms: C_17  and  O_18
REMARK    7  A    between atoms: O_18  and  C_19
REMARK    8  A    between atoms: C_21  and  C_22
REMARK                            x       y       z     vdW  Elec       q    Type
REMARK                         _______ _______ _______ _____ _____    ______ ____
ROOT
ATOM      1  C   UNL     1       3.666   4.179  19.140  0.00  0.00    +0.000 A 
ATOM      2  C   UNL     1       4.204   4.710  17.965  0.00  0.00    +0.000 A 
ATOM      3  C   UNL     1       3.982   6.046  17.596  0.00  0.00    +0.000 A 
ATOM      4  C   UNL     1       3.109   6.836  18.377  0.00  0.00    +0.000 A 
ATOM      5  C   UNL     1       2.572   6.304  19.574  0.00  0.00    +0.000 A 
ATOM      6  C   UNL     1       2.842   4.975  19.956  0.00  0.00    +0.000 A 
ATOM      7  O   UNL     1       1.891   7.109  20.455  0.00  0.00    +0.000 OA
ATOM      8  C   UNL     1       1.155   8.214  19.915  0.00  0.00    +0.000 C 
ATOM      9  C   UNL     1       1.793   8.826  18.701  0.00  0.00    +0.000 C 
ATOM     10  C   UNL     1       2.739   8.199  17.993  0.00  0.00    +0.000 C 
ENDROOT
BRANCH   8  11
ATOM     11  C   UNL     1       0.974   9.223  21.030  0.00  0.00    +0.000 C 
ATOM     12  C   UNL     1       0.077   8.941  22.213  0.00  0.00    +0.000 C 
ATOM     13  C   UNL     1      -0.338   9.958  21.187  0.00  0.00    +0.000 C 
ENDBRANCH   8  11
BRANCH   1  15
ATOM     14  C   UNL     1       3.577   1.882  18.577  0.00  0.00    +0.000 C 
ATOM     15  O   UNL     1       3.896   2.884  19.536  0.00  0.00    +0.000 OA
ENDBRANCH   1  15
BRANCH   6  16
ATOM     16  O   UNL     1       2.424   4.373  21.119  0.00  0.00    +0.000 OA
ATOM     17  C   UNL     1       1.269   3.551  21.050  0.00  0.00    +0.000 C 
ENDBRANCH   6  16
BRANCH   3  18
ATOM     18  C   UNL     1       4.803   6.570  16.434  0.00  0.00    +0.000 C 
BRANCH  18  19
ATOM     19  C   UNL     1       5.485   5.594  15.526  0.00  0.00    +0.000 A 
ATOM     20  C   UNL     1       4.814   4.715  14.703  0.00  0.00    +0.000 A 
ATOM     21  N   UNL     1       5.396   4.031  13.701  0.00  0.00    +0.000 NA
ATOM     22  C   UNL     1       6.702   4.237  13.529  0.00  0.00    +0.000 A 
ATOM     23  N   UNL     1       7.282   3.711  12.397  0.00  0.00    +0.000 N 
ATOM     24  N   UNL     1       7.475   4.951  14.346  0.00  0.00    +0.000 NA
ATOM     25  C   UNL     1       6.859   5.623  15.328  0.00  0.00    +0.000 A 
ATOM     26  H   UNL     1       6.744   2.938  12.038  0.00  0.00    +0.000 HD
ATOM     27  H   UNL     1       8.277   3.600  12.513  0.00  0.00    +0.000 HD
BRANCH  25  28
ATOM     28  N   UNL     1       7.710   6.352  16.159  0.00  0.00    +0.000 N 
ATOM     29  H   UNL     1       8.663   6.066  15.933  0.00  0.00    +0.000 HD
ATOM     30  H   UNL     1       7.597   7.355  16.046  0.00  0.00    +0.000 HD
ENDBRANCH  25  28
ENDBRANCH  18  19
ENDBRANCH   3  18
TORSDOF 6
ENDMDL
MODEL 3
REMARK VINA RESULT:      -8.1      3.514      6.258
REMARK  Name = 
REMARK  8 active torsions:
REMARK  status: ('A' for Active; 'I' for Inactive)
REMARK    1  A    between atoms: C_1  and  O_2
REMARK    2  A    between atoms: O_2  and  C_3
REMARK    3  A    between atoms: C_5  and  C_6
REMARK    4  A    between atoms: C_6  and  C_7
REMARK    5  A    between atoms: C_13  and  N_14
REMARK    6  A    between atoms: C_17  and  O_18
REMARK    7  A    between atoms: O_18  and  C_19
REMARK    8  A    between atoms: C_21  and  C_22
REMARK                            x       y       z     vdW  Elec       q    Type
REMARK                         _______ _______ _______ _____ _____    ______ ____
ROOT
ATOM      1  C   UNL     1       2.897   3.252  18.740  0.00  0.00    +0.000 A 
ATOM      2  C   UNL     1       3.744   3.685  17.717  0.00  0.00    +0.000 A 
ATOM      3  C   UNL     1       3.941   5.049  17.456  0.00  0.00    +0.000 A 
ATOM      4  C   UNL     1       3.183   6.000  18.176  0.00  0.00    +0.000 A 
ATOM      5  C   UNL     1       2.333   5.566  19.220  0.00  0.00    +0.000 A 
ATOM      6  C   UNL     1       2.181   4.193  19.502  0.00  0.00    +0.000 A 
ATOM      7  O   UNL     1       1.744   6.473  20.068  0.00  0.00    +0.000 OA
ATOM      8  C   UNL     1       1.421   7.766  19.540  0.00  0.00    +0.000 C 
ATOM      9  C   UNL     1       2.391   8.251  18.502  0.00  0.00    +0.000 C 
ATOM     10  C   UNL     1       3.249   7.432  17.881  0.00  0.00    +0.000 C 
ENDROOT
BRANCH   8  11
ATOM     11  C   UNL     1       1.321   8.719  20.713  0.00  0.00    +0.000 C 
ATOM     12  C   UNL     1       0.167   8.658  21.685  0.00  0.00    +0.000 C 
ATOM     13  C   UNL     1       0.271   9.807  20.722  0.00  0.00    +0.000 C 
ENDBRANCH   8  11
BRANCH   1  15
ATOM     14  C   UNL     1       3.764   1.053  18.623  0.00  0.00    +0.000 C 
ATOM     15  O   UNL     1       2.714   1.923  19.033  0.00  0.00    +0.000 OA
ENDBRANCH   1  15
BRANCH   6  16
ATOM     16  O   UNL     1       1.431   3.661  20.524  0.00  0.00    +0.000 OA
ATOM     17  C   UNL     1       2.094   3.401  21.752  0.00  0.00    +0.000 C 
ENDBRANCH   6  16
BRANCH   3  18
ATOM     18  C   UNL     1       5.054   5.397  16.486  0.00  0.00    +0.000 C 
BRANCH  18  19
ATOM     19  C   UNL     1       6.254   6.137  16.990  0.00  0.00    +0.000 A 
ATOM     20  C   UNL     1       6.536   7.447  16.668  0.00  0.00    +0.000 A 
ATOM     21  N   UNL     1       7.447   8.200  17.314  0.00  0.00    +0.000 NA
ATOM     22  C   UNL     1       8.098   7.605  18.315  0.00  0.00    +0.000 A 
ATOM     23  N   UNL     1       8.883   8.400  19.118  0.00  0.00    +0.000 N 
ATOM     24  N   UNL     1       8.007   6.312  18.622  0.00  0.00    +0.000 NA
ATOM     25  C   UNL     1       7.086   5.597  17.962  0.00  0.00    +0.000 A 
ATOM     26  H   UNL     1       9.161   9.242  18.638  0.00  0.00    +0.000 HD
ATOM     27  H   UNL     1       9.587   7.857  19.594  0.00  0.00    +0.000 HD
BRANCH  25  28
ATOM     28  N   UNL     1       7.031   4.249  18.316  0.00  0.00    +0.000 N 
ATOM     29  H   UNL     1       7.317   4.186  19.293  0.00  0.00    +0.000 HD
ATOM     30  H   UNL     1       6.106   3.850  18.182  0.00  0.00    +0.000 HD
ENDBRANCH  25  28
ENDBRANCH  18  19
ENDBRANCH   3  18
TORSDOF 6
ENDMDL
MODEL 4
REMARK VINA RESULT:      -8.0      1.100      2.053
REMARK  Name = 
REMARK  8 active torsions:
REMARK  status: ('A' for Active; 'I' for Inactive)
REMARK    1  A    between atoms: C_1  and  O_2
REMARK    2  A    between atoms: O_2  and  C_3
REMARK    3  A    between atoms: C_5  and  C_6
REMARK    4  A    between atoms: C_6  and  C_7
REMARK    5  A    between atoms: C_13  and  N_14
REMARK    6  A    between atoms: C_17  and  O_18
REMARK    7  A    between atoms: O_18  and  C_19
REMARK    8  A    between atoms: C_21  and  C_22
REMARK                            x       y       z     vdW  Elec       q    Type
REMARK                         _______ _______ _______ _____ _____    ______ ____
ROOT
ATOM      1  C   UNL     1       1.712   4.150  19.585  0.00  0.00    +0.000 A 
ATOM      2  C   UNL     1       1.743   5.416  20.174  0.00  0.00    +0.000 A 
ATOM      3  C   UNL     1       2.537   6.448  19.651  0.00  0.00    +0.000 A 
ATOM      4  C   UNL     1       3.403   6.165  18.570  0.00  0.00    +0.000 A 
ATOM      5  C   UNL     1       3.365   4.887  17.965  0.00  0.00    +0.000 A 
ATOM      6  C   UNL     1       2.528   3.874  18.472  0.00  0.00    +0.000 A 
ATOM      7  O   UNL     1       4.040   4.647  16.792  0.00  0.00    +0.000 OA
ATOM      8  C   UNL     1       5.251   5.378  16.558  0.00  0.00    +0.000 C 
ATOM      9  C   UNL     1       5.233   6.768  17.125  0.00  0.00    +0.000 C 
ATOM     10  C   UNL     1       4.343   7.157  18.046  0.00  0.00    +0.000 C 
ENDROOT
BRANCH   8  11
ATOM     11  C   UNL     1       5.495   5.378  15.063  0.00  0.00    +0.000 C 
ATOM     12  C   UNL     1       5.549   4.093  14.271  0.00  0.00    +0.000 C 
ATOM     13  C   UNL     1       6.808   4.879  14.506  0.00  0.00    +0.000 C 
ENDBRANCH   8  11
BRANCH   1  15
ATOM     14  C   UNL     1       1.297   2.599  21.324  0.00  0.00    +0.000 C 
ATOM     15  O   UNL     1       0.918   3.135  20.061  0.00  0.00    +0.000 OA
ENDBRANCH   1  15
BRANCH   6  16
ATOM     16  O   UNL     1       2.367   2.620  17.933  0.00  0.00    +0.000 OA
ATOM     17  C   UNL     1       3.368   1.654  18.216  0.00  0.00    +0.000 C 
ENDBRANCH   6  16
BRANCH   3  18
ATOM     18  C   UNL     1       2.310   7.832  20.227  0.00  0.00    +0.000 C 
BRANCH  18  19
ATOM     19  C   UNL     1       1.422   8.789  19.494  0.00  0.00    +0.000 A 
ATOM     20  C   UNL     1       1.472   8.990  18.132  0.00  0.00    +0.000 A 
ATOM     21  N   UNL     1       0.519   9.633  17.432  0.00  0.00    +0.000 NA
ATOM     22  C   UNL     1      -0.516  10.094  18.135  0.00  0.00    +0.000 A 
ATOM     23  N   UNL     1      -1.595  10.575  17.429  0.00  0.00    +0.000 N 
ATOM     24  N   UNL     1      -0.602  10.081  19.464  0.00  0.00    +0.000 NA
ATOM     25  C   UNL     1       0.362   9.426  20.126  0.00  0.00    +0.000 A 
ATOM     26  H   UNL     1      -1.325  10.860  16.500  0.00  0.00    +0.000 HD
ATOM     27  H   UNL     1      -2.148  11.205  17.990  0.00  0.00    +0.000 HD
BRANCH  25  28
ATOM     28  N   UNL     1       0.231   9.443  21.514  0.00  0.00    +0.000 N 
ATOM     29  H   UNL     1      -0.760   9.578  21.717  0.00  0.00    +0.000 HD
ATOM     30  H   UNL     1       0.578   8.592  21.947  0.00  0.00    +0.000 HD
ENDBRANCH  25  28
ENDBRANCH  18  19
ENDBRANCH   3  18
TORSDOF 6
ENDMDL
MODEL 5
REMARK VINA RESULT:      -7.9      0.951      1.092
REMARK  Name = 
REMARK  8 active torsions:
REMARK  status: ('A' for Active; 'I' for Inactive)
REMARK    1  A    between atoms: C_1  and  O_2
REMARK    2  A    between atoms: O_2  and  C_3
REMARK    3  A    between atoms: C_5  and  C_6
REMARK    4  A    between atoms: C_6  and  C_7
REMARK    5  A    between atoms: C_13  and  N_14
REMARK    6  A    between atoms: C_17  and  O_18
REMARK    7  A    between atoms: O_18  and  C_19
REMARK    8  A    between atoms: C_21  and  C_22
REMARK                            x       y       z     vdW  Elec       q    Type
REMARK                         _______ _______ _______ _____ _____    ______ ____
ROOT
ATOM      1  C   UNL     1       1.776   4.639  19.379  0.00  0.00    +0.000 A 
ATOM      2  C   UNL     1       1.749   6.007  19.660  0.00  0.00    +0.000 A 
ATOM      3  C   UNL     1       2.517   6.921  18.923  0.00  0.00    +0.000 A 
ATOM      4  C   UNL     1       3.415   6.432  17.948  0.00  0.00    +0.000 A 
ATOM      5  C   UNL     1       3.436   5.048  17.653  0.00  0.00    +0.000 A 
ATOM      6  C   UNL     1       2.624   4.146  18.370  0.00  0.00    +0.000 A 
ATOM      7  O   UNL     1       4.144   4.571  16.576  0.00  0.00    +0.000 OA
ATOM      8  C   UNL     1       5.332   5.276  16.195  0.00  0.00    +0.000 C 
ATOM      9  C   UNL     1       5.253   6.758  16.426  0.00  0.00    +0.000 C 
ATOM     10  C   UNL     1       4.331   7.312  17.221  0.00  0.00    +0.000 C 
ENDROOT
BRANCH   8  11
ATOM     11  C   UNL     1       5.608   4.942  14.744  0.00  0.00    +0.000 C 
ATOM     12  C   UNL     1       6.114   3.581  14.328  0.00  0.00    +0.000 C 
ATOM     13  C   UNL     1       7.029   4.771  14.259  0.00  0.00    +0.000 C 
ENDBRANCH   8  11
BRANCH   1  15
ATOM     14  C   UNL     1       1.515   3.333  21.336  0.00  0.00    +0.000 C 
ATOM     15  O   UNL     1       1.008   3.730  20.066  0.00  0.00    +0.000 OA
ENDBRANCH   1  15
BRANCH   6  16
ATOM     16  O   UNL     1       2.519   2.797  18.133  0.00  0.00    +0.000 OA
ATOM     17  C   UNL     1       3.562   1.965  18.620  0.00  0.00    +0.000 C 
ENDBRANCH   6  16
BRANCH   3  18
ATOM     18  C   UNL     1       2.229   8.391  19.162  0.00  0.00    +0.000 C 
BRANCH  18  19
ATOM     19  C   UNL     1       1.219   8.775  20.198  0.00  0.00    +0.000 A 
ATOM     20  C   UNL     1       1.322   8.437  21.530  0.00  0.00    +0.000 A 
ATOM     21  N   UNL     1       0.579   8.993  22.506  0.00  0.00    +0.000 NA
ATOM     22  C   UNL     1      -0.304   9.916  22.120  0.00  0.00    +0.000 A 
ATOM     23  N   UNL     1      -0.932  10.641  23.105  0.00  0.00    +0.000 N 
ATOM     24  N   UNL     1      -0.585  10.219  20.853  0.00  0.00    +0.000 NA
ATOM     25  C   UNL     1       0.180   9.651  19.911  0.00  0.00    +0.000 A 
ATOM     26  H   UNL     1      -0.929  10.142  23.982  0.00  0.00    +0.000 HD
ATOM     27  H   UNL     1      -1.798  11.037  22.773  0.00  0.00    +0.000 HD
BRANCH  25  28
ATOM     28  N   UNL     1      -0.156   9.995  18.602  0.00  0.00    +0.000 N 
ATOM     29  H   UNL     1       0.386  10.826  18.365  0.00  0.00    +0.000 HD
ATOM     30  H   UNL     1       0.028   9.243  17.943  0.00  0.00    +0.000 HD
ENDBRANCH  25  28
ENDBRANCH  18  19
ENDBRANCH   3  18
TORSDOF 6
ENDMDL
MODEL 6
REMARK VINA RESULT:      -7.9      1.110      1.423
REMARK  Name = 
REMARK  8 active torsions:
REMARK  status: ('A' for Active; 'I' for Inactive)
REMARK    1  A    between atoms: C_1  and  O_2
REMARK    2  A    between atoms: O_2  and  C_3
REMARK    3  A    between atoms: C_5  and  C_6
REMARK    4  A    between atoms: C_6  and  C_7
REMARK    5  A    between atoms: C_13  and  N_14
REMARK    6  A    between atoms: C_17  and  O_18
REMARK    7  A    between atoms: O_18  and  C_19
REMARK    8  A    between atoms: C_21  and  C_22
REMARK                            x       y       z     vdW  Elec       q    Type
REMARK                         _______ _______ _______ _____ _____    ______ ____
ROOT
ATOM      1  C   UNL     1       1.752   4.315  19.492  0.00  0.00    +0.000 A 
ATOM      2  C   UNL     1       1.858   5.598  20.034  0.00  0.00    +0.000 A 
ATOM      3  C   UNL     1       2.698   6.567  19.464  0.00  0.00    +0.000 A 
ATOM      4  C   UNL     1       3.531   6.201  18.384  0.00  0.00    +0.000 A 
ATOM      5  C   UNL     1       3.417   4.906  17.825  0.00  0.00    +0.000 A 
ATOM      6  C   UNL     1       2.535   3.957  18.379  0.00  0.00    +0.000 A 
ATOM      7  O   UNL     1       4.060   4.589  16.652  0.00  0.00    +0.000 OA
ATOM      8  C   UNL     1       5.304   5.246  16.376  0.00  0.00    +0.000 C 
ATOM      9  C   UNL     1       5.368   6.654  16.894  0.00  0.00    +0.000 C 
ATOM     10  C   UNL     1       4.514   7.122  17.812  0.00  0.00    +0.000 C 
ENDROOT
BRANCH   8  11
ATOM     11  C   UNL     1       5.525   5.180  14.879  0.00  0.00    +0.000 C 
ATOM     12  C   UNL     1       5.714   3.863  14.165  0.00  0.00    +0.000 C 
ATOM     13  C   UNL     1       6.879   4.799  14.326  0.00  0.00    +0.000 C 
ENDBRANCH   8  11
BRANCH   1  15
ATOM     14  C   UNL     1       1.295   2.833  21.280  0.00  0.00    +0.000 C 
ATOM     15  O   UNL     1       0.913   3.361  20.014  0.00  0.00    +0.000 OA
ENDBRANCH   1  15
BRANCH   6  16
ATOM     16  O   UNL     1       2.300   2.695  17.888  0.00  0.00    +0.000 OA
ATOM     17  C   UNL     1       3.261   1.692  18.179  0.00  0.00    +0.000 C 
ENDBRANCH   6  16
BRANCH   3  18
ATOM     18  C   UNL     1       2.553   7.981  19.994  0.00  0.00    +0.000 C 
BRANCH  18  19
ATOM     19  C   UNL     1       1.266   8.713  19.771  0.00  0.00    +0.000 A 
ATOM     20  C   UNL     1       0.276   8.828  20.723  0.00  0.00    +0.000 A 
ATOM     21  N   UNL     1      -0.751   9.693  20.638  0.00  0.00    +0.000 NA
ATOM     22  C   UNL     1      -0.783  10.463  19.549  0.00  0.00    +0.000 A 
ATOM     23  N   UNL     1      -1.699  11.489  19.527  0.00  0.00    +0.000 N 
ATOM     24  N   UNL     1       0.038  10.342  18.506  0.00  0.00    +0.000 NA
ATOM     25  C   UNL     1       1.051   9.475  18.631  0.00  0.00    +0.000 A 
ATOM     26  H   UNL     1      -2.467  11.306  20.155  0.00  0.00    +0.000 HD
ATOM     27  H   UNL     1      -1.901  11.779  18.583  0.00  0.00    +0.000 HD
BRANCH  25  28
ATOM     28  N   UNL     1       1.879   9.381  17.512  0.00  0.00    +0.000 N 
ATOM     29  H   UNL     1       2.132   8.397  17.412  0.00  0.00    +0.000 HD
ATOM     30  H   UNL     1       1.432   9.728  16.668  0.00  0.00    +0.000 HD
ENDBRANCH  25  28
ENDBRANCH  18  19
ENDBRANCH   3  18
TORSDOF 6
ENDMDL
MODEL 7
REMARK VINA RESULT:      -7.5      1.492      1.993
REMARK  Name = 
REMARK  8 active torsions:
REMARK  status: ('A' for Active; 'I' for Inactive)
REMARK    1  A    between atoms: C_1  and  O_2
REMARK    2  A    between atoms: O_2  and  C_3
REMARK    3  A    between atoms: C_5  and  C_6
REMARK    4  A    between atoms: C_6  and  C_7
REMARK    5  A    between atoms: C_13  and  N_14
REMARK    6  A    between atoms: C_17  and  O_18
REMARK    7  A    between atoms: O_18  and  C_19
REMARK    8  A    between atoms: C_21  and  C_22
REMARK                            x       y       z     vdW  Elec       q    Type
REMARK                         _______ _______ _______ _____ _____    ______ ____
ROOT
ATOM      1  C   UNL     1       2.924   4.462  20.230  0.00  0.00    +0.000 A 
ATOM      2  C   UNL     1       2.192   5.577  19.813  0.00  0.00    +0.000 A 
ATOM      3  C   UNL     1       2.556   6.307  18.671  0.00  0.00    +0.000 A 
ATOM      4  C   UNL     1       3.749   5.969  17.994  0.00  0.00    +0.000 A 
ATOM      5  C   UNL     1       4.486   4.834  18.407  0.00  0.00    +0.000 A 
ATOM      6  C   UNL     1       4.083   4.081  19.528  0.00  0.00    +0.000 A 
ATOM      7  O   UNL     1       5.531   4.362  17.649  0.00  0.00    +0.000 OA
ATOM      8  C   UNL     1       6.286   5.314  16.889  0.00  0.00    +0.000 C 
ATOM      9  C   UNL     1       5.464   6.462  16.377  0.00  0.00    +0.000 C 
ATOM     10  C   UNL     1       4.254   6.755  16.867  0.00  0.00    +0.000 C 
ENDROOT
BRANCH   8  11
ATOM     11  C   UNL     1       6.965   4.557  15.766  0.00  0.00    +0.000 C 
ATOM     12  C   UNL     1       6.982   5.087  14.352  0.00  0.00    +0.000 C 
ATOM     13  C   UNL     1       6.140   3.890  14.690  0.00  0.00    +0.000 C 
ENDBRANCH   8  11
BRANCH   1  15
ATOM     14  C   UNL     1       1.320   3.036  21.227  0.00  0.00    +0.000 C 
ATOM     15  O   UNL     1       2.567   3.714  21.325  0.00  0.00    +0.000 OA
ENDBRANCH   1  15
BRANCH   6  16
ATOM     16  O   UNL     1       4.684   2.933  19.984  0.00  0.00    +0.000 OA
ATOM     17  C   UNL     1       4.284   1.707  19.393  0.00  0.00    +0.000 C 
ENDBRANCH   6  16
BRANCH   3  18
ATOM     18  C   UNL     1       1.560   7.343  18.187  0.00  0.00    +0.000 C 
BRANCH  18  19
ATOM     19  C   UNL     1       1.702   8.760  18.647  0.00  0.00    +0.000 A 
ATOM     20  C   UNL     1       2.251   9.763  17.877  0.00  0.00    +0.000 A 
ATOM     21  N   UNL     1       2.143  11.074  18.164  0.00  0.00    +0.000 NA
ATOM     22  C   UNL     1       1.463  11.380  19.270  0.00  0.00    +0.000 A 
ATOM     23  N   UNL     1       1.165  12.707  19.481  0.00  0.00    +0.000 N 
ATOM     24  N   UNL     1       1.012  10.495  20.157  0.00  0.00    +0.000 NA
ATOM     25  C   UNL     1       1.132   9.200  19.834  0.00  0.00    +0.000 A 
ATOM     26  H   UNL     1       1.803  13.308  18.983  0.00  0.00    +0.000 HD
ATOM     27  H   UNL     1       0.983  12.890  20.456  0.00  0.00    +0.000 HD
BRANCH  25  28
ATOM     28  N   UNL     1       0.649   8.312  20.795  0.00  0.00    +0.000 N 
ATOM     29  H   UNL     1      -0.069   8.808  21.324  0.00  0.00    +0.000 HD
ATOM     30  H   UNL     1       0.275   7.461  20.385  0.00  0.00    +0.000 HD
ENDBRANCH  25  28
ENDBRANCH  18  19
ENDBRANCH   3  18
TORSDOF 6
ENDMDL
MODEL 8
REMARK VINA RESULT:      -7.4      4.138      6.917
REMARK  Name = 
REMARK  8 active torsions:
REMARK  status: ('A' for Active; 'I' for Inactive)
REMARK    1  A    between atoms: C_1  and  O_2
REMARK    2  A    between atoms: O_2  and  C_3
REMARK    3  A    between atoms: C_5  and  C_6
REMARK    4  A    between atoms: C_6  and  C_7
REMARK    5  A    between atoms: C_13  and  N_14
REMARK    6  A    between atoms: C_17  and  O_18
REMARK    7  A    between atoms: O_18  and  C_19
REMARK    8  A    between atoms: C_21  and  C_22
REMARK                            x       y       z     vdW  Elec       q    Type
REMARK                         _______ _______ _______ _____ _____    ______ ____
ROOT
ATOM      1  C   UNL     1      -0.273  10.967  21.767  0.00  0.00    +0.000 A 
ATOM      2  C   UNL     1      -0.707  11.645  20.625  0.00  0.00    +0.000 A 
ATOM      3  C   UNL     1      -0.422  11.168  19.337  0.00  0.00    +0.000 A 
ATOM      4  C   UNL     1       0.411  10.036  19.195  0.00  0.00    +0.000 A 
ATOM      5  C   UNL     1       0.842   9.340  20.349  0.00  0.00    +0.000 A 
ATOM      6  C   UNL     1       0.509   9.804  21.637  0.00  0.00    +0.000 A 
ATOM      7  O   UNL     1       1.478   8.126  20.240  0.00  0.00    +0.000 OA
ATOM      8  C   UNL     1       2.282   7.898  19.075  0.00  0.00    +0.000 C 
ATOM      9  C   UNL     1       1.753   8.566  17.839  0.00  0.00    +0.000 C 
ATOM     10  C   UNL     1       0.845   9.548  17.885  0.00  0.00    +0.000 C 
ENDROOT
BRANCH   8  11
ATOM     11  C   UNL     1       2.406   6.398  18.901  0.00  0.00    +0.000 C 
ATOM     12  C   UNL     1       2.333   5.457  20.079  0.00  0.00    +0.000 C 
ATOM     13  C   UNL     1       3.645   5.677  19.381  0.00  0.00    +0.000 C 
ENDBRANCH   8  11
BRANCH   1  15
ATOM     14  C   UNL     1      -1.594  12.380  23.131  0.00  0.00    +0.000 C 
ATOM     15  O   UNL     1      -0.567  11.399  23.037  0.00  0.00    +0.000 OA
ENDBRANCH   1  15
BRANCH   6  16
ATOM     16  O   UNL     1       0.823   9.182  22.822  0.00  0.00    +0.000 OA
ATOM     17  C   UNL     1       2.158   9.301  23.288  0.00  0.00    +0.000 C 
ENDBRANCH   6  16
BRANCH   3  18
ATOM     18  C   UNL     1      -1.140  11.853  18.190  0.00  0.00    +0.000 C 
BRANCH  18  19
ATOM     19  C   UNL     1      -2.610  11.631  18.015  0.00  0.00    +0.000 A 
ATOM     20  C   UNL     1      -3.554  11.973  18.959  0.00  0.00    +0.000 A 
ATOM     21  N   UNL     1      -4.876  12.029  18.713  0.00  0.00    +0.000 NA
ATOM     22  C   UNL     1      -5.257  11.721  17.473  0.00  0.00    +0.000 A 
ATOM     23  N   UNL     1      -6.570  11.960  17.137  0.00  0.00    +0.000 N 
ATOM     24  N   UNL     1      -4.452  11.244  16.524  0.00  0.00    +0.000 NA
ATOM     25  C   UNL     1      -3.143  11.209  16.804  0.00  0.00    +0.000 A 
ATOM     26  H   UNL     1      -7.157  11.986  17.957  0.00  0.00    +0.000 HD
ATOM     27  H   UNL     1      -6.855  11.397  16.351  0.00  0.00    +0.000 HD
BRANCH  25  28
ATOM     28  N   UNL     1      -2.342  10.699  15.782  0.00  0.00    +0.000 N 
ATOM     29  H   UNL     1      -2.481  11.298  14.968  0.00  0.00    +0.000 HD
ATOM     30  H   UNL     1      -1.360  10.661  16.041  0.00  0.00    +0.000 HD
ENDBRANCH  25  28
ENDBRANCH  18  19
ENDBRANCH   3  18
TORSDOF 6
ENDMDL
MODEL 9
REMARK VINA RESULT:      -7.2      3.863      7.923
REMARK  Name = 
REMARK  8 active torsions:
REMARK  status: ('A' for Active; 'I' for Inactive)
REMARK    1  A    between atoms: C_1  and  O_2
REMARK    2  A    between atoms: O_2  and  C_3
REMARK    3  A    between atoms: C_5  and  C_6
REMARK    4  A    between atoms: C_6  and  C_7
REMARK    5  A    between atoms: C_13  and  N_14
REMARK    6  A    between atoms: C_17  and  O_18
REMARK    7  A    between atoms: O_18  and  C_19
REMARK    8  A    between atoms: C_21  and  C_22
REMARK                            x       y       z     vdW  Elec       q    Type
REMARK                         _______ _______ _______ _____ _____    ______ ____
ROOT
ATOM      1  C   UNL     1       2.701   8.043  17.967  0.00  0.00    +0.000 A 
ATOM      2  C   UNL     1       2.774   6.894  18.758  0.00  0.00    +0.000 A 
ATOM      3  C   UNL     1       2.109   6.810  19.991  0.00  0.00    +0.000 A 
ATOM      4  C   UNL     1       1.439   7.951  20.487  0.00  0.00    +0.000 A 
ATOM      5  C   UNL     1       1.353   9.112  19.683  0.00  0.00    +0.000 A 
ATOM      6  C   UNL     1       1.988   9.166  18.426  0.00  0.00    +0.000 A 
ATOM      7  O   UNL     1       0.541  10.159  20.047  0.00  0.00    +0.000 OA
ATOM      8  C   UNL     1       0.342  10.392  21.448  0.00  0.00    +0.000 C 
ATOM      9  C   UNL     1       0.340   9.136  22.272  0.00  0.00    +0.000 C 
ATOM     10  C   UNL     1       0.821   7.975  21.814  0.00  0.00    +0.000 C 
ENDROOT
BRANCH   8  11
ATOM     11  C   UNL     1      -0.948  11.171  21.596  0.00  0.00    +0.000 C 
ATOM     12  C   UNL     1      -1.308  12.292  20.650  0.00  0.00    +0.000 C 
ATOM     13  C   UNL     1      -0.921  12.606  22.068  0.00  0.00    +0.000 C 
ENDBRANCH   8  11
BRANCH   1  15
ATOM     14  C   UNL     1       4.390   7.226  16.525  0.00  0.00    +0.000 C 
ATOM     15  O   UNL     1       3.318   8.136  16.744  0.00  0.00    +0.000 OA
ENDBRANCH   1  15
BRANCH   6  16
ATOM     16  O   UNL     1       1.925  10.214  17.539  0.00  0.00    +0.000 OA
ATOM     17  C   UNL     1       2.473  11.456  17.955  0.00  0.00    +0.000 C 
ENDBRANCH   6  16
BRANCH   3  18
ATOM     18  C   UNL     1       2.068   5.441  20.643  0.00  0.00    +0.000 C 
BRANCH  18  19
ATOM     19  C   UNL     1       2.532   4.250  19.864  0.00  0.00    +0.000 A 
ATOM     20  C   UNL     1       3.820   4.093  19.399  0.00  0.00    +0.000 A 
ATOM     21  N   UNL     1       4.316   2.929  18.939  0.00  0.00    +0.000 NA
ATOM     22  C   UNL     1       3.479   1.890  18.943  0.00  0.00    +0.000 A 
ATOM     23  N   UNL     1       4.009   0.650  18.671  0.00  0.00    +0.000 N 
ATOM     24  N   UNL     1       2.181   1.958  19.237  0.00  0.00    +0.000 NA
ATOM     25  C   UNL     1       1.725   3.131  19.697  0.00  0.00    +0.000 A 
ATOM     26  H   UNL     1       4.867   0.728  18.147  0.00  0.00    +0.000 HD
ATOM     27  H   UNL     1       3.298   0.011  18.351  0.00  0.00    +0.000 HD
BRANCH  25  28
ATOM     28  N   UNL     1       0.361   3.154  19.986  0.00  0.00    +0.000 N 
ATOM     29  H   UNL     1      -0.015   4.009  19.575  0.00  0.00    +0.000 HD
ATOM     30  H   UNL     1      -0.125   2.336  19.630  0.00  0.00    +0.000 HD
ENDBRANCH  25  28
ENDBRANCH  18  19
ENDBRANCH   3  18
TORSDOF 6
ENDMDL
