MODEL 1
REMARK VINA RESULT:      -7.5      0.000      0.000
REMARK  Name = 
REMARK  9 active torsions:
REMARK  status: ('A' for Active; 'I' for Inactive)
REMARK    1  A    between atoms: C_1  and  C_2
REMARK    2  A    between atoms: C_7  and  O_8
REMARK    3  A    between atoms: O_8  and  C_9
REMARK    4  A    between atoms: C_9  and  C_10
REMARK    5  A    between atoms: N_12  and  C_13
REMARK    6  A    between atoms: C_13  and  C_14
REMARK    7  A    between atoms: C_14  and  C_15
REMARK    8  A    between atoms: N_17  and  C_18
REMARK    9  A    between atoms: C_21  and  O_22
REMARK                            x       y       z     vdW  Elec       q    Type
REMARK                         _______ _______ _______ _____ _____    ______ ____
ROOT
ATOM      1  C   UNL     1       2.327   2.372  21.039  0.00  0.00    +0.000 C 
ENDROOT
BRANCH   1   4
ATOM      2  C   UNL     1       2.603   2.256  18.569  0.00  0.00    +0.000 C 
ATOM      3  O   UNL     1       1.417   2.002  18.383  0.00  0.00    +0.000 OA
ATOM      4  N   UNL     1       3.120   2.486  19.825  0.00  0.00    +0.000 N 
ATOM      5  H   UNL     1       4.128   2.542  19.949  0.00  0.00    +0.000 HD
BRANCH   2   6
ATOM      6  C   UNL     1       3.625   2.286  17.431  0.00  0.00    +0.000 C 
BRANCH   6   7
ATOM      7  O   UNL     1       3.855   3.603  16.974  0.00  0.00    +0.000 OA
BRANCH   7  14
ATOM      8  C   UNL     1       6.141   3.823  14.775  0.00  0.00    +0.000 C 
ATOM      9  C   UNL     1       6.147   4.306  16.198  0.00  0.00    +0.000 A 
ATOM     10  C   UNL     1       7.339   4.939  16.623  0.00  0.00    +0.000 A 
ATOM     11  C   UNL     1       7.489   5.437  17.915  0.00  0.00    +0.000 A 
ATOM     12  C   UNL     1       6.444   5.319  18.816  0.00  0.00    +0.000 A 
ATOM     13  C   UNL     1       5.259   4.699  18.417  0.00  0.00    +0.000 A 
ATOM     14  C   UNL     1       5.090   4.181  17.118  0.00  0.00    +0.000 A 
ENDBRANCH   7  14
ENDBRANCH   6   7
ENDBRANCH   2   6
ENDBRANCH   1   4
BRANCH   1  15
ATOM     15  C   UNL     1       2.175   3.701  21.789  0.00  0.00    +0.000 C 
BRANCH  15  16
ATOM     16  C   UNL     1       1.643   4.769  20.853  0.00  0.00    +0.000 C 
ATOM     17  O   UNL     1       0.597   4.593  20.236  0.00  0.00    +0.000 OA
ATOM     18  N   UNL     1       2.458   5.888  20.744  0.00  0.00    +0.000 N 
ATOM     19  H   UNL     1       3.389   5.837  21.139  0.00  0.00    +0.000 HD
BRANCH  18  20
ATOM     20  C   UNL     1       2.168   7.006  19.922  0.00  0.00    +0.000 A 
ATOM     21  C   UNL     1       2.607   7.095  18.595  0.00  0.00    +0.000 A 
ATOM     22  C   UNL     1       2.405   8.251  17.841  0.00  0.00    +0.000 A 
ATOM     23  C   UNL     1       1.734   9.321  18.410  0.00  0.00    +0.000 A 
ATOM     24  C   UNL     1       1.231   9.234  19.703  0.00  0.00    +0.000 A 
ATOM     25  C   UNL     1       1.437   8.072  20.459  0.00  0.00    +0.000 A 
BRANCH  23  26
ATOM     26  O   UNL     1       1.555  10.481  17.719  0.00  0.00    +0.000 OA
ATOM     27  H   UNL     1       0.607  10.579  17.529  0.00  0.00    +0.000 HD
ENDBRANCH  23  26
ENDBRANCH  18  20
ENDBRANCH  15  16
ENDBRANCH   1  15
TORSDOF 8
ENDMDL
MODEL 2
REMARK VINA RESULT:      -7.3      0.914      1.345
REMARK  Name = 
REMARK  9 active torsions:
REMARK  status: ('A' for Active; 'I' for Inactive)
REMARK    1  A    between atoms: C_1  and  C_2
REMARK    2  A    between atoms: C_7  and  O_8
REMARK    3  A    between atoms: O_8  and  C_9
REMARK    4  A    between atoms: C_9  and  C_10
REMARK    5  A    between atoms: N_12  and  C_13
REMARK    6  A    between atoms: C_13  and  C_14
REMARK    7  A    between atoms: C_14  and  C_15
REMARK    8  A    between atoms: N_17  and  C_18
REMARK    9  A    between atoms: C_21  and  O_22
REMARK                            x       y       z     vdW  Elec       q    Type
REMARK                         _______ _______ _______ _____ _____    ______ ____
ROOT
ATOM      1  C   UNL     1       1.965   2.539  20.791  0.00  0.00    +0.000 C 
ENDROOT
BRANCH   1   4
ATOM      2  C   UNL     1       3.649   2.216  18.989  0.00  0.00    +0.000 C 
ATOM      3  O   UNL     1       4.519   1.855  19.776  0.00  0.00    +0.000 OA
ATOM      4  N   UNL     1       2.372   2.532  19.395  0.00  0.00    +0.000 N 
ATOM      5  H   UNL     1       1.731   2.970  18.736  0.00  0.00    +0.000 HD
BRANCH   2   6
ATOM      6  C   UNL     1       3.921   2.402  17.495  0.00  0.00    +0.000 C 
BRANCH   6   7
ATOM      7  O   UNL     1       3.849   3.762  17.119  0.00  0.00    +0.000 OA
BRANCH   7  14
ATOM      8  C   UNL     1       5.602   4.272  14.516  0.00  0.00    +0.000 C 
ATOM      9  C   UNL     1       5.816   4.777  15.915  0.00  0.00    +0.000 A 
ATOM     10  C   UNL     1       6.962   5.584  16.104  0.00  0.00    +0.000 A 
ATOM     11  C   UNL     1       7.289   6.122  17.346  0.00  0.00    +0.000 A 
ATOM     12  C   UNL     1       6.469   5.870  18.434  0.00  0.00    +0.000 A 
ATOM     13  C   UNL     1       5.333   5.077  18.269  0.00  0.00    +0.000 A 
ATOM     14  C   UNL     1       4.990   4.517  17.023  0.00  0.00    +0.000 A 
ENDBRANCH   7  14
ENDBRANCH   6   7
ENDBRANCH   2   6
ENDBRANCH   1   4
BRANCH   1  15
ATOM     15  C   UNL     1       2.269   3.863  21.503  0.00  0.00    +0.000 C 
BRANCH  15  16
ATOM     16  C   UNL     1       1.629   5.015  20.753  0.00  0.00    +0.000 C 
ATOM     17  O   UNL     1       0.522   4.888  20.239  0.00  0.00    +0.000 OA
ATOM     18  N   UNL     1       2.419   6.156  20.678  0.00  0.00    +0.000 N 
ATOM     19  H   UNL     1       3.389   6.079  20.962  0.00  0.00    +0.000 HD
BRANCH  18  20
ATOM     20  C   UNL     1       2.033   7.350  20.020  0.00  0.00    +0.000 A 
ATOM     21  C   UNL     1       1.307   8.361  20.663  0.00  0.00    +0.000 A 
ATOM     22  C   UNL     1       0.844   9.475  19.966  0.00  0.00    +0.000 A 
ATOM     23  C   UNL     1       1.130   9.597  18.617  0.00  0.00    +0.000 A 
ATOM     24  C   UNL     1       1.904   8.641  17.969  0.00  0.00    +0.000 A 
ATOM     25  C   UNL     1       2.367   7.519  18.672  0.00  0.00    +0.000 A 
BRANCH  23  26
ATOM     26  O   UNL     1       0.659  10.650  17.893  0.00  0.00    +0.000 OA
ATOM     27  H   UNL     1       1.213  11.425  18.088  0.00  0.00    +0.000 HD
ENDBRANCH  23  26
ENDBRANCH  18  20
ENDBRANCH  15  16
ENDBRANCH   1  15
TORSDOF 8
ENDMDL
MODEL 3
REMARK VINA RESULT:      -7.2      1.690      5.577
REMARK  Name = 
REMARK  9 active torsions:
REMARK  status: ('A' for Active; 'I' for Inactive)
REMARK    1  A    between atoms: C_1  and  C_2
REMARK    2  A    between atoms: C_7  and  O_8
REMARK    3  A    between atoms: O_8  and  C_9
REMARK    4  A    between atoms: C_9  and  C_10
REMARK    5  A    between atoms: N_12  and  C_13
REMARK    6  A    between atoms: C_13  and  C_14
REMARK    7  A    between atoms: C_14  and  C_15
REMARK    8  A    between atoms: N_17  and  C_18
REMARK    9  A    between atoms: C_21  and  O_22
REMARK                            x       y       z     vdW  Elec       q    Type
REMARK                         _______ _______ _______ _____ _____    ______ ____
ROOT
ATOM      1  C   UNL     1       1.851   1.961  19.131  0.00  0.00    +0.000 C 
ENDROOT
BRANCH   1   4
ATOM      2  C   UNL     1       1.878   3.917  20.668  0.00  0.00    +0.000 C 
ATOM      3  O   UNL     1       2.462   3.297  21.552  0.00  0.00    +0.000 OA
ATOM      4  N   UNL     1       1.576   3.353  19.449  0.00  0.00    +0.000 N 
ATOM      5  H   UNL     1       0.961   3.848  18.807  0.00  0.00    +0.000 HD
BRANCH   2   6
ATOM      6  C   UNL     1       1.384   5.352  20.861  0.00  0.00    +0.000 C 
BRANCH   6   7
ATOM      7  O   UNL     1       2.392   6.293  20.557  0.00  0.00    +0.000 OA
BRANCH   7  14
ATOM      8  C   UNL     1       0.752   8.841  21.520  0.00  0.00    +0.000 C 
ATOM      9  C   UNL     1       1.373   8.567  20.179  0.00  0.00    +0.000 A 
ATOM     10  C   UNL     1       1.195   9.578  19.206  0.00  0.00    +0.000 A 
ATOM     11  C   UNL     1       1.714   9.462  17.919  0.00  0.00    +0.000 A 
ATOM     12  C   UNL     1       2.433   8.329  17.574  0.00  0.00    +0.000 A 
ATOM     13  C   UNL     1       2.620   7.320  18.519  0.00  0.00    +0.000 A 
ATOM     14  C   UNL     1       2.096   7.414  19.823  0.00  0.00    +0.000 A 
ENDBRANCH   7  14
ENDBRANCH   6   7
ENDBRANCH   2   6
ENDBRANCH   1   4
BRANCH   1  15
ATOM     15  C   UNL     1       2.735   1.787  17.890  0.00  0.00    +0.000 C 
BRANCH  15  16
ATOM     16  C   UNL     1       3.439   3.089  17.566  0.00  0.00    +0.000 C 
ATOM     17  O   UNL     1       2.849   3.988  16.974  0.00  0.00    +0.000 OA
ATOM     18  N   UNL     1       4.773   3.128  17.952  0.00  0.00    +0.000 N 
ATOM     19  H   UNL     1       5.206   2.261  18.248  0.00  0.00    +0.000 HD
BRANCH  18  20
ATOM     20  C   UNL     1       5.630   4.238  17.744  0.00  0.00    +0.000 A 
ATOM     21  C   UNL     1       6.008   5.100  18.781  0.00  0.00    +0.000 A 
ATOM     22  C   UNL     1       6.762   6.245  18.532  0.00  0.00    +0.000 A 
ATOM     23  C   UNL     1       7.166   6.521  17.236  0.00  0.00    +0.000 A 
ATOM     24  C   UNL     1       6.860   5.648  16.198  0.00  0.00    +0.000 A 
ATOM     25  C   UNL     1       6.100   4.497  16.451  0.00  0.00    +0.000 A 
BRANCH  23  26
ATOM     26  O   UNL     1       7.867   7.653  16.947  0.00  0.00    +0.000 OA
ATOM     27  H   UNL     1       7.261   8.411  17.013  0.00  0.00    +0.000 HD
ENDBRANCH  23  26
ENDBRANCH  18  20
ENDBRANCH  15  16
ENDBRANCH   1  15
TORSDOF 8
ENDMDL
MODEL 4
REMARK VINA RESULT:      -7.0      5.124      7.764
REMARK  Name = 
REMARK  9 active torsions:
REMARK  status: ('A' for Active; 'I' for Inactive)
REMARK    1  A    between atoms: C_1  and  C_2
REMARK    2  A    between atoms: C_7  and  O_8
REMARK    3  A    between atoms: O_8  and  C_9
REMARK    4  A    between atoms: C_9  and  C_10
REMARK    5  A    between atoms: N_12  and  C_13
REMARK    6  A    between atoms: C_13  and  C_14
REMARK    7  A    between atoms: C_14  and  C_15
REMARK    8  A    between atoms: N_17  and  C_18
REMARK    9  A    between atoms: C_21  and  O_22
REMARK                            x       y       z     vdW  Elec       q    Type
REMARK                         _______ _______ _______ _____ _____    ______ ____
ROOT
ATOM      1  C   UNL     1       7.189   6.122  17.167  0.00  0.00    +0.000 C 
ENDROOT
BRANCH   1   4
ATOM      2  C   UNL     1       8.260   8.150  18.130  0.00  0.00    +0.000 C 
ATOM      3  O   UNL     1       8.675   7.543  19.114  0.00  0.00    +0.000 OA
ATOM      4  N   UNL     1       7.561   7.527  17.121  0.00  0.00    +0.000 N 
ATOM      5  H   UNL     1       7.107   8.090  16.405  0.00  0.00    +0.000 HD
BRANCH   2   6
ATOM      6  C   UNL     1       8.433   9.661  17.965  0.00  0.00    +0.000 C 
BRANCH   6   7
ATOM      7  O   UNL     1       8.848  10.271  19.171  0.00  0.00    +0.000 OA
BRANCH   7  14
ATOM      8  C   UNL     1       9.657  12.209  21.558  0.00  0.00    +0.000 C 
ATOM      9  C   UNL     1      10.227  12.128  20.170  0.00  0.00    +0.000 A 
ATOM     10  C   UNL     1      11.261  13.048  19.880  0.00  0.00    +0.000 A 
ATOM     11  C   UNL     1      11.884  13.090  18.635  0.00  0.00    +0.000 A 
ATOM     12  C   UNL     1      11.489  12.204  17.646  0.00  0.00    +0.000 A 
ATOM     13  C   UNL     1      10.471  11.288  17.911  0.00  0.00    +0.000 A 
ATOM     14  C   UNL     1       9.823  11.234  19.161  0.00  0.00    +0.000 A 
ENDBRANCH   7  14
ENDBRANCH   6   7
ENDBRANCH   2   6
ENDBRANCH   1   4
BRANCH   1  15
ATOM     15  C   UNL     1       6.810   5.551  15.795  0.00  0.00    +0.000 C 
BRANCH  15  16
ATOM     16  C   UNL     1       5.506   4.784  15.893  0.00  0.00    +0.000 C 
ATOM     17  O   UNL     1       4.984   4.308  14.890  0.00  0.00    +0.000 OA
ATOM     18  N   UNL     1       4.973   4.727  17.175  0.00  0.00    +0.000 N 
ATOM     19  H   UNL     1       5.382   5.324  17.885  0.00  0.00    +0.000 HD
BRANCH  18  20
ATOM     20  C   UNL     1       3.759   4.074  17.504  0.00  0.00    +0.000 A 
ATOM     21  C   UNL     1       2.557   4.770  17.683  0.00  0.00    +0.000 A 
ATOM     22  C   UNL     1       1.401   4.120  18.113  0.00  0.00    +0.000 A 
ATOM     23  C   UNL     1       1.437   2.755  18.343  0.00  0.00    +0.000 A 
ATOM     24  C   UNL     1       2.600   2.029  18.110  0.00  0.00    +0.000 A 
ATOM     25  C   UNL     1       3.762   2.685  17.679  0.00  0.00    +0.000 A 
BRANCH  23  26
ATOM     26  O   UNL     1       0.340   2.093  18.805  0.00  0.00    +0.000 OA
ATOM     27  H   UNL     1      -0.378   2.739  18.920  0.00  0.00    +0.000 HD
ENDBRANCH  23  26
ENDBRANCH  18  20
ENDBRANCH  15  16
ENDBRANCH   1  15
TORSDOF 8
ENDMDL
MODEL 5
REMARK VINA RESULT:      -6.9      1.872      5.371
REMARK  Name = 
REMARK  9 active torsions:
REMARK  status: ('A' for Active; 'I' for Inactive)
REMARK    1  A    between atoms: C_1  and  C_2
REMARK    2  A    between atoms: C_7  and  O_8
REMARK    3  A    between atoms: O_8  and  C_9
REMARK    4  A    between atoms: C_9  and  C_10
REMARK    5  A    between atoms: N_12  and  C_13
REMARK    6  A    between atoms: C_13  and  C_14
REMARK    7  A    between atoms: C_14  and  C_15
REMARK    8  A    between atoms: N_17  and  C_18
REMARK    9  A    between atoms: C_21  and  O_22
REMARK                            x       y       z     vdW  Elec       q    Type
REMARK                         _______ _______ _______ _____ _____    ______ ____
ROOT
ATOM      1  C   UNL     1       3.167   1.952  19.683  0.00  0.00    +0.000 C 
ENDROOT
BRANCH   1   4
ATOM      2  C   UNL     1       1.580   3.774  20.276  0.00  0.00    +0.000 C 
ATOM      3  O   UNL     1       0.606   3.146  19.869  0.00  0.00    +0.000 OA
ATOM      4  N   UNL     1       2.854   3.252  20.255  0.00  0.00    +0.000 N 
ATOM      5  H   UNL     1       3.646   3.858  20.458  0.00  0.00    +0.000 HD
BRANCH   2   6
ATOM      6  C   UNL     1       1.474   5.211  20.789  0.00  0.00    +0.000 C 
BRANCH   6   7
ATOM      7  O   UNL     1       2.464   6.041  20.218  0.00  0.00    +0.000 OA
BRANCH   7  14
ATOM      8  C   UNL     1       1.047   8.457  21.723  0.00  0.00    +0.000 C 
ATOM      9  C   UNL     1       1.495   8.366  20.291  0.00  0.00    +0.000 A 
ATOM     10  C   UNL     1       1.241   9.510  19.498  0.00  0.00    +0.000 A 
ATOM     11  C   UNL     1       1.600   9.570  18.154  0.00  0.00    +0.000 A 
ATOM     12  C   UNL     1       2.229   8.483  17.568  0.00  0.00    +0.000 A 
ATOM     13  C   UNL     1       2.488   7.345  18.332  0.00  0.00    +0.000 A 
ATOM     14  C   UNL     1       2.126   7.261  19.691  0.00  0.00    +0.000 A 
ENDBRANCH   7  14
ENDBRANCH   6   7
ENDBRANCH   2   6
ENDBRANCH   1   4
BRANCH   1  15
ATOM     15  C   UNL     1       3.626   2.028  18.221  0.00  0.00    +0.000 C 
BRANCH  15  16
ATOM     16  C   UNL     1       4.066   3.440  17.887  0.00  0.00    +0.000 C 
ATOM     17  O   UNL     1       3.324   4.194  17.266  0.00  0.00    +0.000 OA
ATOM     18  N   UNL     1       5.355   3.749  18.301  0.00  0.00    +0.000 N 
ATOM     19  H   UNL     1       5.944   2.989  18.623  0.00  0.00    +0.000 HD
BRANCH  18  20
ATOM     20  C   UNL     1       5.980   5.003  18.090  0.00  0.00    +0.000 A 
ATOM     21  C   UNL     1       5.497   5.936  17.164  0.00  0.00    +0.000 A 
ATOM     22  C   UNL     1       6.191   7.114  16.894  0.00  0.00    +0.000 A 
ATOM     23  C   UNL     1       7.367   7.379  17.575  0.00  0.00    +0.000 A 
ATOM     24  C   UNL     1       7.835   6.501  18.546  0.00  0.00    +0.000 A 
ATOM     25  C   UNL     1       7.137   5.315  18.815  0.00  0.00    +0.000 A 
BRANCH  23  26
ATOM     26  O   UNL     1       8.095   8.499  17.308  0.00  0.00    +0.000 OA
ATOM     27  H   UNL     1       8.966   8.224  16.974  0.00  0.00    +0.000 HD
ENDBRANCH  23  26
ENDBRANCH  18  20
ENDBRANCH  15  16
ENDBRANCH   1  15
TORSDOF 8
ENDMDL
MODEL 6
REMARK VINA RESULT:      -6.8      4.720      7.239
REMARK  Name = 
REMARK  9 active torsions:
REMARK  status: ('A' for Active; 'I' for Inactive)
REMARK    1  A    between atoms: C_1  and  C_2
REMARK    2  A    between atoms: C_7  and  O_8
REMARK    3  A    between atoms: O_8  and  C_9
REMARK    4  A    between atoms: C_9  and  C_10
REMARK    5  A    between atoms: N_12  and  C_13
REMARK    6  A    between atoms: C_13  and  C_14
REMARK    7  A    between atoms: C_14  and  C_15
REMARK    8  A    between atoms: N_17  and  C_18
REMARK    9  A    between atoms: C_21  and  O_22
REMARK                            x       y       z     vdW  Elec       q    Type
REMARK                         _______ _______ _______ _____ _____    ______ ____
ROOT
ATOM      1  C   UNL     1       7.165   5.790  16.334  0.00  0.00    +0.000 C 
ENDROOT
BRANCH   1   4
ATOM      2  C   UNL     1       7.335   8.019  17.425  0.00  0.00    +0.000 C 
ATOM      3  O   UNL     1       6.217   7.933  17.925  0.00  0.00    +0.000 OA
ATOM      4  N   UNL     1       7.885   7.009  16.669  0.00  0.00    +0.000 N 
ATOM      5  H   UNL     1       8.743   7.181  16.151  0.00  0.00    +0.000 HD
BRANCH   2   6
ATOM      6  C   UNL     1       8.194   9.279  17.550  0.00  0.00    +0.000 C 
BRANCH   6   7
ATOM      7  O   UNL     1       8.586   9.509  18.888  0.00  0.00    +0.000 OA
BRANCH   7  14
ATOM      8  C   UNL     1       8.914  11.012  21.671  0.00  0.00    +0.000 C 
ATOM      9  C   UNL     1       9.666  11.223  20.387  0.00  0.00    +0.000 A 
ATOM     10  C   UNL     1      10.650  12.239  20.415  0.00  0.00    +0.000 A 
ATOM     11  C   UNL     1      11.424  12.548  19.300  0.00  0.00    +0.000 A 
ATOM     12  C   UNL     1      11.237  11.840  18.124  0.00  0.00    +0.000 A 
ATOM     13  C   UNL     1      10.271  10.833  18.075  0.00  0.00    +0.000 A 
ATOM     14  C   UNL     1       9.472  10.512  19.189  0.00  0.00    +0.000 A 
ENDBRANCH   7  14
ENDBRANCH   6   7
ENDBRANCH   2   6
ENDBRANCH   1   4
BRANCH   1  15
ATOM     15  C   UNL     1       7.394   4.656  17.340  0.00  0.00    +0.000 C 
BRANCH  15  16
ATOM     16  C   UNL     1       6.132   4.410  18.143  0.00  0.00    +0.000 C 
ATOM     17  O   UNL     1       6.085   4.696  19.336  0.00  0.00    +0.000 OA
ATOM     18  N   UNL     1       5.106   3.810  17.424  0.00  0.00    +0.000 N 
ATOM     19  H   UNL     1       5.326   3.437  16.508  0.00  0.00    +0.000 HD
BRANCH  18  20
ATOM     20  C   UNL     1       3.841   3.477  17.969  0.00  0.00    +0.000 A 
ATOM     21  C   UNL     1       3.603   2.265  18.629  0.00  0.00    +0.000 A 
ATOM     22  C   UNL     1       2.325   1.913  19.059  0.00  0.00    +0.000 A 
ATOM     23  C   UNL     1       1.275   2.792  18.851  0.00  0.00    +0.000 A 
ATOM     24  C   UNL     1       1.495   4.029  18.257  0.00  0.00    +0.000 A 
ATOM     25  C   UNL     1       2.781   4.380  17.823  0.00  0.00    +0.000 A 
BRANCH  23  26
ATOM     26  O   UNL     1       0.005   2.465  19.219  0.00  0.00    +0.000 OA
ATOM     27  H   UNL     1       0.036   2.081  20.112  0.00  0.00    +0.000 HD
ENDBRANCH  23  26
ENDBRANCH  18  20
ENDBRANCH  15  16
ENDBRANCH   1  15
TORSDOF 8
ENDMDL
MODEL 7
REMARK VINA RESULT:      -6.8      5.449      7.556
REMARK  Name = 
REMARK  9 active torsions:
REMARK  status: ('A' for Active; 'I' for Inactive)
REMARK    1  A    between atoms: C_1  and  C_2
REMARK    2  A    between atoms: C_7  and  O_8
REMARK    3  A    between atoms: O_8  and  C_9
REMARK    4  A    between atoms: C_9  and  C_10
REMARK    5  A    between atoms: N_12  and  C_13
REMARK    6  A    between atoms: C_13  and  C_14
REMARK    7  A    between atoms: C_14  and  C_15
REMARK    8  A    between atoms: N_17  and  C_18
REMARK    9  A    between atoms: C_21  and  O_22
REMARK                            x       y       z     vdW  Elec       q    Type
REMARK                         _______ _______ _______ _____ _____    ______ ____
ROOT
ATOM      1  C   UNL     1       7.610   7.788  16.986  0.00  0.00    +0.000 C 
ENDROOT
BRANCH   1   4
ATOM      2  C   UNL     1       6.656   5.669  16.100  0.00  0.00    +0.000 C 
ATOM      3  O   UNL     1       7.592   5.495  15.325  0.00  0.00    +0.000 OA
ATOM      4  N   UNL     1       6.605   6.737  16.966  0.00  0.00    +0.000 N 
ATOM      5  H   UNL     1       5.746   6.926  17.479  0.00  0.00    +0.000 HD
BRANCH   2   6
ATOM      6  C   UNL     1       5.436   4.746  16.133  0.00  0.00    +0.000 C 
BRANCH   6   7
ATOM      7  O   UNL     1       5.121   4.349  17.451  0.00  0.00    +0.000 OA
BRANCH   7  14
ATOM      8  C   UNL     1       2.759   6.353  18.166  0.00  0.00    +0.000 C 
ATOM      9  C   UNL     1       2.745   4.851  18.123  0.00  0.00    +0.000 A 
ATOM     10  C   UNL     1       1.512   4.243  18.456  0.00  0.00    +0.000 A 
ATOM     11  C   UNL     1       1.349   2.860  18.459  0.00  0.00    +0.000 A 
ATOM     12  C   UNL     1       2.419   2.047  18.121  0.00  0.00    +0.000 A 
ATOM     13  C   UNL     1       3.644   2.628  17.789  0.00  0.00    +0.000 A 
ATOM     14  C   UNL     1       3.832   4.024  17.788  0.00  0.00    +0.000 A 
ENDBRANCH   7  14
ENDBRANCH   6   7
ENDBRANCH   2   6
ENDBRANCH   1   4
BRANCH   1  15
ATOM     15  C   UNL     1       8.211   8.024  18.378  0.00  0.00    +0.000 C 
BRANCH  15  16
ATOM     16  C   UNL     1       8.586   9.483  18.542  0.00  0.00    +0.000 C 
ATOM     17  O   UNL     1       8.220  10.318  17.720  0.00  0.00    +0.000 OA
ATOM     18  N   UNL     1       9.390   9.745  19.644  0.00  0.00    +0.000 N 
ATOM     19  H   UNL     1       9.794   8.956  20.134  0.00  0.00    +0.000 HD
BRANCH  18  20
ATOM     20  C   UNL     1       9.871  11.033  19.991  0.00  0.00    +0.000 A 
ATOM     21  C   UNL     1       9.215  11.855  20.916  0.00  0.00    +0.000 A 
ATOM     22  C   UNL     1       9.645  13.158  21.158  0.00  0.00    +0.000 A 
ATOM     23  C   UNL     1      10.758  13.640  20.489  0.00  0.00    +0.000 A 
ATOM     24  C   UNL     1      11.466  12.823  19.615  0.00  0.00    +0.000 A 
ATOM     25  C   UNL     1      11.030  11.513  19.371  0.00  0.00    +0.000 A 
BRANCH  23  26
ATOM     26  O   UNL     1      11.182  14.922  20.668  0.00  0.00    +0.000 OA
ATOM     27  H   UNL     1      10.605  15.344  21.327  0.00  0.00    +0.000 HD
ENDBRANCH  23  26
ENDBRANCH  18  20
ENDBRANCH  15  16
ENDBRANCH   1  15
TORSDOF 8
ENDMDL
MODEL 8
REMARK VINA RESULT:      -6.8      4.896      7.180
REMARK  Name = 
REMARK  9 active torsions:
REMARK  status: ('A' for Active; 'I' for Inactive)
REMARK    1  A    between atoms: C_1  and  C_2
REMARK    2  A    between atoms: C_7  and  O_8
REMARK    3  A    between atoms: O_8  and  C_9
REMARK    4  A    between atoms: C_9  and  C_10
REMARK    5  A    between atoms: N_12  and  C_13
REMARK    6  A    between atoms: C_13  and  C_14
REMARK    7  A    between atoms: C_14  and  C_15
REMARK    8  A    between atoms: N_17  and  C_18
REMARK    9  A    between atoms: C_21  and  O_22
REMARK                            x       y       z     vdW  Elec       q    Type
REMARK                         _______ _______ _______ _____ _____    ______ ____
ROOT
ATOM      1  C   UNL     1       6.919   5.926  16.433  0.00  0.00    +0.000 C 
ENDROOT
BRANCH   1   4
ATOM      2  C   UNL     1       7.763   7.854  17.759  0.00  0.00    +0.000 C 
ATOM      3  O   UNL     1       8.246   7.131  18.626  0.00  0.00    +0.000 OA
ATOM      4  N   UNL     1       7.133   7.349  16.644  0.00  0.00    +0.000 N 
ATOM      5  H   UNL     1       6.617   7.978  16.032  0.00  0.00    +0.000 HD
BRANCH   2   6
ATOM      6  C   UNL     1       7.767   9.380  17.868  0.00  0.00    +0.000 C 
BRANCH   6   7
ATOM      7  O   UNL     1       9.081   9.890  17.975  0.00  0.00    +0.000 OA
BRANCH   7  14
ATOM      8  C   UNL     1       8.071  12.818  17.261  0.00  0.00    +0.000 C 
ATOM      9  C   UNL     1       8.918  12.365  18.416  0.00  0.00    +0.000 A 
ATOM     10  C   UNL     1       9.333  13.384  19.305  0.00  0.00    +0.000 A 
ATOM     11  C   UNL     1      10.122  13.113  20.421  0.00  0.00    +0.000 A 
ATOM     12  C   UNL     1      10.512  11.809  20.679  0.00  0.00    +0.000 A 
ATOM     13  C   UNL     1      10.113  10.789  19.814  0.00  0.00    +0.000 A 
ATOM     14  C   UNL     1       9.323  11.043  18.676  0.00  0.00    +0.000 A 
ENDBRANCH   7  14
ENDBRANCH   6   7
ENDBRANCH   2   6
ENDBRANCH   1   4
BRANCH   1  15
ATOM     15  C   UNL     1       5.491   5.589  15.987  0.00  0.00    +0.000 C 
BRANCH  15  16
ATOM     16  C   UNL     1       4.577   5.494  17.193  0.00  0.00    +0.000 C 
ATOM     17  O   UNL     1       4.235   6.505  17.798  0.00  0.00    +0.000 OA
ATOM     18  N   UNL     1       4.230   4.196  17.545  0.00  0.00    +0.000 N 
ATOM     19  H   UNL     1       4.731   3.435  17.101  0.00  0.00    +0.000 HD
BRANCH  18  20
ATOM     20  C   UNL     1       3.396   3.864  18.642  0.00  0.00    +0.000 A 
ATOM     21  C   UNL     1       3.870   3.171  19.763  0.00  0.00    +0.000 A 
ATOM     22  C   UNL     1       3.008   2.760  20.778  0.00  0.00    +0.000 A 
ATOM     23  C   UNL     1       1.660   3.067  20.687  0.00  0.00    +0.000 A 
ATOM     24  C   UNL     1       1.174   3.810  19.617  0.00  0.00    +0.000 A 
ATOM     25  C   UNL     1       2.043   4.221  18.596  0.00  0.00    +0.000 A 
BRANCH  23  26
ATOM     26  O   UNL     1       0.781   2.645  21.638  0.00  0.00    +0.000 OA
ATOM     27  H   UNL     1       1.100   1.799  21.994  0.00  0.00    +0.000 HD
ENDBRANCH  23  26
ENDBRANCH  18  20
ENDBRANCH  15  16
ENDBRANCH   1  15
TORSDOF 8
ENDMDL
MODEL 9
REMARK VINA RESULT:      -6.8      5.109      7.276
REMARK  Name = 
REMARK  9 active torsions:
REMARK  status: ('A' for Active; 'I' for Inactive)
REMARK    1  A    between atoms: C_1  and  C_2
REMARK    2  A    between atoms: C_7  and  O_8
REMARK    3  A    between atoms: O_8  and  C_9
REMARK    4  A    between atoms: C_9  and  C_10
REMARK    5  A    between atoms: N_12  and  C_13
REMARK    6  A    between atoms: C_13  and  C_14
REMARK    7  A    between atoms: C_14  and  C_15
REMARK    8  A    between atoms: N_17  and  C_18
REMARK    9  A    between atoms: C_21  and  O_22
REMARK                            x       y       z     vdW  Elec       q    Type
REMARK                         _______ _______ _______ _____ _____    ______ ____
ROOT
ATOM      1  C   UNL     1       8.211   6.968  18.685  0.00  0.00    +0.000 C 
ENDROOT
BRANCH   1   4
ATOM      2  C   UNL     1       6.907   4.950  18.044  0.00  0.00    +0.000 C 
ATOM      3  O   UNL     1       7.576   4.757  17.034  0.00  0.00    +0.000 OA
ATOM      4  N   UNL     1       7.171   5.979  18.919  0.00  0.00    +0.000 N 
ATOM      5  H   UNL     1       6.504   6.193  19.657  0.00  0.00    +0.000 HD
BRANCH   2   6
ATOM      6  C   UNL     1       5.685   4.098  18.393  0.00  0.00    +0.000 C 
BRANCH   6   7
ATOM      7  O   UNL     1       4.479   4.781  18.116  0.00  0.00    +0.000 OA
BRANCH   7  14
ATOM      8  C   UNL     1       2.554   2.308  17.577  0.00  0.00    +0.000 C 
ATOM      9  C   UNL     1       2.431   3.397  18.605  0.00  0.00    +0.000 A 
ATOM     10  C   UNL     1       1.295   3.318  19.444  0.00  0.00    +0.000 A 
ATOM     11  C   UNL     1       1.049   4.257  20.442  0.00  0.00    +0.000 A 
ATOM     12  C   UNL     1       1.940   5.301  20.630  0.00  0.00    +0.000 A 
ATOM     13  C   UNL     1       3.067   5.397  19.813  0.00  0.00    +0.000 A 
ATOM     14  C   UNL     1       3.330   4.462  18.793  0.00  0.00    +0.000 A 
ENDBRANCH   7  14
ENDBRANCH   6   7
ENDBRANCH   2   6
ENDBRANCH   1   4
BRANCH   1  15
ATOM     15  C   UNL     1       7.846   7.984  17.596  0.00  0.00    +0.000 C 
BRANCH  15  16
ATOM     16  C   UNL     1       8.213   9.384  18.047  0.00  0.00    +0.000 C 
ATOM     17  O   UNL     1       7.752  10.366  17.472  0.00  0.00    +0.000 OA
ATOM     18  N   UNL     1       9.120   9.426  19.098  0.00  0.00    +0.000 N 
ATOM     19  H   UNL     1       9.583   8.563  19.358  0.00  0.00    +0.000 HD
BRANCH  18  20
ATOM     20  C   UNL     1       9.613  10.621  19.678  0.00  0.00    +0.000 A 
ATOM     21  C   UNL     1       9.154  11.103  20.910  0.00  0.00    +0.000 A 
ATOM     22  C   UNL     1       9.572  12.336  21.407  0.00  0.00    +0.000 A 
ATOM     23  C   UNL     1      10.481  13.087  20.679  0.00  0.00    +0.000 A 
ATOM     24  C   UNL     1      11.002  12.602  19.484  0.00  0.00    +0.000 A 
ATOM     25  C   UNL     1      10.578  11.363  18.985  0.00  0.00    +0.000 A 
BRANCH  23  26
ATOM     26  O   UNL     1      10.880  14.315  21.111  0.00  0.00    +0.000 OA
ATOM     27  H   UNL     1      10.752  14.355  22.074  0.00  0.00    +0.000 HD
ENDBRANCH  23  26
ENDBRANCH  18  20
ENDBRANCH  15  16
ENDBRANCH   1  15
TORSDOF 8
ENDMDL
