MODEL 1
REMARK VINA RESULT:      -7.9      0.000      0.000
REMARK  Name = 
REMARK  8 active torsions:
REMARK  status: ('A' for Active; 'I' for Inactive)
REMARK    1  A    between atoms: C_1  and  O_2
REMARK    2  A    between atoms: O_2  and  C_3
REMARK    3  A    between atoms: C_8  and  C_9
REMARK    4  A    between atoms: N_11  and  C_12
REMARK    5  A    between atoms: C_15  and  C_16
REMARK    6  A    between atoms: C_16  and  O_18
REMARK    7  A    between atoms: O_18  and  C_19
REMARK    8  A    between atoms: C_19  and  C_20
REMARK                            x       y       z     vdW  Elec       q    Type
REMARK                         _______ _______ _______ _____ _____    ______ ____
ROOT
ATOM      1  C   UNL     1       1.633   7.658  20.126  0.00  0.00    +0.000 A 
ATOM      2  C   UNL     1       1.273   6.633  21.007  0.00  0.00    +0.000 A 
ATOM      3  C   UNL     1       1.529   5.294  20.705  0.00  0.00    +0.000 A 
ATOM      4  C   UNL     1       2.151   4.945  19.505  0.00  0.00    +0.000 A 
ATOM      5  C   UNL     1       2.544   5.961  18.625  0.00  0.00    +0.000 A 
ATOM      6  C   UNL     1       2.274   7.310  18.930  0.00  0.00    +0.000 A 
ENDROOT
BRANCH   1   9
ATOM      7  C   UNL     1       0.856   9.924  19.455  0.00  0.00    +0.000 C 
ATOM      8  O   UNL     1       0.502   9.618  18.318  0.00  0.00    +0.000 OA
ATOM      9  N   UNL     1       1.348   9.021  20.385  0.00  0.00    +0.000 N 
ATOM     10  H   UNL     1       1.465   9.361  21.335  0.00  0.00    +0.000 HD
BRANCH   7  16
ATOM     11  C   UNL     1       0.463  11.843  21.156  0.00  0.00    +0.000 A 
ATOM     12  C   UNL     1       0.303  13.229  21.349  0.00  0.00    +0.000 A 
ATOM     13  C   UNL     1       0.416  14.130  20.286  0.00  0.00    +0.000 A 
ATOM     14  C   UNL     1       0.682  13.663  19.011  0.00  0.00    +0.000 A 
ATOM     15  C   UNL     1       0.812  12.293  18.798  0.00  0.00    +0.000 A 
ATOM     16  C   UNL     1       0.693  11.362  19.855  0.00  0.00    +0.000 A 
BRANCH  11  18
ATOM     17  C   UNL     1      -0.867  10.932  22.897  0.00  0.00    +0.000 C 
ATOM     18  O   UNL     1       0.376  10.941  22.189  0.00  0.00    +0.000 OA
ENDBRANCH  11  18
ENDBRANCH   7  16
ENDBRANCH   1   9
BRANCH   4  19
ATOM     19  C   UNL     1       2.307   3.492  19.226  0.00  0.00    +0.000 C 
ATOM     20  O   UNL     1       2.168   2.634  20.084  0.00  0.00    +0.000 OA
BRANCH  19  21
ATOM     21  O   UNL     1       2.566   3.266  17.919  0.00  0.00    +0.000 OA
BRANCH  21  22
ATOM     22  C   UNL     1       3.884   2.772  17.627  0.00  0.00    +0.000 C 
BRANCH  22  23
ATOM     23  C   UNL     1       4.820   3.948  17.442  0.00  0.00    +0.000 A 
ATOM     24  C   UNL     1       4.796   4.672  16.310  0.00  0.00    +0.000 A 
ATOM     25  C   UNL     1       5.727   5.808  16.152  0.00  0.00    +0.000 A 
ATOM     26  O   UNL     1       5.727   6.463  15.113  0.00  0.00    +0.000 OA
ATOM     27  N   UNL     1       6.544   6.025  17.233  0.00  0.00    +0.000 N 
ATOM     28  C   UNL     1       7.482   7.032  17.327  0.00  0.00    +0.000 A 
ATOM     29  C   UNL     1       8.161   7.034  18.476  0.00  0.00    +0.000 A 
ATOM     30  S   UNL     1       7.652   5.737  19.524  0.00  0.00    +0.000 S 
ATOM     31  C   UNL     1       6.477   5.203  18.333  0.00  0.00    +0.000 A 
ATOM     32  N   UNL     1       5.686   4.197  18.489  0.00  0.00    +0.000 NA
ENDBRANCH  22  23
ENDBRANCH  21  22
ENDBRANCH  19  21
ENDBRANCH   4  19
TORSDOF 7
ENDMDL
MODEL 2
REMARK VINA RESULT:      -7.9      0.988      1.411
REMARK  Name = 
REMARK  8 active torsions:
REMARK  status: ('A' for Active; 'I' for Inactive)
REMARK    1  A    between atoms: C_1  and  O_2
REMARK    2  A    between atoms: O_2  and  C_3
REMARK    3  A    between atoms: C_8  and  C_9
REMARK    4  A    between atoms: N_11  and  C_12
REMARK    5  A    between atoms: C_15  and  C_16
REMARK    6  A    between atoms: C_16  and  O_18
REMARK    7  A    between atoms: O_18  and  C_19
REMARK    8  A    between atoms: C_19  and  C_20
REMARK                            x       y       z     vdW  Elec       q    Type
REMARK                         _______ _______ _______ _____ _____    ______ ____
ROOT
ATOM      1  C   UNL     1       1.853   7.592  19.577  0.00  0.00    +0.000 A 
ATOM      2  C   UNL     1       2.079   7.006  18.327  0.00  0.00    +0.000 A 
ATOM      3  C   UNL     1       2.028   5.622  18.155  0.00  0.00    +0.000 A 
ATOM      4  C   UNL     1       1.752   4.784  19.236  0.00  0.00    +0.000 A 
ATOM      5  C   UNL     1       1.494   5.355  20.489  0.00  0.00    +0.000 A 
ATOM      6  C   UNL     1       1.558   6.752  20.659  0.00  0.00    +0.000 A 
ENDROOT
BRANCH   1   9
ATOM      7  C   UNL     1       1.200   9.949  19.120  0.00  0.00    +0.000 C 
ATOM      8  O   UNL     1       0.292   9.689  18.331  0.00  0.00    +0.000 OA
ATOM      9  N   UNL     1       1.941   8.989  19.792  0.00  0.00    +0.000 N 
ATOM     10  H   UNL     1       2.558   9.320  20.527  0.00  0.00    +0.000 HD
BRANCH   7  16
ATOM     11  C   UNL     1       1.257  12.074  20.606  0.00  0.00    +0.000 A 
ATOM     12  C   UNL     1       1.540  13.451  20.679  0.00  0.00    +0.000 A 
ATOM     13  C   UNL     1       2.072  14.143  19.587  0.00  0.00    +0.000 A 
ATOM     14  C   UNL     1       2.322  13.474  18.401  0.00  0.00    +0.000 A 
ATOM     15  C   UNL     1       2.019  12.119  18.304  0.00  0.00    +0.000 A 
ATOM     16  C   UNL     1       1.472  11.399  19.391  0.00  0.00    +0.000 A 
BRANCH  11  18
ATOM     17  C   UNL     1      -0.587  11.697  22.051  0.00  0.00    +0.000 C 
ATOM     18  O   UNL     1       0.752  11.369  21.674  0.00  0.00    +0.000 OA
ENDBRANCH  11  18
ENDBRANCH   7  16
ENDBRANCH   1   9
BRANCH   4  19
ATOM     19  C   UNL     1       1.801   3.319  18.982  0.00  0.00    +0.000 C 
ATOM     20  O   UNL     1       1.063   2.759  18.184  0.00  0.00    +0.000 OA
BRANCH  19  21
ATOM     21  O   UNL     1       2.781   2.726  19.698  0.00  0.00    +0.000 OA
BRANCH  21  22
ATOM     22  C   UNL     1       3.827   2.113  18.925  0.00  0.00    +0.000 C 
BRANCH  22  23
ATOM     23  C   UNL     1       4.653   3.198  18.266  0.00  0.00    +0.000 A 
ATOM     24  C   UNL     1       4.536   3.445  16.950  0.00  0.00    +0.000 A 
ATOM     25  C   UNL     1       5.362   4.503  16.331  0.00  0.00    +0.000 A 
ATOM     26  O   UNL     1       5.276   4.722  15.126  0.00  0.00    +0.000 OA
ATOM     27  N   UNL     1       6.186   5.163  17.208  0.00  0.00    +0.000 N 
ATOM     28  C   UNL     1       7.036   6.195  16.870  0.00  0.00    +0.000 A 
ATOM     29  C   UNL     1       7.743   6.672  17.896  0.00  0.00    +0.000 A 
ATOM     30  S   UNL     1       7.376   5.827  19.376  0.00  0.00    +0.000 S 
ATOM     31  C   UNL     1       6.219   4.807  18.536  0.00  0.00    +0.000 A 
ATOM     32  N   UNL     1       5.522   3.879  19.096  0.00  0.00    +0.000 NA
ENDBRANCH  22  23
ENDBRANCH  21  22
ENDBRANCH  19  21
ENDBRANCH   4  19
TORSDOF 7
ENDMDL
MODEL 3
REMARK VINA RESULT:      -7.8      0.896      1.704
REMARK  Name = 
REMARK  8 active torsions:
REMARK  status: ('A' for Active; 'I' for Inactive)
REMARK    1  A    between atoms: C_1  and  O_2
REMARK    2  A    between atoms: O_2  and  C_3
REMARK    3  A    between atoms: C_8  and  C_9
REMARK    4  A    between atoms: N_11  and  C_12
REMARK    5  A    between atoms: C_15  and  C_16
REMARK    6  A    between atoms: C_16  and  O_18
REMARK    7  A    between atoms: O_18  and  C_19
REMARK    8  A    between atoms: C_19  and  C_20
REMARK                            x       y       z     vdW  Elec       q    Type
REMARK                         _______ _______ _______ _____ _____    ______ ____
ROOT
ATOM      1  C   UNL     1       1.768   7.657  19.918  0.00  0.00    +0.000 A 
ATOM      2  C   UNL     1       1.669   6.646  20.879  0.00  0.00    +0.000 A 
ATOM      3  C   UNL     1       1.775   5.299  20.528  0.00  0.00    +0.000 A 
ATOM      4  C   UNL     1       1.980   4.928  19.199  0.00  0.00    +0.000 A 
ATOM      5  C   UNL     1       2.110   5.928  18.227  0.00  0.00    +0.000 A 
ATOM      6  C   UNL     1       1.991   7.285  18.585  0.00  0.00    +0.000 A 
ENDROOT
BRANCH   1   9
ATOM      7  C   UNL     1       0.417   9.663  20.500  0.00  0.00    +0.000 C 
ATOM      8  O   UNL     1      -0.661   9.080  20.599  0.00  0.00    +0.000 OA
ATOM      9  N   UNL     1       1.622   9.029  20.237  0.00  0.00    +0.000 N 
ATOM     10  H   UNL     1       2.463   9.590  20.327  0.00  0.00    +0.000 HD
BRANCH   7  16
ATOM     11  C   UNL     1       1.038  12.116  19.926  0.00  0.00    +0.000 A 
ATOM     12  C   UNL     1       0.958  13.469  20.306  0.00  0.00    +0.000 A 
ATOM     13  C   UNL     1       0.233  13.866  21.434  0.00  0.00    +0.000 A 
ATOM     14  C   UNL     1      -0.417  12.919  22.206  0.00  0.00    +0.000 A 
ATOM     15  C   UNL     1      -0.322  11.574  21.860  0.00  0.00    +0.000 A 
ATOM     16  C   UNL     1       0.412  11.147  20.730  0.00  0.00    +0.000 A 
BRANCH  11  18
ATOM     17  C   UNL     1       2.517  12.709  18.169  0.00  0.00    +0.000 C 
ATOM     18  O   UNL     1       1.728  11.704  18.810  0.00  0.00    +0.000 OA
ENDBRANCH  11  18
ENDBRANCH   7  16
ENDBRANCH   1   9
BRANCH   4  19
ATOM     19  C   UNL     1       1.995   3.469  18.902  0.00  0.00    +0.000 C 
ATOM     20  O   UNL     1       1.535   2.633  19.665  0.00  0.00    +0.000 OA
BRANCH  19  21
ATOM     21  O   UNL     1       2.526   3.219  17.685  0.00  0.00    +0.000 OA
BRANCH  21  22
ATOM     22  C   UNL     1       3.893   2.774  17.687  0.00  0.00    +0.000 C 
BRANCH  22  23
ATOM     23  C   UNL     1       4.801   3.971  17.499  0.00  0.00    +0.000 A 
ATOM     24  C   UNL     1       4.710   4.732  16.395  0.00  0.00    +0.000 A 
ATOM     25  C   UNL     1       5.616   5.889  16.232  0.00  0.00    +0.000 A 
ATOM     26  O   UNL     1       5.555   6.579  15.218  0.00  0.00    +0.000 OA
ATOM     27  N   UNL     1       6.480   6.083  17.281  0.00  0.00    +0.000 N 
ATOM     28  C   UNL     1       7.406   7.102  17.364  0.00  0.00    +0.000 A 
ATOM     29  C   UNL     1       8.139   7.077  18.479  0.00  0.00    +0.000 A 
ATOM     30  S   UNL     1       7.701   5.737  19.505  0.00  0.00    +0.000 S 
ATOM     31  C   UNL     1       6.478   5.223  18.353  0.00  0.00    +0.000 A 
ATOM     32  N   UNL     1       5.711   4.199  18.511  0.00  0.00    +0.000 NA
ENDBRANCH  22  23
ENDBRANCH  21  22
ENDBRANCH  19  21
ENDBRANCH   4  19
TORSDOF 7
ENDMDL
MODEL 4
REMARK VINA RESULT:      -7.7      4.525     10.276
REMARK  Name = 
REMARK  8 active torsions:
REMARK  status: ('A' for Active; 'I' for Inactive)
REMARK    1  A    between atoms: C_1  and  O_2
REMARK    2  A    between atoms: O_2  and  C_3
REMARK    3  A    between atoms: C_8  and  C_9
REMARK    4  A    between atoms: N_11  and  C_12
REMARK    5  A    between atoms: C_15  and  C_16
REMARK    6  A    between atoms: C_16  and  O_18
REMARK    7  A    between atoms: O_18  and  C_19
REMARK    8  A    between atoms: C_19  and  C_20
REMARK                            x       y       z     vdW  Elec       q    Type
REMARK                         _______ _______ _______ _____ _____    ______ ____
ROOT
ATOM      1  C   UNL     1       1.339   8.547  20.440  0.00  0.00    +0.000 A 
ATOM      2  C   UNL     1       1.282   9.879  20.016  0.00  0.00    +0.000 A 
ATOM      3  C   UNL     1       0.448  10.805  20.645  0.00  0.00    +0.000 A 
ATOM      4  C   UNL     1      -0.358  10.419  21.716  0.00  0.00    +0.000 A 
ATOM      5  C   UNL     1      -0.293   9.096  22.172  0.00  0.00    +0.000 A 
ATOM      6  C   UNL     1       0.542   8.163  21.527  0.00  0.00    +0.000 A 
ENDROOT
BRANCH   1   9
ATOM      7  C   UNL     1       2.326   7.473  18.425  0.00  0.00    +0.000 C 
ATOM      8  O   UNL     1       1.898   8.289  17.610  0.00  0.00    +0.000 OA
ATOM      9  N   UNL     1       2.142   7.575  19.795  0.00  0.00    +0.000 N 
ATOM     10  H   UNL     1       2.665   6.928  20.376  0.00  0.00    +0.000 HD
BRANCH   7  16
ATOM     11  C   UNL     1       2.771   4.970  17.907  0.00  0.00    +0.000 A 
ATOM     12  C   UNL     1       3.665   4.020  17.378  0.00  0.00    +0.000 A 
ATOM     13  C   UNL     1       4.875   4.405  16.793  0.00  0.00    +0.000 A 
ATOM     14  C   UNL     1       5.217   5.745  16.733  0.00  0.00    +0.000 A 
ATOM     15  C   UNL     1       4.357   6.695  17.279  0.00  0.00    +0.000 A 
ATOM     16  C   UNL     1       3.133   6.329  17.883  0.00  0.00    +0.000 A 
BRANCH  11  18
ATOM     17  C   UNL     1       1.646   3.981  19.747  0.00  0.00    +0.000 C 
ATOM     18  O   UNL     1       1.567   4.616  18.468  0.00  0.00    +0.000 OA
ENDBRANCH  11  18
ENDBRANCH   7  16
ENDBRANCH   1   9
BRANCH   4  19
ATOM     19  C   UNL     1      -1.279  11.448  22.271  0.00  0.00    +0.000 C 
ATOM     20  O   UNL     1      -1.774  11.363  23.385  0.00  0.00    +0.000 OA
BRANCH  19  21
ATOM     21  O   UNL     1      -1.442  12.479  21.413  0.00  0.00    +0.000 OA
BRANCH  21  22
ATOM     22  C   UNL     1      -2.466  13.423  21.769  0.00  0.00    +0.000 C 
BRANCH  22  23
ATOM     23  C   UNL     1      -3.795  12.933  21.233  0.00  0.00    +0.000 A 
ATOM     24  C   UNL     1      -4.838  12.744  22.059  0.00  0.00    +0.000 A 
ATOM     25  C   UNL     1      -6.121  12.255  21.511  0.00  0.00    +0.000 A 
ATOM     26  O   UNL     1      -7.075  12.060  22.260  0.00  0.00    +0.000 OA
ATOM     27  N   UNL     1      -6.117  12.053  20.153  0.00  0.00    +0.000 N 
ATOM     28  C   UNL     1      -7.196  11.616  19.415  0.00  0.00    +0.000 A 
ATOM     29  C   UNL     1      -6.944  11.488  18.111  0.00  0.00    +0.000 A 
ATOM     30  S   UNL     1      -5.296  11.913  17.732  0.00  0.00    +0.000 S 
ATOM     31  C   UNL     1      -4.975  12.276  19.420  0.00  0.00    +0.000 A 
ATOM     32  N   UNL     1      -3.841  12.686  19.875  0.00  0.00    +0.000 NA
ENDBRANCH  22  23
ENDBRANCH  21  22
ENDBRANCH  19  21
ENDBRANCH   4  19
TORSDOF 7
ENDMDL
MODEL 5
REMARK VINA RESULT:      -7.7      4.010      9.710
REMARK  Name = 
REMARK  8 active torsions:
REMARK  status: ('A' for Active; 'I' for Inactive)
REMARK    1  A    between atoms: C_1  and  O_2
REMARK    2  A    between atoms: O_2  and  C_3
REMARK    3  A    between atoms: C_8  and  C_9
REMARK    4  A    between atoms: N_11  and  C_12
REMARK    5  A    between atoms: C_15  and  C_16
REMARK    6  A    between atoms: C_16  and  O_18
REMARK    7  A    between atoms: O_18  and  C_19
REMARK    8  A    between atoms: C_19  and  C_20
REMARK                            x       y       z     vdW  Elec       q    Type
REMARK                         _______ _______ _______ _____ _____    ______ ____
ROOT
ATOM      1  C   UNL     1       1.372   8.252  20.594  0.00  0.00    +0.000 A 
ATOM      2  C   UNL     1       1.115   9.301  19.705  0.00  0.00    +0.000 A 
ATOM      3  C   UNL     1       0.594  10.517  20.148  0.00  0.00    +0.000 A 
ATOM      4  C   UNL     1       0.311  10.716  21.500  0.00  0.00    +0.000 A 
ATOM      5  C   UNL     1       0.589   9.687  22.409  0.00  0.00    +0.000 A 
ATOM      6  C   UNL     1       1.105   8.458  21.955  0.00  0.00    +0.000 A 
ENDROOT
BRANCH   1   9
ATOM      7  C   UNL     1       2.599   6.770  19.018  0.00  0.00    +0.000 C 
ATOM      8  O   UNL     1       3.017   7.665  18.284  0.00  0.00    +0.000 OA
ATOM      9  N   UNL     1       1.859   6.992  20.169  0.00  0.00    +0.000 N 
ATOM     10  H   UNL     1       1.700   6.192  20.772  0.00  0.00    +0.000 HD
BRANCH   7  16
ATOM     11  C   UNL     1       4.166   4.703  18.970  0.00  0.00    +0.000 A 
ATOM     12  C   UNL     1       4.359   3.384  18.518  0.00  0.00    +0.000 A 
ATOM     13  C   UNL     1       3.365   2.707  17.804  0.00  0.00    +0.000 A 
ATOM     14  C   UNL     1       2.166   3.338  17.521  0.00  0.00    +0.000 A 
ATOM     15  C   UNL     1       1.973   4.653  17.935  0.00  0.00    +0.000 A 
ATOM     16  C   UNL     1       2.965   5.361  18.650  0.00  0.00    +0.000 A 
BRANCH  11  18
ATOM     17  C   UNL     1       6.381   5.549  19.039  0.00  0.00    +0.000 C 
ATOM     18  O   UNL     1       5.120   5.381  19.691  0.00  0.00    +0.000 OA
ENDBRANCH  11  18
ENDBRANCH   7  16
ENDBRANCH   1   9
BRANCH   4  19
ATOM     19  C   UNL     1      -0.322  12.010  21.872  0.00  0.00    +0.000 C 
ATOM     20  O   UNL     1       0.309  13.053  21.966  0.00  0.00    +0.000 OA
BRANCH  19  21
ATOM     21  O   UNL     1      -1.656  11.879  22.036  0.00  0.00    +0.000 OA
BRANCH  21  22
ATOM     22  C   UNL     1      -2.445  13.001  21.605  0.00  0.00    +0.000 C 
BRANCH  22  23
ATOM     23  C   UNL     1      -3.225  12.608  20.368  0.00  0.00    +0.000 A 
ATOM     24  C   UNL     1      -4.554  12.803  20.306  0.00  0.00    +0.000 A 
ATOM     25  C   UNL     1      -5.293  12.401  19.091  0.00  0.00    +0.000 A 
ATOM     26  O   UNL     1      -6.510  12.556  19.032  0.00  0.00    +0.000 OA
ATOM     27  N   UNL     1      -4.507  11.864  18.102  0.00  0.00    +0.000 N 
ATOM     28  C   UNL     1      -4.964  11.432  16.875  0.00  0.00    +0.000 A 
ATOM     29  C   UNL     1      -4.009  10.940  16.084  0.00  0.00    +0.000 A 
ATOM     30  S   UNL     1      -2.447  10.989  16.858  0.00  0.00    +0.000 S 
ATOM     31  C   UNL     1      -3.154  11.710  18.294  0.00  0.00    +0.000 A 
ATOM     32  N   UNL     1      -2.489  12.037  19.350  0.00  0.00    +0.000 NA
ENDBRANCH  22  23
ENDBRANCH  21  22
ENDBRANCH  19  21
ENDBRANCH   4  19
TORSDOF 7
ENDMDL
MODEL 6
REMARK VINA RESULT:      -7.7      4.436     10.348
REMARK  Name = 
REMARK  8 active torsions:
REMARK  status: ('A' for Active; 'I' for Inactive)
REMARK    1  A    between atoms: C_1  and  O_2
REMARK    2  A    between atoms: O_2  and  C_3
REMARK    3  A    between atoms: C_8  and  C_9
REMARK    4  A    between atoms: N_11  and  C_12
REMARK    5  A    between atoms: C_15  and  C_16
REMARK    6  A    between atoms: C_16  and  O_18
REMARK    7  A    between atoms: O_18  and  C_19
REMARK    8  A    between atoms: C_19  and  C_20
REMARK                            x       y       z     vdW  Elec       q    Type
REMARK                         _______ _______ _______ _____ _____    ______ ____
ROOT
ATOM      1  C   UNL     1       1.366   8.541  20.215  0.00  0.00    +0.000 A 
ATOM      2  C   UNL     1       1.246   8.623  21.606  0.00  0.00    +0.000 A 
ATOM      3  C   UNL     1       0.491   9.630  22.210  0.00  0.00    +0.000 A 
ATOM      4  C   UNL     1      -0.163  10.587  21.434  0.00  0.00    +0.000 A 
ATOM      5  C   UNL     1      -0.077  10.503  20.038  0.00  0.00    +0.000 A 
ATOM      6  C   UNL     1       0.695   9.492  19.434  0.00  0.00    +0.000 A 
ENDROOT
BRANCH   1   9
ATOM      7  C   UNL     1       2.174   6.210  19.896  0.00  0.00    +0.000 C 
ATOM      8  O   UNL     1       1.410   5.687  20.707  0.00  0.00    +0.000 OA
ATOM      9  N   UNL     1       2.160   7.558  19.574  0.00  0.00    +0.000 N 
ATOM     10  H   UNL     1       2.731   7.846  18.786  0.00  0.00    +0.000 HD
BRANCH   7  16
ATOM     11  C   UNL     1       2.808   4.204  18.378  0.00  0.00    +0.000 A 
ATOM     12  C   UNL     1       3.846   3.439  17.812  0.00  0.00    +0.000 A 
ATOM     13  C   UNL     1       5.188   3.781  18.004  0.00  0.00    +0.000 A 
ATOM     14  C   UNL     1       5.518   4.885  18.770  0.00  0.00    +0.000 A 
ATOM     15  C   UNL     1       4.503   5.634  19.360  0.00  0.00    +0.000 A 
ATOM     16  C   UNL     1       3.140   5.304  19.189  0.00  0.00    +0.000 A 
BRANCH  11  18
ATOM     17  C   UNL     1       1.078   2.599  18.624  0.00  0.00    +0.000 C 
ATOM     18  O   UNL     1       1.481   3.899  18.186  0.00  0.00    +0.000 OA
ENDBRANCH  11  18
ENDBRANCH   7  16
ENDBRANCH   1   9
BRANCH   4  19
ATOM     19  C   UNL     1      -0.874  11.673  22.162  0.00  0.00    +0.000 C 
ATOM     20  O   UNL     1      -1.051  11.654  23.371  0.00  0.00    +0.000 OA
BRANCH  19  21
ATOM     21  O   UNL     1      -1.237  12.672  21.328  0.00  0.00    +0.000 OA
BRANCH  21  22
ATOM     22  C   UNL     1      -2.313  13.505  21.792  0.00  0.00    +0.000 C 
BRANCH  22  23
ATOM     23  C   UNL     1      -3.621  12.965  21.254  0.00  0.00    +0.000 A 
ATOM     24  C   UNL     1      -4.681  12.805  22.065  0.00  0.00    +0.000 A 
ATOM     25  C   UNL     1      -5.943  12.266  21.516  0.00  0.00    +0.000 A 
ATOM     26  O   UNL     1      -6.911  12.098  22.252  0.00  0.00    +0.000 OA
ATOM     27  N   UNL     1      -5.903  11.990  20.172  0.00  0.00    +0.000 N 
ATOM     28  C   UNL     1      -6.958  11.496  19.435  0.00  0.00    +0.000 A 
ATOM     29  C   UNL     1      -6.673  11.300  18.146  0.00  0.00    +0.000 A 
ATOM     30  S   UNL     1      -5.024  11.730  17.781  0.00  0.00    +0.000 S 
ATOM     31  C   UNL     1      -4.748  12.190  19.454  0.00  0.00    +0.000 A 
ATOM     32  N   UNL     1      -3.631  12.642  19.912  0.00  0.00    +0.000 NA
ENDBRANCH  22  23
ENDBRANCH  21  22
ENDBRANCH  19  21
ENDBRANCH   4  19
TORSDOF 7
ENDMDL
MODEL 7
REMARK VINA RESULT:      -7.6      3.729     10.147
REMARK  Name = 
REMARK  8 active torsions:
REMARK  status: ('A' for Active; 'I' for Inactive)
REMARK    1  A    between atoms: C_1  and  O_2
REMARK    2  A    between atoms: O_2  and  C_3
REMARK    3  A    between atoms: C_8  and  C_9
REMARK    4  A    between atoms: N_11  and  C_12
REMARK    5  A    between atoms: C_15  and  C_16
REMARK    6  A    between atoms: C_16  and  O_18
REMARK    7  A    between atoms: O_18  and  C_19
REMARK    8  A    between atoms: C_19  and  C_20
REMARK                            x       y       z     vdW  Elec       q    Type
REMARK                         _______ _______ _______ _____ _____    ______ ____
ROOT
ATOM      1  C   UNL     1       2.333   7.721  18.500  0.00  0.00    +0.000 A 
ATOM      2  C   UNL     1       1.878   8.876  17.855  0.00  0.00    +0.000 A 
ATOM      3  C   UNL     1       1.151   9.850  18.540  0.00  0.00    +0.000 A 
ATOM      4  C   UNL     1       0.856   9.692  19.895  0.00  0.00    +0.000 A 
ATOM      5  C   UNL     1       1.329   8.557  20.564  0.00  0.00    +0.000 A 
ATOM      6  C   UNL     1       2.053   7.571  19.865  0.00  0.00    +0.000 A 
ENDROOT
BRANCH   1   9
ATOM      7  C   UNL     1       4.354   6.773  17.402  0.00  0.00    +0.000 C 
ATOM      8  O   UNL     1       5.108   7.708  17.669  0.00  0.00    +0.000 OA
ATOM      9  N   UNL     1       3.036   6.695  17.823  0.00  0.00    +0.000 N 
ATOM     10  H   UNL     1       2.559   5.812  17.671  0.00  0.00    +0.000 HD
BRANCH   7  16
ATOM     11  C   UNL     1       5.001   4.291  17.015  0.00  0.00    +0.000 A 
ATOM     12  C   UNL     1       5.608   3.354  16.157  0.00  0.00    +0.000 A 
ATOM     13  C   UNL     1       6.097   3.727  14.901  0.00  0.00    +0.000 A 
ATOM     14  C   UNL     1       5.997   5.043  14.484  0.00  0.00    +0.000 A 
ATOM     15  C   UNL     1       5.427   5.987  15.334  0.00  0.00    +0.000 A 
ATOM     16  C   UNL     1       4.933   5.636  16.611  0.00  0.00    +0.000 A 
BRANCH  11  18
ATOM     17  C   UNL     1       3.365   3.066  18.220  0.00  0.00    +0.000 C 
ATOM     18  O   UNL     1       4.495   3.943  18.245  0.00  0.00    +0.000 OA
ENDBRANCH  11  18
ENDBRANCH   7  16
ENDBRANCH   1   9
BRANCH   4  19
ATOM     19  C   UNL     1       0.004  10.738  20.524  0.00  0.00    +0.000 C 
ATOM     20  O   UNL     1      -0.919  11.282  19.937  0.00  0.00    +0.000 OA
BRANCH  19  21
ATOM     21  O   UNL     1       0.355  10.952  21.811  0.00  0.00    +0.000 OA
BRANCH  21  22
ATOM     22  C   UNL     1      -0.655  10.645  22.787  0.00  0.00    +0.000 C 
BRANCH  22  23
ATOM     23  C   UNL     1      -1.401  11.915  23.139  0.00  0.00    +0.000 A 
ATOM     24  C   UNL     1      -2.728  11.894  23.348  0.00  0.00    +0.000 A 
ATOM     25  C   UNL     1      -3.433  13.150  23.681  0.00  0.00    +0.000 A 
ATOM     26  O   UNL     1      -4.649  13.145  23.854  0.00  0.00    +0.000 OA
ATOM     27  N   UNL     1      -2.619  14.252  23.762  0.00  0.00    +0.000 N 
ATOM     28  C   UNL     1      -3.042  15.527  24.072  0.00  0.00    +0.000 A 
ATOM     29  C   UNL     1      -2.063  16.434  24.083  0.00  0.00    +0.000 A 
ATOM     30  S   UNL     1      -0.522  15.721  23.687  0.00  0.00    +0.000 S 
ATOM     31  C   UNL     1      -1.270  14.141  23.516  0.00  0.00    +0.000 A 
ATOM     32  N   UNL     1      -0.635  13.062  23.208  0.00  0.00    +0.000 NA
ENDBRANCH  22  23
ENDBRANCH  21  22
ENDBRANCH  19  21
ENDBRANCH   4  19
TORSDOF 7
ENDMDL
MODEL 8
REMARK VINA RESULT:      -7.6      1.305      1.412
REMARK  Name = 
REMARK  8 active torsions:
REMARK  status: ('A' for Active; 'I' for Inactive)
REMARK    1  A    between atoms: C_1  and  O_2
REMARK    2  A    between atoms: O_2  and  C_3
REMARK    3  A    between atoms: C_8  and  C_9
REMARK    4  A    between atoms: N_11  and  C_12
REMARK    5  A    between atoms: C_15  and  C_16
REMARK    6  A    between atoms: C_16  and  O_18
REMARK    7  A    between atoms: O_18  and  C_19
REMARK    8  A    between atoms: C_19  and  C_20
REMARK                            x       y       z     vdW  Elec       q    Type
REMARK                         _______ _______ _______ _____ _____    ______ ____
ROOT
ATOM      1  C   UNL     1       1.676   8.065  19.689  0.00  0.00    +0.000 A 
ATOM      2  C   UNL     1       1.366   7.250  20.782  0.00  0.00    +0.000 A 
ATOM      3  C   UNL     1       1.667   5.887  20.779  0.00  0.00    +0.000 A 
ATOM      4  C   UNL     1       2.287   5.302  19.674  0.00  0.00    +0.000 A 
ATOM      5  C   UNL     1       2.631   6.109  18.583  0.00  0.00    +0.000 A 
ATOM      6  C   UNL     1       2.315   7.481  18.587  0.00  0.00    +0.000 A 
ENDROOT
BRANCH   1   9
ATOM      7  C   UNL     1       1.570  10.283  18.567  0.00  0.00    +0.000 C 
ATOM      8  O   UNL     1       1.988   9.905  17.473  0.00  0.00    +0.000 OA
ATOM      9  N   UNL     1       1.343   9.441  19.645  0.00  0.00    +0.000 N 
ATOM     10  H   UNL     1       0.858   9.840  20.442  0.00  0.00    +0.000 HD
BRANCH   7  16
ATOM     11  C   UNL     1      -0.003  12.291  19.038  0.00  0.00    +0.000 A 
ATOM     12  C   UNL     1      -0.138  13.691  19.095  0.00  0.00    +0.000 A 
ATOM     13  C   UNL     1       0.953  14.537  18.874  0.00  0.00    +0.000 A 
ATOM     14  C   UNL     1       2.195  14.000  18.583  0.00  0.00    +0.000 A 
ATOM     15  C   UNL     1       2.338  12.618  18.494  0.00  0.00    +0.000 A 
ATOM     16  C   UNL     1       1.248  11.743  18.705  0.00  0.00    +0.000 A 
BRANCH  11  18
ATOM     17  C   UNL     1      -2.216  11.657  18.463  0.00  0.00    +0.000 C 
ATOM     18  O   UNL     1      -1.057  11.440  19.273  0.00  0.00    +0.000 OA
ENDBRANCH  11  18
ENDBRANCH   7  16
ENDBRANCH   1   9
BRANCH   4  19
ATOM     19  C   UNL     1       2.495   3.829  19.721  0.00  0.00    +0.000 C 
ATOM     20  O   UNL     1       2.603   3.208  20.767  0.00  0.00    +0.000 OA
BRANCH  19  21
ATOM     21  O   UNL     1       2.494   3.291  18.482  0.00  0.00    +0.000 OA
BRANCH  21  22
ATOM     22  C   UNL     1       3.744   2.723  18.054  0.00  0.00    +0.000 C 
BRANCH  22  23
ATOM     23  C   UNL     1       4.707   3.845  17.725  0.00  0.00    +0.000 A 
ATOM     24  C   UNL     1       4.678   4.442  16.522  0.00  0.00    +0.000 A 
ATOM     25  C   UNL     1       5.636   5.527  16.223  0.00  0.00    +0.000 A 
ATOM     26  O   UNL     1       5.631   6.065  15.120  0.00  0.00    +0.000 OA
ATOM     27  N   UNL     1       6.481   5.837  17.260  0.00  0.00    +0.000 N 
ATOM     28  C   UNL     1       7.447   6.820  17.227  0.00  0.00    +0.000 A 
ATOM     29  C   UNL     1       8.149   6.928  18.356  0.00  0.00    +0.000 A 
ATOM     30  S   UNL     1       7.628   5.768  19.549  0.00  0.00    +0.000 S 
ATOM     31  C   UNL     1       6.414   5.141  18.444  0.00  0.00    +0.000 A 
ATOM     32  N   UNL     1       5.600   4.181  18.723  0.00  0.00    +0.000 NA
ENDBRANCH  22  23
ENDBRANCH  21  22
ENDBRANCH  19  21
ENDBRANCH   4  19
TORSDOF 7
ENDMDL
MODEL 9
REMARK VINA RESULT:      -7.6      2.775      8.546
REMARK  Name = 
REMARK  8 active torsions:
REMARK  status: ('A' for Active; 'I' for Inactive)
REMARK    1  A    between atoms: C_1  and  O_2
REMARK    2  A    between atoms: O_2  and  C_3
REMARK    3  A    between atoms: C_8  and  C_9
REMARK    4  A    between atoms: N_11  and  C_12
REMARK    5  A    between atoms: C_15  and  C_16
REMARK    6  A    between atoms: C_16  and  O_18
REMARK    7  A    between atoms: O_18  and  C_19
REMARK    8  A    between atoms: C_19  and  C_20
REMARK                            x       y       z     vdW  Elec       q    Type
REMARK                         _______ _______ _______ _____ _____    ______ ____
ROOT
ATOM      1  C   UNL     1       2.456   7.195  18.885  0.00  0.00    +0.000 A 
ATOM      2  C   UNL     1       2.084   6.527  20.057  0.00  0.00    +0.000 A 
ATOM      3  C   UNL     1       1.298   7.150  21.028  0.00  0.00    +0.000 A 
ATOM      4  C   UNL     1       0.866   8.465  20.853  0.00  0.00    +0.000 A 
ATOM      5  C   UNL     1       1.204   9.139  19.673  0.00  0.00    +0.000 A 
ATOM      6  C   UNL     1       2.007   8.510  18.701  0.00  0.00    +0.000 A 
ENDROOT
BRANCH   1   9
ATOM      7  C   UNL     1       4.422   5.853  18.164  0.00  0.00    +0.000 C 
ATOM      8  O   UNL     1       4.779   5.513  19.291  0.00  0.00    +0.000 OA
ATOM      9  N   UNL     1       3.288   6.606  17.902  0.00  0.00    +0.000 N 
ATOM     10  H   UNL     1       3.013   6.696  16.929  0.00  0.00    +0.000 HD
BRANCH   7  16
ATOM     11  C   UNL     1       6.310   6.072  16.398  0.00  0.00    +0.000 A 
ATOM     12  C   UNL     1       6.971   5.482  15.303  0.00  0.00    +0.000 A 
ATOM     13  C   UNL     1       6.631   4.204  14.852  0.00  0.00    +0.000 A 
ATOM     14  C   UNL     1       5.621   3.495  15.478  0.00  0.00    +0.000 A 
ATOM     15  C   UNL     1       4.938   4.077  16.543  0.00  0.00    +0.000 A 
ATOM     16  C   UNL     1       5.256   5.372  17.012  0.00  0.00    +0.000 A 
BRANCH  11  18
ATOM     17  C   UNL     1       7.738   7.360  17.786  0.00  0.00    +0.000 C 
ATOM     18  O   UNL     1       6.640   7.320  16.872  0.00  0.00    +0.000 OA
ENDBRANCH  11  18
ENDBRANCH   7  16
ENDBRANCH   1   9
BRANCH   4  19
ATOM     19  C   UNL     1       0.105   9.078  21.976  0.00  0.00    +0.000 C 
ATOM     20  O   UNL     1      -0.824   8.514  22.533  0.00  0.00    +0.000 OA
BRANCH  19  21
ATOM     21  O   UNL     1       0.608  10.287  22.310  0.00  0.00    +0.000 OA
BRANCH  21  22
ATOM     22  C   UNL     1      -0.292  11.396  22.150  0.00  0.00    +0.000 C 
BRANCH  22  23
ATOM     23  C   UNL     1       0.274  12.345  21.115  0.00  0.00    +0.000 A 
ATOM     24  C   UNL     1      -0.421  12.641  20.004  0.00  0.00    +0.000 A 
ATOM     25  C   UNL     1       0.160  13.562  19.005  0.00  0.00    +0.000 A 
ATOM     26  O   UNL     1      -0.459  13.824  17.977  0.00  0.00    +0.000 OA
ATOM     27  N   UNL     1       1.397  14.054  19.340  0.00  0.00    +0.000 N 
ATOM     28  C   UNL     1       2.129  14.939  18.577  0.00  0.00    +0.000 A 
ATOM     29  C   UNL     1       3.308  15.265  19.110  0.00  0.00    +0.000 A 
ATOM     30  S   UNL     1       3.571  14.455  20.632  0.00  0.00    +0.000 S 
ATOM     31  C   UNL     1       2.008  13.664  20.508  0.00  0.00    +0.000 A 
ATOM     32  N   UNL     1       1.530  12.850  21.386  0.00  0.00    +0.000 NA
ENDBRANCH  22  23
ENDBRANCH  21  22
ENDBRANCH  19  21
ENDBRANCH   4  19
TORSDOF 7
ENDMDL
