MODEL 1
REMARK VINA RESULT:      -7.8      0.000      0.000
REMARK  Name = 
REMARK  3 active torsions:
REMARK  status: ('A' for Active; 'I' for Inactive)
REMARK    1  A    between atoms: O_1  and  C_2
REMARK    2  A    between atoms: N_5  and  C_6
REMARK    3  A    between atoms: C_6  and  C_7
REMARK                            x       y       z     vdW  Elec       q    Type
REMARK                         _______ _______ _______ _____ _____    ______ ____
ROOT
ATOM      1  C   UNL     1       4.936   5.034  16.729  0.00  0.00    +0.000 A 
ATOM      2  C   UNL     1       4.195   6.096  17.295  0.00  0.00    +0.000 A 
ATOM      3  C   UNL     1       3.046   5.854  18.054  0.00  0.00    +0.000 A 
ATOM      4  C   UNL     1       2.634   4.544  18.221  0.00  0.00    +0.000 A 
ATOM      5  C   UNL     1       3.350   3.484  17.656  0.00  0.00    +0.000 A 
ATOM      6  C   UNL     1       4.508   3.712  16.924  0.00  0.00    +0.000 A 
ATOM      7  C   UNL     1       2.706   2.176  17.988  0.00  0.00    +0.000 C 
ATOM      8  C   UNL     1       1.302   2.637  18.410  0.00  0.00    +0.000 C 
ATOM      9  C   UNL     1       1.470   4.038  19.011  0.00  0.00    +0.000 C 
ENDROOT
BRANCH   1  10
ATOM     10  C   UNL     1       6.200   5.331  15.945  0.00  0.00    +0.000 C 
BRANCH  10  14
ATOM     11  C   UNL     1       7.632   5.754  19.173  0.00  0.00    +0.000 C 
ATOM     12  C   UNL     1       8.083   7.061  18.554  0.00  0.00    +0.000 C 
ATOM     13  C   UNL     1       7.302   7.085  17.253  0.00  0.00    +0.000 C 
ATOM     14  N   UNL     1       7.353   5.697  16.778  0.00  0.00    +0.000 NA
ATOM     15  C   UNL     1       7.467   4.827  17.966  0.00  0.00    +0.000 C 
BRANCH  11  16
ATOM     16  O   UNL     1       8.572   5.262  20.112  0.00  0.00    +0.000 OA
ATOM     17  H   UNL     1       8.085   5.051  20.928  0.00  0.00    +0.000 HD
ENDBRANCH  11  16
ENDBRANCH  10  14
ENDBRANCH   1  10
TORSDOF 3
ENDMDL
MODEL 2
REMARK VINA RESULT:      -7.3      0.809      1.888
REMARK  Name = 
REMARK  3 active torsions:
REMARK  status: ('A' for Active; 'I' for Inactive)
REMARK    1  A    between atoms: O_1  and  C_2
REMARK    2  A    between atoms: N_5  and  C_6
REMARK    3  A    between atoms: C_6  and  C_7
REMARK                            x       y       z     vdW  Elec       q    Type
REMARK                         _______ _______ _______ _____ _____    ______ ____
ROOT
ATOM      1  C   UNL     1       4.640   5.161  17.047  0.00  0.00    +0.000 A 
ATOM      2  C   UNL     1       4.144   3.843  16.925  0.00  0.00    +0.000 A 
ATOM      3  C   UNL     1       3.082   3.393  17.716  0.00  0.00    +0.000 A 
ATOM      4  C   UNL     1       2.539   4.265  18.643  0.00  0.00    +0.000 A 
ATOM      5  C   UNL     1       3.029   5.567  18.783  0.00  0.00    +0.000 A 
ATOM      6  C   UNL     1       4.064   6.033  17.983  0.00  0.00    +0.000 A 
ATOM      7  C   UNL     1       2.271   6.305  19.841  0.00  0.00    +0.000 C 
ATOM      8  C   UNL     1       1.611   5.141  20.597  0.00  0.00    +0.000 C 
ATOM      9  C   UNL     1       1.387   4.027  19.566  0.00  0.00    +0.000 C 
ENDROOT
BRANCH   1  10
ATOM     10  C   UNL     1       5.767   5.627  16.145  0.00  0.00    +0.000 C 
BRANCH  10  14
ATOM     11  C   UNL     1       7.597   5.821  19.189  0.00  0.00    +0.000 C 
ATOM     12  C   UNL     1       8.092   7.101  18.547  0.00  0.00    +0.000 C 
ATOM     13  C   UNL     1       7.171   7.234  17.349  0.00  0.00    +0.000 C 
ATOM     14  N   UNL     1       7.038   5.862  16.843  0.00  0.00    +0.000 NA
ATOM     15  C   UNL     1       7.208   4.949  17.992  0.00  0.00    +0.000 C 
BRANCH  11  16
ATOM     16  O   UNL     1       8.590   5.218  20.001  0.00  0.00    +0.000 OA
ATOM     17  H   UNL     1       8.756   5.816  20.750  0.00  0.00    +0.000 HD
ENDBRANCH  11  16
ENDBRANCH  10  14
ENDBRANCH   1  10
TORSDOF 3
ENDMDL
MODEL 3
REMARK VINA RESULT:      -7.2      2.688      5.766
REMARK  Name = 
REMARK  3 active torsions:
REMARK  status: ('A' for Active; 'I' for Inactive)
REMARK    1  A    between atoms: O_1  and  C_2
REMARK    2  A    between atoms: N_5  and  C_6
REMARK    3  A    between atoms: C_6  and  C_7
REMARK                            x       y       z     vdW  Elec       q    Type
REMARK                         _______ _______ _______ _____ _____    ______ ____
ROOT
ATOM      1  C   UNL     1       4.733   4.634  17.796  0.00  0.00    +0.000 A 
ATOM      2  C   UNL     1       4.494   5.579  16.772  0.00  0.00    +0.000 A 
ATOM      3  C   UNL     1       5.396   6.617  16.519  0.00  0.00    +0.000 A 
ATOM      4  C   UNL     1       6.524   6.715  17.314  0.00  0.00    +0.000 A 
ATOM      5  C   UNL     1       6.766   5.795  18.339  0.00  0.00    +0.000 A 
ATOM      6  C   UNL     1       5.892   4.744  18.580  0.00  0.00    +0.000 A 
ATOM      7  C   UNL     1       8.048   6.114  19.041  0.00  0.00    +0.000 C 
ATOM      8  C   UNL     1       8.269   7.571  18.606  0.00  0.00    +0.000 C 
ATOM      9  C   UNL     1       7.638   7.707  17.214  0.00  0.00    +0.000 C 
ENDROOT
BRANCH   1  10
ATOM     10  C   UNL     1       3.753   3.498  18.016  0.00  0.00    +0.000 C 
BRANCH  10  14
ATOM     11  C   UNL     1       1.781   2.421  20.772  0.00  0.00    +0.000 C 
ATOM     12  C   UNL     1       0.679   3.038  19.935  0.00  0.00    +0.000 C 
ATOM     13  C   UNL     1       1.387   3.300  18.619  0.00  0.00    +0.000 C 
ATOM     14  N   UNL     1       2.716   3.783  19.015  0.00  0.00    +0.000 NA
ATOM     15  C   UNL     1       3.035   3.175  20.323  0.00  0.00    +0.000 C 
BRANCH  11  16
ATOM     16  O   UNL     1       1.530   2.559  22.160  0.00  0.00    +0.000 OA
ATOM     17  H   UNL     1       1.196   3.460  22.308  0.00  0.00    +0.000 HD
ENDBRANCH  11  16
ENDBRANCH  10  14
ENDBRANCH   1  10
TORSDOF 3
ENDMDL
MODEL 4
REMARK VINA RESULT:      -7.1      0.998      1.928
REMARK  Name = 
REMARK  3 active torsions:
REMARK  status: ('A' for Active; 'I' for Inactive)
REMARK    1  A    between atoms: O_1  and  C_2
REMARK    2  A    between atoms: N_5  and  C_6
REMARK    3  A    between atoms: C_6  and  C_7
REMARK                            x       y       z     vdW  Elec       q    Type
REMARK                         _______ _______ _______ _____ _____    ______ ____
ROOT
ATOM      1  C   UNL     1       3.926   5.170  17.507  0.00  0.00    +0.000 A 
ATOM      2  C   UNL     1       3.730   3.884  16.955  0.00  0.00    +0.000 A 
ATOM      3  C   UNL     1       2.815   2.986  17.516  0.00  0.00    +0.000 A 
ATOM      4  C   UNL     1       2.117   3.380  18.643  0.00  0.00    +0.000 A 
ATOM      5  C   UNL     1       2.311   4.644  19.207  0.00  0.00    +0.000 A 
ATOM      6  C   UNL     1       3.195   5.553  18.643  0.00  0.00    +0.000 A 
ATOM      7  C   UNL     1       1.437   4.825  20.408  0.00  0.00    +0.000 C 
ATOM      8  C   UNL     1       1.071   3.368  20.729  0.00  0.00    +0.000 C 
ATOM      9  C   UNL     1       1.072   2.617  19.392  0.00  0.00    +0.000 C 
ENDROOT
BRANCH   1  10
ATOM     10  C   UNL     1       4.897   6.132  16.850  0.00  0.00    +0.000 C 
BRANCH  10  14
ATOM     11  C   UNL     1       7.375   6.006  19.399  0.00  0.00    +0.000 C 
ATOM     12  C   UNL     1       8.120   6.871  18.402  0.00  0.00    +0.000 C 
ATOM     13  C   UNL     1       7.040   7.190  17.386  0.00  0.00    +0.000 C 
ATOM     14  N   UNL     1       6.299   5.932  17.241  0.00  0.00    +0.000 NA
ATOM     15  C   UNL     1       6.410   5.204  18.522  0.00  0.00    +0.000 C 
BRANCH  11  16
ATOM     16  O   UNL     1       8.253   5.178  20.141  0.00  0.00    +0.000 OA
ATOM     17  H   UNL     1       8.478   4.415  19.580  0.00  0.00    +0.000 HD
ENDBRANCH  11  16
ENDBRANCH  10  14
ENDBRANCH   1  10
TORSDOF 3
ENDMDL
MODEL 5
REMARK VINA RESULT:      -7.0      1.748      2.432
REMARK  Name = 
REMARK  3 active torsions:
REMARK  status: ('A' for Active; 'I' for Inactive)
REMARK    1  A    between atoms: O_1  and  C_2
REMARK    2  A    between atoms: N_5  and  C_6
REMARK    3  A    between atoms: C_6  and  C_7
REMARK                            x       y       z     vdW  Elec       q    Type
REMARK                         _______ _______ _______ _____ _____    ______ ____
ROOT
ATOM      1  C   UNL     1       3.255   6.033  18.243  0.00  0.00    +0.000 A 
ATOM      2  C   UNL     1       2.757   6.401  19.514  0.00  0.00    +0.000 A 
ATOM      3  C   UNL     1       1.997   5.512  20.280  0.00  0.00    +0.000 A 
ATOM      4  C   UNL     1       1.721   4.263  19.754  0.00  0.00    +0.000 A 
ATOM      5  C   UNL     1       2.196   3.890  18.493  0.00  0.00    +0.000 A 
ATOM      6  C   UNL     1       2.975   4.754  17.736  0.00  0.00    +0.000 A 
ATOM      7  C   UNL     1       1.769   2.495  18.160  0.00  0.00    +0.000 C 
ATOM      8  C   UNL     1       0.623   2.290  19.164  0.00  0.00    +0.000 C 
ATOM      9  C   UNL     1       0.967   3.140  20.393  0.00  0.00    +0.000 C 
ENDROOT
BRANCH   1  10
ATOM     10  C   UNL     1       4.109   7.009  17.457  0.00  0.00    +0.000 C 
BRANCH  10  14
ATOM     11  C   UNL     1       6.723   4.769  16.562  0.00  0.00    +0.000 C 
ATOM     12  C   UNL     1       7.138   5.039  17.994  0.00  0.00    +0.000 C 
ATOM     13  C   UNL     1       5.937   5.788  18.538  0.00  0.00    +0.000 C 
ATOM     14  N   UNL     1       5.540   6.678  17.441  0.00  0.00    +0.000 NA
ATOM     15  C   UNL     1       5.936   6.024  16.177  0.00  0.00    +0.000 C 
BRANCH  11  16
ATOM     16  O   UNL     1       7.842   4.548  15.720  0.00  0.00    +0.000 OA
ATOM     17  H   UNL     1       8.639   4.619  16.272  0.00  0.00    +0.000 HD
ENDBRANCH  11  16
ENDBRANCH  10  14
ENDBRANCH   1  10
TORSDOF 3
ENDMDL
MODEL 6
REMARK VINA RESULT:      -7.0      1.505      2.485
REMARK  Name = 
REMARK  3 active torsions:
REMARK  status: ('A' for Active; 'I' for Inactive)
REMARK    1  A    between atoms: O_1  and  C_2
REMARK    2  A    between atoms: N_5  and  C_6
REMARK    3  A    between atoms: C_6  and  C_7
REMARK                            x       y       z     vdW  Elec       q    Type
REMARK                         _______ _______ _______ _____ _____    ______ ____
ROOT
ATOM      1  C   UNL     1       4.045   4.488  17.508  0.00  0.00    +0.000 A 
ATOM      2  C   UNL     1       3.649   3.255  16.941  0.00  0.00    +0.000 A 
ATOM      3  C   UNL     1       2.570   2.533  17.459  0.00  0.00    +0.000 A 
ATOM      4  C   UNL     1       1.907   3.043  18.560  0.00  0.00    +0.000 A 
ATOM      5  C   UNL     1       2.296   4.255  19.139  0.00  0.00    +0.000 A 
ATOM      6  C   UNL     1       3.347   4.995  18.616  0.00  0.00    +0.000 A 
ATOM      7  C   UNL     1       1.419   4.587  20.305  0.00  0.00    +0.000 C 
ATOM      8  C   UNL     1       0.791   3.217  20.603  0.00  0.00    +0.000 C 
ATOM      9  C   UNL     1       0.715   2.476  19.262  0.00  0.00    +0.000 C 
ENDROOT
BRANCH   1  10
ATOM     10  C   UNL     1       5.195   5.264  16.895  0.00  0.00    +0.000 C 
BRANCH  10  14
ATOM     11  C   UNL     1       7.764   7.639  17.537  0.00  0.00    +0.000 C 
ATOM     12  C   UNL     1       8.060   6.676  18.668  0.00  0.00    +0.000 C 
ATOM     13  C   UNL     1       7.172   5.495  18.324  0.00  0.00    +0.000 C 
ATOM     14  N   UNL     1       5.926   6.109  17.849  0.00  0.00    +0.000 NA
ATOM     15  C   UNL     1       6.274   7.420  17.263  0.00  0.00    +0.000 C 
BRANCH  11  16
ATOM     16  O   UNL     1       8.062   8.978  17.891  0.00  0.00    +0.000 OA
ATOM     17  H   UNL     1       7.949   9.522  17.093  0.00  0.00    +0.000 HD
ENDBRANCH  11  16
ENDBRANCH  10  14
ENDBRANCH   1  10
TORSDOF 3
ENDMDL
MODEL 7
REMARK VINA RESULT:      -7.0      1.165      1.402
REMARK  Name = 
REMARK  3 active torsions:
REMARK  status: ('A' for Active; 'I' for Inactive)
REMARK    1  A    between atoms: O_1  and  C_2
REMARK    2  A    between atoms: N_5  and  C_6
REMARK    3  A    between atoms: C_6  and  C_7
REMARK                            x       y       z     vdW  Elec       q    Type
REMARK                         _______ _______ _______ _____ _____    ______ ____
ROOT
ATOM      1  C   UNL     1       3.917   5.962  17.193  0.00  0.00    +0.000 A 
ATOM      2  C   UNL     1       3.354   6.807  18.177  0.00  0.00    +0.000 A 
ATOM      3  C   UNL     1       2.487   6.305  19.152  0.00  0.00    +0.000 A 
ATOM      4  C   UNL     1       2.171   4.958  19.120  0.00  0.00    +0.000 A 
ATOM      5  C   UNL     1       2.710   4.114  18.145  0.00  0.00    +0.000 A 
ATOM      6  C   UNL     1       3.594   4.596  17.189  0.00  0.00    +0.000 A 
ATOM      7  C   UNL     1       2.221   2.713  18.332  0.00  0.00    +0.000 C 
ATOM      8  C   UNL     1       0.996   2.945  19.231  0.00  0.00    +0.000 C 
ATOM      9  C   UNL     1       1.305   4.193  20.068  0.00  0.00    +0.000 C 
ENDROOT
BRANCH   1  10
ATOM     10  C   UNL     1       4.884   6.533  16.174  0.00  0.00    +0.000 C 
BRANCH  10  14
ATOM     11  C   UNL     1       7.428   4.754  17.911  0.00  0.00    +0.000 C 
ATOM     12  C   UNL     1       7.804   6.158  18.338  0.00  0.00    +0.000 C 
ATOM     13  C   UNL     1       6.618   6.969  17.849  0.00  0.00    +0.000 C 
ATOM     14  N   UNL     1       6.299   6.386  16.540  0.00  0.00    +0.000 NA
ATOM     15  C   UNL     1       6.711   4.968  16.576  0.00  0.00    +0.000 C 
BRANCH  11  16
ATOM     16  O   UNL     1       8.565   3.916  17.791  0.00  0.00    +0.000 OA
ATOM     17  H   UNL     1       8.485   3.220  18.465  0.00  0.00    +0.000 HD
ENDBRANCH  11  16
ENDBRANCH  10  14
ENDBRANCH   1  10
TORSDOF 3
ENDMDL
MODEL 8
REMARK VINA RESULT:      -6.9      2.996      5.441
REMARK  Name = 
REMARK  3 active torsions:
REMARK  status: ('A' for Active; 'I' for Inactive)
REMARK    1  A    between atoms: O_1  and  C_2
REMARK    2  A    between atoms: N_5  and  C_6
REMARK    3  A    between atoms: C_6  and  C_7
REMARK                            x       y       z     vdW  Elec       q    Type
REMARK                         _______ _______ _______ _____ _____    ______ ____
ROOT
ATOM      1  C   UNL     1       3.866   5.748  18.723  0.00  0.00    +0.000 A 
ATOM      2  C   UNL     1       4.959   5.199  19.433  0.00  0.00    +0.000 A 
ATOM      3  C   UNL     1       6.112   4.770  18.769  0.00  0.00    +0.000 A 
ATOM      4  C   UNL     1       6.153   4.874  17.390  0.00  0.00    +0.000 A 
ATOM      5  C   UNL     1       5.075   5.403  16.674  0.00  0.00    +0.000 A 
ATOM      6  C   UNL     1       3.936   5.858  17.325  0.00  0.00    +0.000 A 
ATOM      7  C   UNL     1       5.370   5.414  15.208  0.00  0.00    +0.000 C 
ATOM      8  C   UNL     1       6.537   4.416  15.134  0.00  0.00    +0.000 C 
ATOM      9  C   UNL     1       7.279   4.519  16.472  0.00  0.00    +0.000 C 
ENDROOT
BRANCH   1  10
ATOM     10  C   UNL     1       2.647   6.239  19.479  0.00  0.00    +0.000 C 
BRANCH  10  14
ATOM     11  C   UNL     1       2.125   3.089  21.047  0.00  0.00    +0.000 C 
ATOM     12  C   UNL     1       1.302   2.857  19.796  0.00  0.00    +0.000 C 
ATOM     13  C   UNL     1       1.671   4.056  18.944  0.00  0.00    +0.000 C 
ATOM     14  N   UNL     1       1.728   5.171  19.897  0.00  0.00    +0.000 NA
ATOM     15  C   UNL     1       2.103   4.611  21.211  0.00  0.00    +0.000 C 
BRANCH  11  16
ATOM     16  O   UNL     1       1.585   2.412  22.168  0.00  0.00    +0.000 OA
ATOM     17  H   UNL     1       1.313   3.088  22.813  0.00  0.00    +0.000 HD
ENDBRANCH  11  16
ENDBRANCH  10  14
ENDBRANCH   1  10
TORSDOF 3
ENDMDL
MODEL 9
REMARK VINA RESULT:      -6.9      1.669      2.575
REMARK  Name = 
REMARK  3 active torsions:
REMARK  status: ('A' for Active; 'I' for Inactive)
REMARK    1  A    between atoms: O_1  and  C_2
REMARK    2  A    between atoms: N_5  and  C_6
REMARK    3  A    between atoms: C_6  and  C_7
REMARK                            x       y       z     vdW  Elec       q    Type
REMARK                         _______ _______ _______ _____ _____    ______ ____
ROOT
ATOM      1  C   UNL     1       3.098   5.618  18.337  0.00  0.00    +0.000 A 
ATOM      2  C   UNL     1       2.248   4.810  17.548  0.00  0.00    +0.000 A 
ATOM      3  C   UNL     1       1.460   3.809  18.124  0.00  0.00    +0.000 A 
ATOM      4  C   UNL     1       1.547   3.610  19.490  0.00  0.00    +0.000 A 
ATOM      5  C   UNL     1       2.394   4.393  20.281  0.00  0.00    +0.000 A 
ATOM      6  C   UNL     1       3.159   5.408  19.723  0.00  0.00    +0.000 A 
ATOM      7  C   UNL     1       2.300   3.985  21.717  0.00  0.00    +0.000 C 
ATOM      8  C   UNL     1       1.661   2.594  21.588  0.00  0.00    +0.000 C 
ATOM      9  C   UNL     1       0.785   2.635  20.329  0.00  0.00    +0.000 C 
ENDROOT
BRANCH   1  10
ATOM     10  C   UNL     1       3.909   6.721  17.683  0.00  0.00    +0.000 C 
BRANCH  10  14
ATOM     11  C   UNL     1       7.097   5.203  18.109  0.00  0.00    +0.000 C 
ATOM     12  C   UNL     1       7.526   6.400  17.285  0.00  0.00    +0.000 C 
ATOM     13  C   UNL     1       6.266   7.245  17.269  0.00  0.00    +0.000 C 
ATOM     14  N   UNL     1       5.181   6.269  17.105  0.00  0.00    +0.000 NA
ATOM     15  C   UNL     1       5.635   4.999  17.706  0.00  0.00    +0.000 C 
BRANCH  11  16
ATOM     16  O   UNL     1       7.899   4.065  17.845  0.00  0.00    +0.000 OA
ATOM     17  H   UNL     1       7.638   3.721  16.973  0.00  0.00    +0.000 HD
ENDBRANCH  11  16
ENDBRANCH  10  14
ENDBRANCH   1  10
TORSDOF 3
ENDMDL
