MODEL 1
REMARK VINA RESULT:      -6.4      0.000      0.000
REMARK  Name = 
REMARK  5 active torsions:
REMARK  status: ('A' for Active; 'I' for Inactive)
REMARK    1  A    between atoms: C_1  and  O_2
REMARK    2  A    between atoms: O_2  and  C_3
REMARK    3  A    between atoms: C_3  and  C_4
REMARK    4  A    between atoms: C_6  and  C_7
REMARK    5  A    between atoms: C_13  and  N_14
REMARK                            x       y       z     vdW  Elec       q    Type
REMARK                         _______ _______ _______ _____ _____    ______ ____
ROOT
ATOM      1  C   UNL     1       4.728   3.653  19.140  0.00  0.00    +0.000 C 
ATOM      2  O   UNL     1       5.067   2.638  19.751  0.00  0.00    +0.000 OA
ATOM      3  N   UNL     1       3.703   4.485  19.615  0.00  0.00    +0.000 N 
ATOM      4  C   UNL     1       3.087   4.137  20.895  0.00  0.00    +0.000 C 
ATOM      5  C   UNL     1       1.603   4.492  20.902  0.00  0.00    +0.000 C 
ATOM      6  C   UNL     1       1.368   5.955  20.531  0.00  0.00    +0.000 C 
ATOM      7  C   UNL     1       2.069   6.314  19.212  0.00  0.00    +0.000 C 
ATOM      8  C   UNL     1       3.543   5.894  19.233  0.00  0.00    +0.000 C 
ENDROOT
BRANCH   1  11
ATOM      9  C   UNL     1       5.718   4.276  15.699  0.00  0.00    +0.000 A 
ATOM     10  N   UNL     1       4.885   3.833  16.621  0.00  0.00    +0.000 NA
ATOM     11  C   UNL     1       5.423   4.024  17.895  0.00  0.00    +0.000 A 
ATOM     12  C   UNL     1       6.698   4.562  17.892  0.00  0.00    +0.000 A 
ATOM     13  S   UNL     1       7.202   4.908  16.294  0.00  0.00    +0.000 S 
BRANCH   9  14
ATOM     14  C   UNL     1       5.423   4.305  14.230  0.00  0.00    +0.000 C 
BRANCH  14  16
ATOM     15  C   UNL     1       6.409   3.458  12.269  0.00  0.00    +0.000 C 
ATOM     16  O   UNL     1       6.645   4.063  13.532  0.00  0.00    +0.000 OA
ENDBRANCH  14  16
ENDBRANCH   9  14
ENDBRANCH   1  11
BRANCH   7  17
ATOM     17  N   UNL     1       1.948   7.733  18.901  0.00  0.00    +0.000 N 
ATOM     18  C   UNL     1       2.363   8.364  17.761  0.00  0.00    +0.000 A 
ATOM     19  C   UNL     1       2.085   9.701  17.942  0.00  0.00    +0.000 A 
ATOM     20  C   UNL     1       1.506   9.773  19.220  0.00  0.00    +0.000 A 
ATOM     21  N   UNL     1       1.422   8.580  19.810  0.00  0.00    +0.000 NA
ENDBRANCH   7  17
TORSDOF 4
ENDMDL
MODEL 2
REMARK VINA RESULT:      -6.3      3.151      6.215
REMARK  Name = 
REMARK  5 active torsions:
REMARK  status: ('A' for Active; 'I' for Inactive)
REMARK    1  A    between atoms: C_1  and  O_2
REMARK    2  A    between atoms: O_2  and  C_3
REMARK    3  A    between atoms: C_3  and  C_4
REMARK    4  A    between atoms: C_6  and  C_7
REMARK    5  A    between atoms: C_13  and  N_14
REMARK                            x       y       z     vdW  Elec       q    Type
REMARK                         _______ _______ _______ _____ _____    ______ ____
ROOT
ATOM      1  C   UNL     1       3.148   3.900  17.371  0.00  0.00    +0.000 C 
ATOM      2  O   UNL     1       2.395   3.176  16.718  0.00  0.00    +0.000 OA
ATOM      3  N   UNL     1       4.380   4.330  16.853  0.00  0.00    +0.000 N 
ATOM      4  C   UNL     1       4.714   3.935  15.486  0.00  0.00    +0.000 C 
ATOM      5  C   UNL     1       6.214   3.695  15.338  0.00  0.00    +0.000 C 
ATOM      6  C   UNL     1       7.029   4.900  15.803  0.00  0.00    +0.000 C 
ATOM      7  C   UNL     1       6.625   5.333  17.221  0.00  0.00    +0.000 C 
ATOM      8  C   UNL     1       5.106   5.512  17.334  0.00  0.00    +0.000 C 
ENDROOT
BRANCH   1  11
ATOM      9  C   UNL     1       2.043   5.768  20.286  0.00  0.00    +0.000 A 
ATOM     10  N   UNL     1       2.368   5.660  19.013  0.00  0.00    +0.000 NA
ATOM     11  C   UNL     1       2.748   4.350  18.715  0.00  0.00    +0.000 A 
ATOM     12  C   UNL     1       2.754   3.504  19.811  0.00  0.00    +0.000 A 
ATOM     13  S   UNL     1       2.207   4.326  21.209  0.00  0.00    +0.000 S 
BRANCH   9  14
ATOM     14  C   UNL     1       1.508   7.013  20.925  0.00  0.00    +0.000 C 
BRANCH  14  16
ATOM     15  C   UNL     1       0.919   9.219  20.362  0.00  0.00    +0.000 C 
ATOM     16  O   UNL     1       1.719   8.097  20.020  0.00  0.00    +0.000 OA
ENDBRANCH  14  16
ENDBRANCH   9  14
ENDBRANCH   1  11
BRANCH   7  17
ATOM     17  N   UNL     1       7.313   6.548  17.637  0.00  0.00    +0.000 N 
ATOM     18  C   UNL     1       8.106   6.709  18.738  0.00  0.00    +0.000 A 
ATOM     19  C   UNL     1       8.491   8.032  18.741  0.00  0.00    +0.000 A 
ATOM     20  C   UNL     1       7.878   8.582  17.603  0.00  0.00    +0.000 A 
ATOM     21  N   UNL     1       7.158   7.686  16.928  0.00  0.00    +0.000 NA
ENDBRANCH   7  17
TORSDOF 4
ENDMDL
MODEL 3
REMARK VINA RESULT:      -6.2      2.203      3.105
REMARK  Name = 
REMARK  5 active torsions:
REMARK  status: ('A' for Active; 'I' for Inactive)
REMARK    1  A    between atoms: C_1  and  O_2
REMARK    2  A    between atoms: O_2  and  C_3
REMARK    3  A    between atoms: C_3  and  C_4
REMARK    4  A    between atoms: C_6  and  C_7
REMARK    5  A    between atoms: C_13  and  N_14
REMARK                            x       y       z     vdW  Elec       q    Type
REMARK                         _______ _______ _______ _____ _____    ______ ____
ROOT
ATOM      1  C   UNL     1       4.821   3.601  19.294  0.00  0.00    +0.000 C 
ATOM      2  O   UNL     1       5.152   2.436  19.523  0.00  0.00    +0.000 OA
ATOM      3  N   UNL     1       3.611   4.125  19.773  0.00  0.00    +0.000 N 
ATOM      4  C   UNL     1       2.778   3.256  20.603  0.00  0.00    +0.000 C 
ATOM      5  C   UNL     1       1.295   3.526  20.360  0.00  0.00    +0.000 C 
ATOM      6  C   UNL     1       0.950   5.002  20.549  0.00  0.00    +0.000 C 
ATOM      7  C   UNL     1       1.872   5.901  19.710  0.00  0.00    +0.000 C 
ATOM      8  C   UNL     1       3.348   5.559  19.949  0.00  0.00    +0.000 C 
ENDROOT
BRANCH   1  11
ATOM      9  C   UNL     1       7.199   6.110  18.173  0.00  0.00    +0.000 A 
ATOM     10  N   UNL     1       6.474   5.507  19.094  0.00  0.00    +0.000 NA
ATOM     11  C   UNL     1       5.720   4.479  18.525  0.00  0.00    +0.000 A 
ATOM     12  C   UNL     1       5.858   4.375  17.151  0.00  0.00    +0.000 A 
ATOM     13  S   UNL     1       6.996   5.514  16.572  0.00  0.00    +0.000 S 
BRANCH   9  14
ATOM     14  C   UNL     1       8.188   7.202  18.449  0.00  0.00    +0.000 C 
BRANCH  14  16
ATOM     15  C   UNL     1       8.465   9.520  18.156  0.00  0.00    +0.000 C 
ATOM     16  O   UNL     1       7.786   8.355  17.709  0.00  0.00    +0.000 OA
ENDBRANCH  14  16
ENDBRANCH   9  14
ENDBRANCH   1  11
BRANCH   7  17
ATOM     17  N   UNL     1       1.630   7.316  19.963  0.00  0.00    +0.000 N 
ATOM     18  C   UNL     1       1.175   7.879  21.122  0.00  0.00    +0.000 A 
ATOM     19  C   UNL     1       1.057   9.228  20.872  0.00  0.00    +0.000 A 
ATOM     20  C   UNL     1       1.463   9.377  19.535  0.00  0.00    +0.000 A 
ATOM     21  N   UNL     1       1.811   8.218  18.975  0.00  0.00    +0.000 NA
ENDBRANCH   7  17
TORSDOF 4
ENDMDL
MODEL 4
REMARK VINA RESULT:      -6.0      1.132      1.422
REMARK  Name = 
REMARK  5 active torsions:
REMARK  status: ('A' for Active; 'I' for Inactive)
REMARK    1  A    between atoms: C_1  and  O_2
REMARK    2  A    between atoms: O_2  and  C_3
REMARK    3  A    between atoms: C_3  and  C_4
REMARK    4  A    between atoms: C_6  and  C_7
REMARK    5  A    between atoms: C_13  and  N_14
REMARK                            x       y       z     vdW  Elec       q    Type
REMARK                         _______ _______ _______ _____ _____    ______ ____
ROOT
ATOM      1  C   UNL     1       4.825   3.588  19.353  0.00  0.00    +0.000 C 
ATOM      2  O   UNL     1       5.150   2.442  19.670  0.00  0.00    +0.000 OA
ATOM      3  N   UNL     1       3.631   4.164  19.813  0.00  0.00    +0.000 N 
ATOM      4  C   UNL     1       2.810   3.376  20.731  0.00  0.00    +0.000 C 
ATOM      5  C   UNL     1       1.325   3.643  20.501  0.00  0.00    +0.000 C 
ATOM      6  C   UNL     1       0.999   5.133  20.573  0.00  0.00    +0.000 C 
ATOM      7  C   UNL     1       1.909   5.949  19.642  0.00  0.00    +0.000 C 
ATOM      8  C   UNL     1       3.387   5.610  19.875  0.00  0.00    +0.000 C 
ENDROOT
BRANCH   1  11
ATOM      9  C   UNL     1       6.670   5.083  16.602  0.00  0.00    +0.000 A 
ATOM     10  N   UNL     1       5.816   4.217  17.111  0.00  0.00    +0.000 NA
ATOM     11  C   UNL     1       5.714   4.388  18.493  0.00  0.00    +0.000 A 
ATOM     12  C   UNL     1       6.558   5.360  19.003  0.00  0.00    +0.000 A 
ATOM     13  S   UNL     1       7.429   6.123  17.743  0.00  0.00    +0.000 S 
BRANCH   9  14
ATOM     14  C   UNL     1       6.957   5.236  15.139  0.00  0.00    +0.000 C 
BRANCH  14  16
ATOM     15  C   UNL     1       6.169   3.766  13.479  0.00  0.00    +0.000 C 
ATOM     16  O   UNL     1       5.815   4.772  14.417  0.00  0.00    +0.000 OA
ENDBRANCH  14  16
ENDBRANCH   9  14
ENDBRANCH   1  11
BRANCH   7  17
ATOM     17  N   UNL     1       1.687   7.382  19.782  0.00  0.00    +0.000 N 
ATOM     18  C   UNL     1       1.273   8.045  20.903  0.00  0.00    +0.000 A 
ATOM     19  C   UNL     1       1.158   9.370  20.543  0.00  0.00    +0.000 A 
ATOM     20  C   UNL     1       1.524   9.401  19.187  0.00  0.00    +0.000 A 
ATOM     21  N   UNL     1       1.845   8.196  18.716  0.00  0.00    +0.000 NA
ENDBRANCH   7  17
TORSDOF 4
ENDMDL
MODEL 5
REMARK VINA RESULT:      -6.0      3.764      5.490
REMARK  Name = 
REMARK  5 active torsions:
REMARK  status: ('A' for Active; 'I' for Inactive)
REMARK    1  A    between atoms: C_1  and  O_2
REMARK    2  A    between atoms: O_2  and  C_3
REMARK    3  A    between atoms: C_3  and  C_4
REMARK    4  A    between atoms: C_6  and  C_7
REMARK    5  A    between atoms: C_13  and  N_14
REMARK                            x       y       z     vdW  Elec       q    Type
REMARK                         _______ _______ _______ _____ _____    ______ ____
ROOT
ATOM      1  C   UNL     1       6.914   4.741  14.058  0.00  0.00    +0.000 C 
ATOM      2  O   UNL     1       7.864   5.449  13.722  0.00  0.00    +0.000 OA
ATOM      3  N   UNL     1       6.426   4.748  15.374  0.00  0.00    +0.000 N 
ATOM      4  C   UNL     1       7.048   5.671  16.322  0.00  0.00    +0.000 C 
ATOM      5  C   UNL     1       7.088   5.069  17.724  0.00  0.00    +0.000 C 
ATOM      6  C   UNL     1       5.704   4.618  18.187  0.00  0.00    +0.000 C 
ATOM      7  C   UNL     1       5.045   3.693  17.152  0.00  0.00    +0.000 C 
ATOM      8  C   UNL     1       5.073   4.317  15.751  0.00  0.00    +0.000 C 
ENDROOT
BRANCH   1  11
ATOM      9  C   UNL     1       4.647   3.204  11.669  0.00  0.00    +0.000 A 
ATOM     10  N   UNL     1       4.972   4.121  12.560  0.00  0.00    +0.000 NA
ATOM     11  C   UNL     1       6.253   3.882  13.061  0.00  0.00    +0.000 A 
ATOM     12  C   UNL     1       6.845   2.733  12.564  0.00  0.00    +0.000 A 
ATOM     13  S   UNL     1       5.832   1.986  11.405  0.00  0.00    +0.000 S 
BRANCH   9  14
ATOM     14  C   UNL     1       3.379   3.204  10.871  0.00  0.00    +0.000 C 
BRANCH  14  16
ATOM     15  C   UNL     1       2.674   4.412   8.980  0.00  0.00    +0.000 C 
ATOM     16  O   UNL     1       3.230   4.497  10.283  0.00  0.00    +0.000 OA
ENDBRANCH  14  16
ENDBRANCH   9  14
ENDBRANCH   1  11
BRANCH   7  17
ATOM     17  N   UNL     1       3.680   3.343  17.525  0.00  0.00    +0.000 N 
ATOM     18  C   UNL     1       2.605   4.184  17.596  0.00  0.00    +0.000 A 
ATOM     19  C   UNL     1       1.549   3.418  18.038  0.00  0.00    +0.000 A 
ATOM     20  C   UNL     1       2.090   2.132  18.205  0.00  0.00    +0.000 A 
ATOM     21  N   UNL     1       3.386   2.079  17.897  0.00  0.00    +0.000 NA
ENDBRANCH   7  17
TORSDOF 4
ENDMDL
MODEL 6
REMARK VINA RESULT:      -5.6      3.595      5.296
REMARK  Name = 
REMARK  5 active torsions:
REMARK  status: ('A' for Active; 'I' for Inactive)
REMARK    1  A    between atoms: C_1  and  O_2
REMARK    2  A    between atoms: O_2  and  C_3
REMARK    3  A    between atoms: C_3  and  C_4
REMARK    4  A    between atoms: C_6  and  C_7
REMARK    5  A    between atoms: C_13  and  N_14
REMARK                            x       y       z     vdW  Elec       q    Type
REMARK                         _______ _______ _______ _____ _____    ______ ____
ROOT
ATOM      1  C   UNL     1       7.083   4.942  14.432  0.00  0.00    +0.000 C 
ATOM      2  O   UNL     1       8.056   5.649  14.163  0.00  0.00    +0.000 OA
ATOM      3  N   UNL     1       6.503   4.951  15.709  0.00  0.00    +0.000 N 
ATOM      4  C   UNL     1       7.057   5.873  16.699  0.00  0.00    +0.000 C 
ATOM      5  C   UNL     1       6.997   5.272  18.101  0.00  0.00    +0.000 C 
ATOM      6  C   UNL     1       5.583   4.823  18.464  0.00  0.00    +0.000 C 
ATOM      7  C   UNL     1       4.998   3.898  17.385  0.00  0.00    +0.000 C 
ATOM      8  C   UNL     1       5.126   4.522  15.990  0.00  0.00    +0.000 C 
ENDROOT
BRANCH   1  11
ATOM      9  C   UNL     1       6.440   2.539  11.783  0.00  0.00    +0.000 A 
ATOM     10  N   UNL     1       7.231   3.185  12.617  0.00  0.00    +0.000 NA
ATOM     11  C   UNL     1       6.493   4.084  13.390  0.00  0.00    +0.000 A 
ATOM     12  C   UNL     1       5.148   4.131  13.067  0.00  0.00    +0.000 A 
ATOM     13  S   UNL     1       4.782   2.991  11.845  0.00  0.00    +0.000 S 
BRANCH   9  14
ATOM     14  C   UNL     1       6.887   1.441  10.866  0.00  0.00    +0.000 C 
BRANCH  14  16
ATOM     15  C   UNL     1       6.098  -0.713  11.388  0.00  0.00    +0.000 C 
ATOM     16  O   UNL     1       5.809   0.514  10.734  0.00  0.00    +0.000 OA
ENDBRANCH  14  16
ENDBRANCH   9  14
ENDBRANCH   1  11
BRANCH   7  17
ATOM     17  N   UNL     1       3.610   3.550  17.662  0.00  0.00    +0.000 N 
ATOM     18  C   UNL     1       2.553   4.410  17.777  0.00  0.00    +0.000 A 
ATOM     19  C   UNL     1       1.461   3.632  18.088  0.00  0.00    +0.000 A 
ATOM     20  C   UNL     1       1.962   2.320  18.140  0.00  0.00    +0.000 A 
ATOM     21  N   UNL     1       3.269   2.263  17.883  0.00  0.00    +0.000 NA
ENDBRANCH   7  17
TORSDOF 4
ENDMDL
MODEL 7
REMARK VINA RESULT:      -5.6      3.968      7.654
REMARK  Name = 
REMARK  5 active torsions:
REMARK  status: ('A' for Active; 'I' for Inactive)
REMARK    1  A    between atoms: C_1  and  O_2
REMARK    2  A    between atoms: O_2  and  C_3
REMARK    3  A    between atoms: C_3  and  C_4
REMARK    4  A    between atoms: C_6  and  C_7
REMARK    5  A    between atoms: C_13  and  N_14
REMARK                            x       y       z     vdW  Elec       q    Type
REMARK                         _______ _______ _______ _____ _____    ______ ____
ROOT
ATOM      1  C   UNL     1       2.529   8.740  18.125  0.00  0.00    +0.000 C 
ATOM      2  O   UNL     1       3.126   9.582  17.452  0.00  0.00    +0.000 OA
ATOM      3  N   UNL     1       2.950   7.403  18.166  0.00  0.00    +0.000 N 
ATOM      4  C   UNL     1       4.161   7.052  17.425  0.00  0.00    +0.000 C 
ATOM      5  C   UNL     1       4.060   5.641  16.850  0.00  0.00    +0.000 C 
ATOM      6  C   UNL     1       3.728   4.612  17.928  0.00  0.00    +0.000 C 
ATOM      7  C   UNL     1       2.485   5.027  18.730  0.00  0.00    +0.000 C 
ATOM      8  C   UNL     1       2.611   6.466  19.245  0.00  0.00    +0.000 C 
ENDROOT
BRANCH   1  11
ATOM      9  C   UNL     1       0.087   9.353  20.746  0.00  0.00    +0.000 A 
ATOM     10  N   UNL     1       1.220   8.857  20.287  0.00  0.00    +0.000 NA
ATOM     11  C   UNL     1       1.360   9.141  18.928  0.00  0.00    +0.000 A 
ATOM     12  C   UNL     1       0.278   9.806  18.378  0.00  0.00    +0.000 A 
ATOM     13  S   UNL     1      -0.891  10.152  19.579  0.00  0.00    +0.000 S 
BRANCH   9  14
ATOM     14  C   UNL     1      -0.342   9.306  22.182  0.00  0.00    +0.000 C 
BRANCH  14  16
ATOM     15  C   UNL     1      -1.111  11.349  23.058  0.00  0.00    +0.000 C 
ATOM     16  O   UNL     1       0.028  10.544  22.791  0.00  0.00    +0.000 OA
ENDBRANCH  14  16
ENDBRANCH   9  14
ENDBRANCH   1  11
BRANCH   7  17
ATOM     17  N   UNL     1       2.220   4.113  19.835  0.00  0.00    +0.000 N 
ATOM     18  C   UNL     1       1.031   3.928  20.483  0.00  0.00    +0.000 A 
ATOM     19  C   UNL     1       1.278   3.009  21.479  0.00  0.00    +0.000 A 
ATOM     20  C   UNL     1       2.643   2.703  21.348  0.00  0.00    +0.000 A 
ATOM     21  N   UNL     1       3.223   3.372  20.352  0.00  0.00    +0.000 NA
ENDBRANCH   7  17
TORSDOF 4
ENDMDL
MODEL 8
REMARK VINA RESULT:      -5.6      2.111      3.985
REMARK  Name = 
REMARK  5 active torsions:
REMARK  status: ('A' for Active; 'I' for Inactive)
REMARK    1  A    between atoms: C_1  and  O_2
REMARK    2  A    between atoms: O_2  and  C_3
REMARK    3  A    between atoms: C_3  and  C_4
REMARK    4  A    between atoms: C_6  and  C_7
REMARK    5  A    between atoms: C_13  and  N_14
REMARK                            x       y       z     vdW  Elec       q    Type
REMARK                         _______ _______ _______ _____ _____    ______ ____
ROOT
ATOM      1  C   UNL     1       4.124   7.200  17.235  0.00  0.00    +0.000 C 
ATOM      2  O   UNL     1       4.082   8.284  16.650  0.00  0.00    +0.000 OA
ATOM      3  N   UNL     1       3.217   6.885  18.258  0.00  0.00    +0.000 N 
ATOM      4  C   UNL     1       2.180   7.868  18.570  0.00  0.00    +0.000 C 
ATOM      5  C   UNL     1       1.856   7.867  20.061  0.00  0.00    +0.000 C 
ATOM      6  C   UNL     1       1.492   6.470  20.561  0.00  0.00    +0.000 C 
ATOM      7  C   UNL     1       2.569   5.443  20.176  0.00  0.00    +0.000 C 
ATOM      8  C   UNL     1       2.896   5.516  18.680  0.00  0.00    +0.000 C 
ENDROOT
BRANCH   1  11
ATOM      9  C   UNL     1       6.180   4.747  15.513  0.00  0.00    +0.000 A 
ATOM     10  N   UNL     1       5.165   5.585  15.588  0.00  0.00    +0.000 NA
ATOM     11  C   UNL     1       5.128   6.196  16.843  0.00  0.00    +0.000 A 
ATOM     12  C   UNL     1       6.105   5.746  17.715  0.00  0.00    +0.000 A 
ATOM     13  S   UNL     1       7.126   4.611  16.943  0.00  0.00    +0.000 S 
BRANCH   9  14
ATOM     14  C   UNL     1       6.566   3.986  14.282  0.00  0.00    +0.000 C 
BRANCH  14  16
ATOM     15  C   UNL     1       5.715   3.233  12.222  0.00  0.00    +0.000 C 
ATOM     16  O   UNL     1       5.436   3.961  13.409  0.00  0.00    +0.000 OA
ENDBRANCH  14  16
ENDBRANCH   9  14
ENDBRANCH   1  11
BRANCH   7  17
ATOM     17  N   UNL     1       2.184   4.087  20.548  0.00  0.00    +0.000 N 
ATOM     18  C   UNL     1       2.149   3.557  21.807  0.00  0.00    +0.000 A 
ATOM     19  C   UNL     1       1.776   2.240  21.657  0.00  0.00    +0.000 A 
ATOM     20  C   UNL     1       1.611   2.074  20.272  0.00  0.00    +0.000 A 
ATOM     21  N   UNL     1       1.859   3.192  19.590  0.00  0.00    +0.000 NA
ENDBRANCH   7  17
TORSDOF 4
ENDMDL
MODEL 9
REMARK VINA RESULT:      -5.5      7.214     10.466
REMARK  Name = 
REMARK  5 active torsions:
REMARK  status: ('A' for Active; 'I' for Inactive)
REMARK    1  A    between atoms: C_1  and  O_2
REMARK    2  A    between atoms: O_2  and  C_3
REMARK    3  A    between atoms: C_3  and  C_4
REMARK    4  A    between atoms: C_6  and  C_7
REMARK    5  A    between atoms: C_13  and  N_14
REMARK                            x       y       z     vdW  Elec       q    Type
REMARK                         _______ _______ _______ _____ _____    ______ ____
ROOT
ATOM      1  C   UNL     1       0.050  10.833  21.845  0.00  0.00    +0.000 C 
ATOM      2  O   UNL     1       0.896  10.305  22.570  0.00  0.00    +0.000 OA
ATOM      3  N   UNL     1      -0.121  10.433  20.511  0.00  0.00    +0.000 N 
ATOM      4  C   UNL     1       0.701   9.326  20.025  0.00  0.00    +0.000 C 
ATOM      5  C   UNL     1       1.065   9.520  18.555  0.00  0.00    +0.000 C 
ATOM      6  C   UNL     1      -0.174   9.738  17.689  0.00  0.00    +0.000 C 
ATOM      7  C   UNL     1      -1.052  10.870  18.247  0.00  0.00    +0.000 C 
ATOM      8  C   UNL     1      -1.349  10.658  19.737  0.00  0.00    +0.000 C 
ENDROOT
BRANCH   1  11
ATOM      9  C   UNL     1      -2.577  12.769  23.444  0.00  0.00    +0.000 A 
ATOM     10  N   UNL     1      -2.022  11.639  23.053  0.00  0.00    +0.000 NA
ATOM     11  C   UNL     1      -0.821  11.890  22.387  0.00  0.00    +0.000 A 
ATOM     12  C   UNL     1      -0.530  13.236  22.241  0.00  0.00    +0.000 A 
ATOM     13  S   UNL     1      -1.721  14.196  23.008  0.00  0.00    +0.000 S 
BRANCH   9  14
ATOM     14  C   UNL     1      -3.830  12.865  24.261  0.00  0.00    +0.000 C 
BRANCH  14  16
ATOM     15  C   UNL     1      -5.721  13.014  22.871  0.00  0.00    +0.000 C 
ATOM     16  O   UNL     1      -4.854  12.141  23.579  0.00  0.00    +0.000 OA
ENDBRANCH  14  16
ENDBRANCH   9  14
ENDBRANCH   1  11
BRANCH   7  17
ATOM     17  N   UNL     1      -2.293  11.017  17.497  0.00  0.00    +0.000 N 
ATOM     18  C   UNL     1      -2.499  10.713  16.180  0.00  0.00    +0.000 A 
ATOM     19  C   UNL     1      -3.802  11.064  15.907  0.00  0.00    +0.000 A 
ATOM     20  C   UNL     1      -4.295  11.569  17.121  0.00  0.00    +0.000 A 
ATOM     21  N   UNL     1      -3.382  11.546  18.092  0.00  0.00    +0.000 NA
ENDBRANCH   7  17
TORSDOF 4
ENDMDL
