MODEL 1
REMARK VINA RESULT:      -7.1      0.000      0.000
REMARK  Name = 
REMARK  8 active torsions:
REMARK  status: ('A' for Active; 'I' for Inactive)
REMARK    1  A    between atoms: C_1  and  C_2
REMARK    2  A    between atoms: C_2  and  C_3
REMARK    3  A    between atoms: C_3  and  N_4
REMARK    4  A    between atoms: C_6  and  N_7
REMARK    5  A    between atoms: C_11  and  C_12
REMARK    6  A    between atoms: C_12  and  C_13
REMARK    7  A    between atoms: C_12  and  C_14
REMARK    8  A    between atoms: C_12  and  C_15
REMARK                            x       y       z     vdW  Elec       q    Type
REMARK                         _______ _______ _______ _____ _____    ______ ____
ROOT
ATOM      1  N   UNL     1       5.517   3.924  16.979  0.00  0.00    +0.000 N 
ATOM      2  C   UNL     1       4.345   4.118  17.608  0.00  0.00    +0.000 A 
ATOM      3  N   UNL     1       3.270   4.758  17.205  0.00  0.00    +0.000 NA
ATOM      4  N   UNL     1       2.331   4.622  18.197  0.00  0.00    +0.000 NA
ATOM      5  C   UNL     1       2.897   3.900  19.144  0.00  0.00    +0.000 A 
ATOM      6  O   UNL     1       4.192   3.554  18.842  0.00  0.00    +0.000 OA
ATOM      7  H   UNL     1       6.310   3.572  17.499  0.00  0.00    +0.000 HD
ENDROOT
BRANCH   1  10
ATOM      8  N   UNL     1       6.502   4.200  13.526  0.00  0.00    +0.000 N 
ATOM      9  C   UNL     1       5.641   3.616  14.521  0.00  0.00    +0.000 C 
ATOM     10  C   UNL     1       5.732   4.587  15.702  0.00  0.00    +0.000 C 
ATOM     11  C   UNL     1       7.138   5.167  15.569  0.00  0.00    +0.000 C 
ATOM     12  C   UNL     1       7.423   5.067  14.089  0.00  0.00    +0.000 C 
ATOM     13  O   UNL     1       8.345   5.625  13.517  0.00  0.00    +0.000 OA
BRANCH   8  14
ATOM     14  C   UNL     1       6.571   3.696  12.164  0.00  0.00    +0.000 C 
BRANCH  14  16
ATOM     15  C   UNL     1       4.256   3.213  11.250  0.00  0.00    +0.000 C 
ATOM     16  C   UNL     1       5.518   2.628  11.866  0.00  0.00    +0.000 C 
ENDBRANCH  14  16
ENDBRANCH   8  14
ENDBRANCH   1  10
BRANCH   5  17
ATOM     17  C   UNL     1       2.302   3.418  20.433  0.00  0.00    +0.000 C 
ATOM     18  C   UNL     1       2.130   4.609  21.396  0.00  0.00    +0.000 C 
ATOM     19  C   UNL     1       0.923   2.790  20.177  0.00  0.00    +0.000 C 
ATOM     20  C   UNL     1       3.225   2.383  21.091  0.00  0.00    +0.000 C 
ENDBRANCH   5  17
TORSDOF 4
ENDMDL
MODEL 2
REMARK VINA RESULT:      -6.4      3.948      4.644
REMARK  Name = 
REMARK  8 active torsions:
REMARK  status: ('A' for Active; 'I' for Inactive)
REMARK    1  A    between atoms: C_1  and  C_2
REMARK    2  A    between atoms: C_2  and  C_3
REMARK    3  A    between atoms: C_3  and  N_4
REMARK    4  A    between atoms: C_6  and  N_7
REMARK    5  A    between atoms: C_11  and  C_12
REMARK    6  A    between atoms: C_12  and  C_13
REMARK    7  A    between atoms: C_12  and  C_14
REMARK    8  A    between atoms: C_12  and  C_15
REMARK                            x       y       z     vdW  Elec       q    Type
REMARK                         _______ _______ _______ _____ _____    ______ ____
ROOT
ATOM      1  N   UNL     1       3.363   6.774  18.327  0.00  0.00    +0.000 N 
ATOM      2  C   UNL     1       2.607   7.885  18.373  0.00  0.00    +0.000 A 
ATOM      3  N   UNL     1       2.405   8.803  17.455  0.00  0.00    +0.000 NA
ATOM      4  N   UNL     1       1.509   9.700  17.981  0.00  0.00    +0.000 NA
ATOM      5  C   UNL     1       1.220   9.266  19.192  0.00  0.00    +0.000 A 
ATOM      6  O   UNL     1       1.897   8.116  19.517  0.00  0.00    +0.000 OA
ATOM      7  H   UNL     1       3.563   6.271  19.182  0.00  0.00    +0.000 HD
ENDROOT
BRANCH   1  10
ATOM      8  N   UNL     1       5.602   4.971  16.157  0.00  0.00    +0.000 N 
ATOM      9  C   UNL     1       4.317   5.068  16.800  0.00  0.00    +0.000 C 
ATOM     10  C   UNL     1       4.194   6.554  17.153  0.00  0.00    +0.000 C 
ATOM     11  C   UNL     1       5.643   6.983  17.369  0.00  0.00    +0.000 C 
ATOM     12  C   UNL     1       6.427   6.030  16.496  0.00  0.00    +0.000 C 
ATOM     13  O   UNL     1       7.601   6.166  16.195  0.00  0.00    +0.000 OA
BRANCH   8  14
ATOM     14  C   UNL     1       6.050   3.759  15.493  0.00  0.00    +0.000 C 
BRANCH  14  16
ATOM     15  C   UNL     1       5.312   3.677  13.068  0.00  0.00    +0.000 C 
ATOM     16  C   UNL     1       6.446   3.987  14.034  0.00  0.00    +0.000 C 
ENDBRANCH  14  16
ENDBRANCH   8  14
ENDBRANCH   1  10
BRANCH   5  17
ATOM     17  C   UNL     1       0.260   9.845  20.188  0.00  0.00    +0.000 C 
ATOM     18  C   UNL     1       0.900  11.076  20.860  0.00  0.00    +0.000 C 
ATOM     19  C   UNL     1      -1.032  10.286  19.482  0.00  0.00    +0.000 C 
ATOM     20  C   UNL     1      -0.072   8.810  21.271  0.00  0.00    +0.000 C 
ENDBRANCH   5  17
TORSDOF 4
ENDMDL
MODEL 3
REMARK VINA RESULT:      -6.4      3.977      4.832
REMARK  Name = 
REMARK  8 active torsions:
REMARK  status: ('A' for Active; 'I' for Inactive)
REMARK    1  A    between atoms: C_1  and  C_2
REMARK    2  A    between atoms: C_2  and  C_3
REMARK    3  A    between atoms: C_3  and  N_4
REMARK    4  A    between atoms: C_6  and  N_7
REMARK    5  A    between atoms: C_11  and  C_12
REMARK    6  A    between atoms: C_12  and  C_13
REMARK    7  A    between atoms: C_12  and  C_14
REMARK    8  A    between atoms: C_12  and  C_15
REMARK                            x       y       z     vdW  Elec       q    Type
REMARK                         _______ _______ _______ _____ _____    ______ ____
ROOT
ATOM      1  N   UNL     1       3.332   6.812  18.344  0.00  0.00    +0.000 N 
ATOM      2  C   UNL     1       2.583   7.927  18.383  0.00  0.00    +0.000 A 
ATOM      3  N   UNL     1       2.399   8.850  17.465  0.00  0.00    +0.000 NA
ATOM      4  N   UNL     1       1.504   9.752  17.982  0.00  0.00    +0.000 NA
ATOM      5  C   UNL     1       1.196   9.317  19.188  0.00  0.00    +0.000 A 
ATOM      6  O   UNL     1       1.861   8.161  19.519  0.00  0.00    +0.000 OA
ATOM      7  H   UNL     1       3.517   6.304  19.201  0.00  0.00    +0.000 HD
ENDROOT
BRANCH   1  10
ATOM      8  N   UNL     1       5.605   5.008  16.211  0.00  0.00    +0.000 N 
ATOM      9  C   UNL     1       4.314   5.100  16.841  0.00  0.00    +0.000 C 
ATOM     10  C   UNL     1       4.175   6.588  17.180  0.00  0.00    +0.000 C 
ATOM     11  C   UNL     1       5.619   7.031  17.405  0.00  0.00    +0.000 C 
ATOM     12  C   UNL     1       6.418   6.077  16.548  0.00  0.00    +0.000 C 
ATOM     13  O   UNL     1       7.594   6.220  16.257  0.00  0.00    +0.000 OA
BRANCH   8  14
ATOM     14  C   UNL     1       6.069   3.794  15.562  0.00  0.00    +0.000 C 
BRANCH  14  16
ATOM     15  C   UNL     1       6.936   4.463  13.274  0.00  0.00    +0.000 C 
ATOM     16  C   UNL     1       5.817   3.787  14.053  0.00  0.00    +0.000 C 
ENDBRANCH  14  16
ENDBRANCH   8  14
ENDBRANCH   1  10
BRANCH   5  17
ATOM     17  C   UNL     1       0.229   9.901  20.174  0.00  0.00    +0.000 C 
ATOM     18  C   UNL     1      -0.101   8.850  21.252  0.00  0.00    +0.000 C 
ATOM     19  C   UNL     1       0.849  11.129  20.859  0.00  0.00    +0.000 C 
ATOM     20  C   UNL     1      -1.072  10.307  19.468  0.00  0.00    +0.000 C 
ENDBRANCH   5  17
TORSDOF 4
ENDMDL
MODEL 4
REMARK VINA RESULT:      -6.2      4.413      5.743
REMARK  Name = 
REMARK  8 active torsions:
REMARK  status: ('A' for Active; 'I' for Inactive)
REMARK    1  A    between atoms: C_1  and  C_2
REMARK    2  A    between atoms: C_2  and  C_3
REMARK    3  A    between atoms: C_3  and  N_4
REMARK    4  A    between atoms: C_6  and  N_7
REMARK    5  A    between atoms: C_11  and  C_12
REMARK    6  A    between atoms: C_12  and  C_13
REMARK    7  A    between atoms: C_12  and  C_14
REMARK    8  A    between atoms: C_12  and  C_15
REMARK                            x       y       z     vdW  Elec       q    Type
REMARK                         _______ _______ _______ _____ _____    ______ ____
ROOT
ATOM      1  N   UNL     1       2.985   7.634  17.635  0.00  0.00    +0.000 N 
ATOM      2  C   UNL     1       2.184   8.187  18.562  0.00  0.00    +0.000 A 
ATOM      3  N   UNL     1       2.064   7.911  19.842  0.00  0.00    +0.000 NA
ATOM      4  N   UNL     1       1.148   8.795  20.354  0.00  0.00    +0.000 NA
ATOM      5  C   UNL     1       0.768   9.558  19.347  0.00  0.00    +0.000 A 
ATOM      6  O   UNL     1       1.380   9.216  18.165  0.00  0.00    +0.000 OA
ATOM      7  H   UNL     1       2.822   7.828  16.655  0.00  0.00    +0.000 HD
ENDROOT
BRANCH   1  10
ATOM      8  N   UNL     1       5.365   4.970  17.175  0.00  0.00    +0.000 N 
ATOM      9  C   UNL     1       5.083   6.382  17.205  0.00  0.00    +0.000 C 
ATOM     10  C   UNL     1       3.786   6.480  18.015  0.00  0.00    +0.000 C 
ATOM     11  C   UNL     1       3.088   5.155  17.718  0.00  0.00    +0.000 C 
ATOM     12  C   UNL     1       4.231   4.214  17.414  0.00  0.00    +0.000 C 
ATOM     13  O   UNL     1       4.135   3.000  17.347  0.00  0.00    +0.000 OA
BRANCH   8  14
ATOM     14  C   UNL     1       6.615   4.438  16.659  0.00  0.00    +0.000 C 
BRANCH  14  16
ATOM     15  C   UNL     1       6.130   3.960  14.216  0.00  0.00    +0.000 C 
ATOM     16  C   UNL     1       6.882   4.837  15.207  0.00  0.00    +0.000 C 
ENDBRANCH  14  16
ENDBRANCH   8  14
ENDBRANCH   1  10
BRANCH   5  17
ATOM     17  C   UNL     1      -0.185  10.714  19.359  0.00  0.00    +0.000 C 
ATOM     18  C   UNL     1      -0.662  10.972  20.803  0.00  0.00    +0.000 C 
ATOM     19  C   UNL     1       0.513  11.981  18.839  0.00  0.00    +0.000 C 
ATOM     20  C   UNL     1      -1.409  10.406  18.485  0.00  0.00    +0.000 C 
ENDBRANCH   5  17
TORSDOF 4
ENDMDL
MODEL 5
REMARK VINA RESULT:      -6.2      4.477      5.834
REMARK  Name = 
REMARK  8 active torsions:
REMARK  status: ('A' for Active; 'I' for Inactive)
REMARK    1  A    between atoms: C_1  and  C_2
REMARK    2  A    between atoms: C_2  and  C_3
REMARK    3  A    between atoms: C_3  and  N_4
REMARK    4  A    between atoms: C_6  and  N_7
REMARK    5  A    between atoms: C_11  and  C_12
REMARK    6  A    between atoms: C_12  and  C_13
REMARK    7  A    between atoms: C_12  and  C_14
REMARK    8  A    between atoms: C_12  and  C_15
REMARK                            x       y       z     vdW  Elec       q    Type
REMARK                         _______ _______ _______ _____ _____    ______ ____
ROOT
ATOM      1  N   UNL     1       2.972   7.683  17.685  0.00  0.00    +0.000 N 
ATOM      2  C   UNL     1       2.162   8.250  18.595  0.00  0.00    +0.000 A 
ATOM      3  N   UNL     1       2.009   7.977  19.872  0.00  0.00    +0.000 NA
ATOM      4  N   UNL     1       1.098   8.877  20.364  0.00  0.00    +0.000 NA
ATOM      5  C   UNL     1       0.755   9.648  19.351  0.00  0.00    +0.000 A 
ATOM      6  O   UNL     1       1.386   9.295  18.182  0.00  0.00    +0.000 OA
ATOM      7  H   UNL     1       2.835   7.881  16.702  0.00  0.00    +0.000 HD
ENDROOT
BRANCH   1  10
ATOM      8  N   UNL     1       5.336   4.995  17.286  0.00  0.00    +0.000 N 
ATOM      9  C   UNL     1       5.070   6.409  17.324  0.00  0.00    +0.000 C 
ATOM     10  C   UNL     1       3.743   6.514  18.082  0.00  0.00    +0.000 C 
ATOM     11  C   UNL     1       3.040   5.202  17.739  0.00  0.00    +0.000 C 
ATOM     12  C   UNL     1       4.183   4.251  17.469  0.00  0.00    +0.000 C 
ATOM     13  O   UNL     1       4.074   3.039  17.382  0.00  0.00    +0.000 OA
BRANCH   8  14
ATOM     14  C   UNL     1       6.599   4.453  16.814  0.00  0.00    +0.000 C 
BRANCH  14  16
ATOM     15  C   UNL     1       6.182   3.885  14.378  0.00  0.00    +0.000 C 
ATOM     16  C   UNL     1       6.895   4.807  15.356  0.00  0.00    +0.000 C 
ENDBRANCH  14  16
ENDBRANCH   8  14
ENDBRANCH   1  10
BRANCH   5  17
ATOM     17  C   UNL     1      -0.177  10.822  19.343  0.00  0.00    +0.000 C 
ATOM     18  C   UNL     1      -1.335  10.552  18.361  0.00  0.00    +0.000 C 
ATOM     19  C   UNL     1      -0.763  11.041  20.746  0.00  0.00    +0.000 C 
ATOM     20  C   UNL     1       0.565  12.088  18.891  0.00  0.00    +0.000 C 
ENDBRANCH   5  17
TORSDOF 4
ENDMDL
MODEL 6
REMARK VINA RESULT:      -6.2      4.272      5.874
REMARK  Name = 
REMARK  8 active torsions:
REMARK  status: ('A' for Active; 'I' for Inactive)
REMARK    1  A    between atoms: C_1  and  C_2
REMARK    2  A    between atoms: C_2  and  C_3
REMARK    3  A    between atoms: C_3  and  N_4
REMARK    4  A    between atoms: C_6  and  N_7
REMARK    5  A    between atoms: C_11  and  C_12
REMARK    6  A    between atoms: C_12  and  C_13
REMARK    7  A    between atoms: C_12  and  C_14
REMARK    8  A    between atoms: C_12  and  C_15
REMARK                            x       y       z     vdW  Elec       q    Type
REMARK                         _______ _______ _______ _____ _____    ______ ____
ROOT
ATOM      1  N   UNL     1       2.553   7.516  18.247  0.00  0.00    +0.000 N 
ATOM      2  C   UNL     1       1.920   8.011  19.326  0.00  0.00    +0.000 A 
ATOM      3  N   UNL     1       1.816   7.518  20.540  0.00  0.00    +0.000 NA
ATOM      4  N   UNL     1       1.112   8.433  21.281  0.00  0.00    +0.000 NA
ATOM      5  C   UNL     1       0.834   9.433  20.467  0.00  0.00    +0.000 A 
ATOM      6  O   UNL     1       1.308   9.225  19.194  0.00  0.00    +0.000 OA
ATOM      7  H   UNL     1       2.380   7.923  17.337  0.00  0.00    +0.000 HD
ENDROOT
BRANCH   1  10
ATOM      8  N   UNL     1       4.223   4.553  17.064  0.00  0.00    +0.000 N 
ATOM      9  C   UNL     1       4.253   5.970  17.314  0.00  0.00    +0.000 C 
ATOM     10  C   UNL     1       3.137   6.187  18.341  0.00  0.00    +0.000 C 
ATOM     11  C   UNL     1       2.138   5.080  18.009  0.00  0.00    +0.000 C 
ATOM     12  C   UNL     1       3.000   3.998  17.401  0.00  0.00    +0.000 C 
ATOM     13  O   UNL     1       2.641   2.849  17.204  0.00  0.00    +0.000 OA
BRANCH   8  14
ATOM     14  C   UNL     1       5.245   3.879  16.280  0.00  0.00    +0.000 C 
BRANCH  14  16
ATOM     15  C   UNL     1       6.104   3.958  13.896  0.00  0.00    +0.000 C 
ATOM     16  C   UNL     1       5.813   4.752  15.161  0.00  0.00    +0.000 C 
ENDBRANCH  14  16
ENDBRANCH   8  14
ENDBRANCH   1  10
BRANCH   5  17
ATOM     17  C   UNL     1       0.120  10.715  20.771  0.00  0.00    +0.000 C 
ATOM     18  C   UNL     1      -0.998  10.939  19.733  0.00  0.00    +0.000 C 
ATOM     19  C   UNL     1      -0.513  10.649  22.170  0.00  0.00    +0.000 C 
ATOM     20  C   UNL     1       1.097  11.898  20.703  0.00  0.00    +0.000 C 
ENDBRANCH   5  17
TORSDOF 4
ENDMDL
MODEL 7
REMARK VINA RESULT:      -6.1      4.343      6.009
REMARK  Name = 
REMARK  8 active torsions:
REMARK  status: ('A' for Active; 'I' for Inactive)
REMARK    1  A    between atoms: C_1  and  C_2
REMARK    2  A    between atoms: C_2  and  C_3
REMARK    3  A    between atoms: C_3  and  N_4
REMARK    4  A    between atoms: C_6  and  N_7
REMARK    5  A    between atoms: C_11  and  C_12
REMARK    6  A    between atoms: C_12  and  C_13
REMARK    7  A    between atoms: C_12  and  C_14
REMARK    8  A    between atoms: C_12  and  C_15
REMARK                            x       y       z     vdW  Elec       q    Type
REMARK                         _______ _______ _______ _____ _____    ______ ____
ROOT
ATOM      1  N   UNL     1       2.515   7.612  18.309  0.00  0.00    +0.000 N 
ATOM      2  C   UNL     1       1.880   8.110  19.385  0.00  0.00    +0.000 A 
ATOM      3  N   UNL     1       1.784   7.627  20.603  0.00  0.00    +0.000 NA
ATOM      4  N   UNL     1       1.073   8.542  21.338  0.00  0.00    +0.000 NA
ATOM      5  C   UNL     1       0.783   9.531  20.516  0.00  0.00    +0.000 A 
ATOM      6  O   UNL     1       1.255   9.316  19.244  0.00  0.00    +0.000 OA
ATOM      7  H   UNL     1       2.335   8.009  17.396  0.00  0.00    +0.000 HD
ENDROOT
BRANCH   1  10
ATOM      8  N   UNL     1       4.228   4.663  17.153  0.00  0.00    +0.000 N 
ATOM      9  C   UNL     1       4.241   6.082  17.397  0.00  0.00    +0.000 C 
ATOM     10  C   UNL     1       3.113   6.289  18.413  0.00  0.00    +0.000 C 
ATOM     11  C   UNL     1       2.129   5.171  18.077  0.00  0.00    +0.000 C 
ATOM     12  C   UNL     1       3.009   4.096  17.480  0.00  0.00    +0.000 C 
ATOM     13  O   UNL     1       2.664   2.942  17.285  0.00  0.00    +0.000 OA
BRANCH   8  14
ATOM     14  C   UNL     1       5.264   3.998  16.380  0.00  0.00    +0.000 C 
BRANCH  14  16
ATOM     15  C   UNL     1       6.930   4.612  14.571  0.00  0.00    +0.000 C 
ATOM     16  C   UNL     1       5.470   4.615  14.997  0.00  0.00    +0.000 C 
ENDBRANCH  14  16
ENDBRANCH   8  14
ENDBRANCH   1  10
BRANCH   5  17
ATOM     17  C   UNL     1       0.057  10.809  20.811  0.00  0.00    +0.000 C 
ATOM     18  C   UNL     1      -0.581  10.726  22.212  0.00  0.00    +0.000 C 
ATOM     19  C   UNL     1       1.038  11.991  20.787  0.00  0.00    +0.000 C 
ATOM     20  C   UNL     1      -1.054  11.041  19.778  0.00  0.00    +0.000 C 
ENDBRANCH   5  17
TORSDOF 4
ENDMDL
MODEL 8
REMARK VINA RESULT:      -6.1      6.625      8.888
REMARK  Name = 
REMARK  8 active torsions:
REMARK  status: ('A' for Active; 'I' for Inactive)
REMARK    1  A    between atoms: C_1  and  C_2
REMARK    2  A    between atoms: C_2  and  C_3
REMARK    3  A    between atoms: C_3  and  N_4
REMARK    4  A    between atoms: C_6  and  N_7
REMARK    5  A    between atoms: C_11  and  C_12
REMARK    6  A    between atoms: C_12  and  C_13
REMARK    7  A    between atoms: C_12  and  C_14
REMARK    8  A    between atoms: C_12  and  C_15
REMARK                            x       y       z     vdW  Elec       q    Type
REMARK                         _______ _______ _______ _____ _____    ______ ____
ROOT
ATOM      1  N   UNL     1       8.428   9.663  17.841  0.00  0.00    +0.000 N 
ATOM      2  C   UNL     1       8.091   8.364  17.928  0.00  0.00    +0.000 A 
ATOM      3  N   UNL     1       8.475   7.452  18.794  0.00  0.00    +0.000 NA
ATOM      4  N   UNL     1       7.804   6.298  18.477  0.00  0.00    +0.000 NA
ATOM      5  C   UNL     1       7.048   6.583  17.435  0.00  0.00    +0.000 A 
ATOM      6  O   UNL     1       7.191   7.885  17.019  0.00  0.00    +0.000 OA
ATOM      7  H   UNL     1       8.195  10.184  17.005  0.00  0.00    +0.000 HD
ENDROOT
BRANCH   1  10
ATOM      8  N   UNL     1       9.809  11.782  20.405  0.00  0.00    +0.000 N 
ATOM      9  C   UNL     1       8.848  10.784  20.013  0.00  0.00    +0.000 C 
ATOM     10  C   UNL     1       9.449  10.173  18.744  0.00  0.00    +0.000 C 
ATOM     11  C   UNL     1      10.243  11.329  18.141  0.00  0.00    +0.000 C 
ATOM     12  C   UNL     1      10.608  12.170  19.343  0.00  0.00    +0.000 C 
ATOM     13  O   UNL     1      11.434  13.068  19.340  0.00  0.00    +0.000 OA
BRANCH   8  14
ATOM     14  C   UNL     1       9.727  12.486  21.673  0.00  0.00    +0.000 C 
BRANCH  14  16
ATOM     15  C   UNL     1       8.165  11.765  23.536  0.00  0.00    +0.000 C 
ATOM     16  C   UNL     1       8.306  12.542  22.236  0.00  0.00    +0.000 C 
ENDBRANCH  14  16
ENDBRANCH   8  14
ENDBRANCH   1  10
BRANCH   5  17
ATOM     17  C   UNL     1       6.079   5.697  16.713  0.00  0.00    +0.000 C 
ATOM     18  C   UNL     1       6.847   4.792  15.728  0.00  0.00    +0.000 C 
ATOM     19  C   UNL     1       5.328   4.807  17.715  0.00  0.00    +0.000 C 
ATOM     20  C   UNL     1       5.072   6.543  15.920  0.00  0.00    +0.000 C 
ENDBRANCH   5  17
TORSDOF 4
ENDMDL
MODEL 9
REMARK VINA RESULT:      -6.1      4.372      5.904
REMARK  Name = 
REMARK  8 active torsions:
REMARK  status: ('A' for Active; 'I' for Inactive)
REMARK    1  A    between atoms: C_1  and  C_2
REMARK    2  A    between atoms: C_2  and  C_3
REMARK    3  A    between atoms: C_3  and  N_4
REMARK    4  A    between atoms: C_6  and  N_7
REMARK    5  A    between atoms: C_11  and  C_12
REMARK    6  A    between atoms: C_12  and  C_13
REMARK    7  A    between atoms: C_12  and  C_14
REMARK    8  A    between atoms: C_12  and  C_15
REMARK                            x       y       z     vdW  Elec       q    Type
REMARK                         _______ _______ _______ _____ _____    ______ ____
ROOT
ATOM      1  N   UNL     1       2.546   7.617  18.223  0.00  0.00    +0.000 N 
ATOM      2  C   UNL     1       1.911   8.141  19.287  0.00  0.00    +0.000 A 
ATOM      3  N   UNL     1       1.830   7.695  20.521  0.00  0.00    +0.000 NA
ATOM      4  N   UNL     1       1.111   8.623  21.231  0.00  0.00    +0.000 NA
ATOM      5  C   UNL     1       0.801   9.581  20.381  0.00  0.00    +0.000 A 
ATOM      6  O   UNL     1       1.269   9.333  19.112  0.00  0.00    +0.000 OA
ATOM      7  H   UNL     1       2.355   7.983  17.299  0.00  0.00    +0.000 HD
ENDROOT
BRANCH   1  10
ATOM      8  N   UNL     1       4.419   4.721  17.188  0.00  0.00    +0.000 N 
ATOM      9  C   UNL     1       4.378   6.136  17.447  0.00  0.00    +0.000 C 
ATOM     10  C   UNL     1       3.163   6.307  18.365  0.00  0.00    +0.000 C 
ATOM     11  C   UNL     1       2.237   5.171  17.933  0.00  0.00    +0.000 C 
ATOM     12  C   UNL     1       3.189   4.123  17.404  0.00  0.00    +0.000 C 
ATOM     13  O   UNL     1       2.888   2.965  17.168  0.00  0.00    +0.000 OA
BRANCH   8  14
ATOM     14  C   UNL     1       5.532   4.088  16.501  0.00  0.00    +0.000 C 
BRANCH  14  16
ATOM     15  C   UNL     1       5.805   4.044  13.980  0.00  0.00    +0.000 C 
ATOM     16  C   UNL     1       5.981   4.854  15.256  0.00  0.00    +0.000 C 
ENDBRANCH  14  16
ENDBRANCH   8  14
ENDBRANCH   1  10
BRANCH   5  17
ATOM     17  C   UNL     1       0.060  10.858  20.640  0.00  0.00    +0.000 C 
ATOM     18  C   UNL     1       1.032  12.049  20.519  0.00  0.00    +0.000 C 
ATOM     19  C   UNL     1      -1.065  11.035  19.607  0.00  0.00    +0.000 C 
ATOM     20  C   UNL     1      -0.536  10.851  22.054  0.00  0.00    +0.000 C 
ENDBRANCH   5  17
TORSDOF 4
ENDMDL
