MODEL 1
REMARK VINA RESULT:      -7.1      0.000      0.000
REMARK  Name = 
REMARK  5 active torsions:
REMARK  status: ('A' for Active; 'I' for Inactive)
REMARK    1  A    between atoms: C_1  and  N_2
REMARK    2  A    between atoms: N_2  and  C_3
REMARK    3  A    between atoms: N_2  and  C_4
REMARK    4  A    between atoms: C_7  and  C_8
REMARK    5  A    between atoms: C_8  and  C_9
REMARK                            x       y       z     vdW  Elec       q    Type
REMARK                         _______ _______ _______ _____ _____    ______ ____
ROOT
ATOM      1  C   UNL     1       3.056   7.083  17.927  0.00  0.00    +0.000 C 
ENDROOT
BRANCH   1   2
ATOM      2  C   UNL     1       2.981   5.512  18.402  0.00  0.00    +0.000 C 
ATOM      3  C   UNL     1       1.780   4.949  17.607  0.00  0.00    +0.000 C 
ATOM      4  C   UNL     1       2.015   3.450  17.604  0.00  0.00    +0.000 C 
ATOM      5  C   UNL     1       2.261   3.318  19.072  0.00  0.00    +0.000 A 
ATOM      6  C   UNL     1       1.833   2.193  19.801  0.00  0.00    +0.000 A 
ATOM      7  C   UNL     1       1.657   2.329  21.133  0.00  0.00    +0.000 A 
ATOM      8  C   UNL     1       1.980   3.564  21.750  0.00  0.00    +0.000 A 
ATOM      9  C   UNL     1       2.540   4.668  20.995  0.00  0.00    +0.000 A 
ATOM     10  C   UNL     1       2.691   4.564  19.625  0.00  0.00    +0.000 A 
ENDBRANCH   1   2
BRANCH   1  14
ATOM     11  C   UNL     1       0.518  10.240  19.994  0.00  0.00    +0.000 A 
ATOM     12  C   UNL     1       0.988   9.052  20.585  0.00  0.00    +0.000 A 
ATOM     13  C   UNL     1       1.781   8.096  19.869  0.00  0.00    +0.000 A 
ATOM     14  C   UNL     1       2.150   8.196  18.544  0.00  0.00    +0.000 A 
ATOM     15  C   UNL     1       1.721   9.394  17.921  0.00  0.00    +0.000 A 
ATOM     16  C   UNL     1       0.909  10.362  18.656  0.00  0.00    +0.000 A 
BRANCH  11  18
ATOM     17  C   UNL     1      -0.626  11.022  22.118  0.00  0.00    +0.000 C 
ATOM     18  N   UNL     1      -0.254  11.174  20.704  0.00  0.00    +0.000 N 
ATOM     19  C   UNL     1      -0.893  12.307  20.020  0.00  0.00    +0.000 C 
ENDBRANCH  11  18
ENDBRANCH   1  14
TORSDOF 3
ENDMDL
MODEL 2
REMARK VINA RESULT:      -7.0      0.542      1.311
REMARK  Name = 
REMARK  5 active torsions:
REMARK  status: ('A' for Active; 'I' for Inactive)
REMARK    1  A    between atoms: C_1  and  N_2
REMARK    2  A    between atoms: N_2  and  C_3
REMARK    3  A    between atoms: N_2  and  C_4
REMARK    4  A    between atoms: C_7  and  C_8
REMARK    5  A    between atoms: C_8  and  C_9
REMARK                            x       y       z     vdW  Elec       q    Type
REMARK                         _______ _______ _______ _____ _____    ______ ____
ROOT
ATOM      1  C   UNL     1       3.056   7.094  18.002  0.00  0.00    +0.000 C 
ENDROOT
BRANCH   1   2
ATOM      2  C   UNL     1       2.973   5.511  18.437  0.00  0.00    +0.000 C 
ATOM      3  C   UNL     1       1.756   4.980  17.644  0.00  0.00    +0.000 C 
ATOM      4  C   UNL     1       1.977   3.480  17.600  0.00  0.00    +0.000 C 
ATOM      5  C   UNL     1       2.241   3.308  19.060  0.00  0.00    +0.000 A 
ATOM      6  C   UNL     1       1.812   2.168  19.766  0.00  0.00    +0.000 A 
ATOM      7  C   UNL     1       1.656   2.272  21.103  0.00  0.00    +0.000 A 
ATOM      8  C   UNL     1       1.998   3.486  21.747  0.00  0.00    +0.000 A 
ATOM      9  C   UNL     1       2.559   4.605  21.013  0.00  0.00    +0.000 A 
ATOM     10  C   UNL     1       2.690   4.535  19.640  0.00  0.00    +0.000 A 
ENDBRANCH   1   2
BRANCH   1  14
ATOM     11  C   UNL     1       0.454  10.410  19.708  0.00  0.00    +0.000 A 
ATOM     12  C   UNL     1       0.996  10.380  18.409  0.00  0.00    +0.000 A 
ATOM     13  C   UNL     1       1.815   9.302  17.940  0.00  0.00    +0.000 A 
ATOM     14  C   UNL     1       2.192   8.203  18.682  0.00  0.00    +0.000 A 
ATOM     15  C   UNL     1       1.643   8.181  19.988  0.00  0.00    +0.000 A 
ATOM     16  C   UNL     1       0.812   9.286  20.461  0.00  0.00    +0.000 A 
BRANCH  11  18
ATOM     17  C   UNL     1      -1.685  11.769  19.617  0.00  0.00    +0.000 C 
ATOM     18  N   UNL     1      -0.352  11.468  20.159  0.00  0.00    +0.000 N 
ATOM     19  C   UNL     1       0.163  12.463  21.109  0.00  0.00    +0.000 C 
ENDBRANCH  11  18
ENDBRANCH   1  14
TORSDOF 3
ENDMDL
MODEL 3
REMARK VINA RESULT:      -7.0      0.962      1.037
REMARK  Name = 
REMARK  5 active torsions:
REMARK  status: ('A' for Active; 'I' for Inactive)
REMARK    1  A    between atoms: C_1  and  N_2
REMARK    2  A    between atoms: N_2  and  C_3
REMARK    3  A    between atoms: N_2  and  C_4
REMARK    4  A    between atoms: C_7  and  C_8
REMARK    5  A    between atoms: C_8  and  C_9
REMARK                            x       y       z     vdW  Elec       q    Type
REMARK                         _______ _______ _______ _____ _____    ______ ____
ROOT
ATOM      1  C   UNL     1       2.862   7.390  17.963  0.00  0.00    +0.000 C 
ENDROOT
BRANCH   1   2
ATOM      2  C   UNL     1       3.418   6.051  18.737  0.00  0.00    +0.000 C 
ATOM      3  C   UNL     1       3.405   4.964  17.638  0.00  0.00    +0.000 C 
ATOM      4  C   UNL     1       4.378   3.918  18.149  0.00  0.00    +0.000 C 
ATOM      5  C   UNL     1       3.803   3.813  19.523  0.00  0.00    +0.000 A 
ATOM      6  C   UNL     1       3.752   2.589  20.217  0.00  0.00    +0.000 A 
ATOM      7  C   UNL     1       2.836   2.456  21.202  0.00  0.00    +0.000 A 
ATOM      8  C   UNL     1       2.025   3.566  21.545  0.00  0.00    +0.000 A 
ATOM      9  C   UNL     1       2.185   4.854  20.899  0.00  0.00    +0.000 A 
ATOM     10  C   UNL     1       3.086   5.002  19.863  0.00  0.00    +0.000 A 
ENDBRANCH   1   2
BRANCH   1  14
ATOM     11  C   UNL     1       0.120  10.275  20.161  0.00  0.00    +0.000 A 
ATOM     12  C   UNL     1       0.796   9.186  20.741  0.00  0.00    +0.000 A 
ATOM     13  C   UNL     1       1.642   8.312  19.984  0.00  0.00    +0.000 A 
ATOM     14  C   UNL     1       1.875   8.401  18.628  0.00  0.00    +0.000 A 
ATOM     15  C   UNL     1       1.234   9.504  18.010  0.00  0.00    +0.000 A 
ATOM     16  C   UNL     1       0.369  10.389  18.789  0.00  0.00    +0.000 A 
BRANCH  11  18
ATOM     17  C   UNL     1      -0.814  11.083  22.377  0.00  0.00    +0.000 C 
ATOM     18  N   UNL     1      -0.704  11.131  20.911  0.00  0.00    +0.000 N 
ATOM     19  C   UNL     1      -1.653  12.039  20.253  0.00  0.00    +0.000 C 
ENDBRANCH  11  18
ENDBRANCH   1  14
TORSDOF 3
ENDMDL
MODEL 4
REMARK VINA RESULT:      -7.0      2.760      6.921
REMARK  Name = 
REMARK  5 active torsions:
REMARK  status: ('A' for Active; 'I' for Inactive)
REMARK    1  A    between atoms: C_1  and  N_2
REMARK    2  A    between atoms: N_2  and  C_3
REMARK    3  A    between atoms: N_2  and  C_4
REMARK    4  A    between atoms: C_7  and  C_8
REMARK    5  A    between atoms: C_8  and  C_9
REMARK                            x       y       z     vdW  Elec       q    Type
REMARK                         _______ _______ _______ _____ _____    ______ ____
ROOT
ATOM      1  C   UNL     1       1.580   9.354  18.044  0.00  0.00    +0.000 C 
ENDROOT
BRANCH   1   2
ATOM      2  C   UNL     1       0.467   9.940  19.102  0.00  0.00    +0.000 C 
ATOM      3  C   UNL     1       0.891  11.414  19.295  0.00  0.00    +0.000 C 
ATOM      4  C   UNL     1      -0.368  12.091  19.806  0.00  0.00    +0.000 C 
ATOM      5  C   UNL     1      -0.668  11.095  20.878  0.00  0.00    +0.000 A 
ATOM      6  C   UNL     1      -1.221  11.476  22.115  0.00  0.00    +0.000 A 
ATOM      7  C   UNL     1      -1.034  10.656  23.172  0.00  0.00    +0.000 A 
ATOM      8  C   UNL     1      -0.364   9.423  22.981  0.00  0.00    +0.000 A 
ATOM      9  C   UNL     1       0.083   8.996  21.669  0.00  0.00    +0.000 A 
ATOM     10  C   UNL     1      -0.061   9.835  20.581  0.00  0.00    +0.000 A 
ENDBRANCH   1   2
BRANCH   1  14
ATOM     11  C   UNL     1       4.126   5.631  18.623  0.00  0.00    +0.000 A 
ATOM     12  C   UNL     1       4.216   6.524  17.539  0.00  0.00    +0.000 A 
ATOM     13  C   UNL     1       3.374   7.677  17.418  0.00  0.00    +0.000 A 
ATOM     14  C   UNL     1       2.379   8.037  18.302  0.00  0.00    +0.000 A 
ATOM     15  C   UNL     1       2.276   7.179  19.425  0.00  0.00    +0.000 A 
ATOM     16  C   UNL     1       3.135   6.002  19.539  0.00  0.00    +0.000 A 
BRANCH  11  18
ATOM     17  C   UNL     1       4.563   3.261  19.414  0.00  0.00    +0.000 C 
ATOM     18  N   UNL     1       4.958   4.505  18.737  0.00  0.00    +0.000 N 
ATOM     19  C   UNL     1       6.367   4.558  18.323  0.00  0.00    +0.000 C 
ENDBRANCH  11  18
ENDBRANCH   1  14
TORSDOF 3
ENDMDL
MODEL 5
REMARK VINA RESULT:      -6.9      0.593      1.225
REMARK  Name = 
REMARK  5 active torsions:
REMARK  status: ('A' for Active; 'I' for Inactive)
REMARK    1  A    between atoms: C_1  and  N_2
REMARK    2  A    between atoms: N_2  and  C_3
REMARK    3  A    between atoms: N_2  and  C_4
REMARK    4  A    between atoms: C_7  and  C_8
REMARK    5  A    between atoms: C_8  and  C_9
REMARK                            x       y       z     vdW  Elec       q    Type
REMARK                         _______ _______ _______ _____ _____    ______ ____
ROOT
ATOM      1  C   UNL     1       2.593   7.405  18.264  0.00  0.00    +0.000 C 
ENDROOT
BRANCH   1   2
ATOM      2  C   UNL     1       2.745   5.802  18.592  0.00  0.00    +0.000 C 
ATOM      3  C   UNL     1       1.685   5.143  17.679  0.00  0.00    +0.000 C 
ATOM      4  C   UNL     1       2.153   3.705  17.558  0.00  0.00    +0.000 C 
ATOM      5  C   UNL     1       2.350   3.470  19.020  0.00  0.00    +0.000 A 
ATOM      6  C   UNL     1       2.072   2.227  19.618  0.00  0.00    +0.000 A 
ATOM      7  C   UNL     1       1.817   2.205  20.945  0.00  0.00    +0.000 A 
ATOM      8  C   UNL     1       1.913   3.408  21.687  0.00  0.00    +0.000 A 
ATOM      9  C   UNL     1       2.326   4.653  21.068  0.00  0.00    +0.000 A 
ATOM     10  C   UNL     1       2.553   4.707  19.706  0.00  0.00    +0.000 A 
ENDBRANCH   1   2
BRANCH   1  14
ATOM     11  C   UNL     1       0.087  10.337  20.673  0.00  0.00    +0.000 A 
ATOM     12  C   UNL     1       0.373  10.440  19.298  0.00  0.00    +0.000 A 
ATOM     13  C   UNL     1       1.177   9.479  18.603  0.00  0.00    +0.000 A 
ATOM     14  C   UNL     1       1.782   8.380  19.176  0.00  0.00    +0.000 A 
ATOM     15  C   UNL     1       1.495   8.224  20.554  0.00  0.00    +0.000 A 
ATOM     16  C   UNL     1       0.677   9.211  21.257  0.00  0.00    +0.000 A 
BRANCH  11  18
ATOM     17  C   UNL     1      -1.023  11.210  22.779  0.00  0.00    +0.000 C 
ATOM     18  N   UNL     1      -0.707  11.280  21.345  0.00  0.00    +0.000 N 
ATOM     19  C   UNL     1      -1.423  12.332  20.610  0.00  0.00    +0.000 C 
ENDBRANCH  11  18
ENDBRANCH   1  14
TORSDOF 3
ENDMDL
MODEL 6
REMARK VINA RESULT:      -6.9      1.298      2.031
REMARK  Name = 
REMARK  5 active torsions:
REMARK  status: ('A' for Active; 'I' for Inactive)
REMARK    1  A    between atoms: C_1  and  N_2
REMARK    2  A    between atoms: N_2  and  C_3
REMARK    3  A    between atoms: N_2  and  C_4
REMARK    4  A    between atoms: C_7  and  C_8
REMARK    5  A    between atoms: C_8  and  C_9
REMARK                            x       y       z     vdW  Elec       q    Type
REMARK                         _______ _______ _______ _____ _____    ______ ____
ROOT
ATOM      1  C   UNL     1       3.267   7.299  17.903  0.00  0.00    +0.000 C 
ENDROOT
BRANCH   1   2
ATOM      2  C   UNL     1       3.439   5.713  18.300  0.00  0.00    +0.000 C 
ATOM      3  C   UNL     1       4.036   5.082  17.021  0.00  0.00    +0.000 C 
ATOM      4  C   UNL     1       4.684   3.802  17.516  0.00  0.00    +0.000 C 
ATOM      5  C   UNL     1       3.507   3.311  18.295  0.00  0.00    +0.000 A 
ATOM      6  C   UNL     1       3.187   1.943  18.377  0.00  0.00    +0.000 A 
ATOM      7  C   UNL     1       1.912   1.606  18.672  0.00  0.00    +0.000 A 
ATOM      8  C   UNL     1       0.976   2.630  18.957  0.00  0.00    +0.000 A 
ATOM      9  C   UNL     1       1.363   4.028  18.990  0.00  0.00    +0.000 A 
ATOM     10  C   UNL     1       2.650   4.398  18.653  0.00  0.00    +0.000 A 
ENDBRANCH   1   2
BRANCH   1  14
ATOM     11  C   UNL     1       0.126  10.079  19.659  0.00  0.00    +0.000 A 
ATOM     12  C   UNL     1       0.584  10.098  18.328  0.00  0.00    +0.000 A 
ATOM     13  C   UNL     1       1.584   9.193  17.844  0.00  0.00    +0.000 A 
ATOM     14  C   UNL     1       2.229   8.236  18.599  0.00  0.00    +0.000 A 
ATOM     15  C   UNL     1       1.775   8.165  19.939  0.00  0.00    +0.000 A 
ATOM     16  C   UNL     1       0.757   9.094  20.427  0.00  0.00    +0.000 A 
BRANCH  11  18
ATOM     17  C   UNL     1      -1.860  11.605  19.258  0.00  0.00    +0.000 C 
ATOM     18  N   UNL     1      -0.859  10.965  20.125  0.00  0.00    +0.000 N 
ATOM     19  C   UNL     1      -0.849  11.450  21.512  0.00  0.00    +0.000 C 
ENDBRANCH  11  18
ENDBRANCH   1  14
TORSDOF 3
ENDMDL
MODEL 7
REMARK VINA RESULT:      -6.9      1.471      1.872
REMARK  Name = 
REMARK  5 active torsions:
REMARK  status: ('A' for Active; 'I' for Inactive)
REMARK    1  A    between atoms: C_1  and  N_2
REMARK    2  A    between atoms: N_2  and  C_3
REMARK    3  A    between atoms: N_2  and  C_4
REMARK    4  A    between atoms: C_7  and  C_8
REMARK    5  A    between atoms: C_8  and  C_9
REMARK                            x       y       z     vdW  Elec       q    Type
REMARK                         _______ _______ _______ _____ _____    ______ ____
ROOT
ATOM      1  C   UNL     1       2.860   7.643  17.891  0.00  0.00    +0.000 C 
ENDROOT
BRANCH   1   2
ATOM      2  C   UNL     1       3.284   6.097  18.254  0.00  0.00    +0.000 C 
ATOM      3  C   UNL     1       4.173   5.675  17.061  0.00  0.00    +0.000 C 
ATOM      4  C   UNL     1       4.983   4.513  17.605  0.00  0.00    +0.000 C 
ATOM      5  C   UNL     1       3.827   3.757  18.175  0.00  0.00    +0.000 A 
ATOM      6  C   UNL     1       3.776   2.350  18.158  0.00  0.00    +0.000 A 
ATOM      7  C   UNL     1       2.564   1.759  18.240  0.00  0.00    +0.000 A 
ATOM      8  C   UNL     1       1.412   2.565  18.413  0.00  0.00    +0.000 A 
ATOM      9  C   UNL     1       1.505   4.005  18.554  0.00  0.00    +0.000 A 
ATOM     10  C   UNL     1       2.729   4.635  18.434  0.00  0.00    +0.000 A 
ENDBRANCH   1   2
BRANCH   1  14
ATOM     11  C   UNL     1       0.384  10.054  20.846  0.00  0.00    +0.000 A 
ATOM     12  C   UNL     1       1.024   8.831  21.121  0.00  0.00    +0.000 A 
ATOM     13  C   UNL     1       1.786   8.121  20.136  0.00  0.00    +0.000 A 
ATOM     14  C   UNL     1       1.961   8.514  18.826  0.00  0.00    +0.000 A 
ATOM     15  C   UNL     1       1.356   9.757  18.516  0.00  0.00    +0.000 A 
ATOM     16  C   UNL     1       0.577  10.473  19.525  0.00  0.00    +0.000 A 
BRANCH  11  18
ATOM     17  C   UNL     1      -0.787  10.155  23.094  0.00  0.00    +0.000 C 
ATOM     18  N   UNL     1      -0.356  10.747  21.818  0.00  0.00    +0.000 N 
ATOM     19  C   UNL     1      -0.900  12.085  21.548  0.00  0.00    +0.000 C 
ENDBRANCH  11  18
ENDBRANCH   1  14
TORSDOF 3
ENDMDL
MODEL 8
REMARK VINA RESULT:      -6.9      2.667      6.878
REMARK  Name = 
REMARK  5 active torsions:
REMARK  status: ('A' for Active; 'I' for Inactive)
REMARK    1  A    between atoms: C_1  and  N_2
REMARK    2  A    between atoms: N_2  and  C_3
REMARK    3  A    between atoms: N_2  and  C_4
REMARK    4  A    between atoms: C_7  and  C_8
REMARK    5  A    between atoms: C_8  and  C_9
REMARK                            x       y       z     vdW  Elec       q    Type
REMARK                         _______ _______ _______ _____ _____    ______ ____
ROOT
ATOM      1  C   UNL     1       2.412   8.612  18.030  0.00  0.00    +0.000 C 
ENDROOT
BRANCH   1   2
ATOM      2  C   UNL     1       1.186   9.251  18.919  0.00  0.00    +0.000 C 
ATOM      3  C   UNL     1       1.408  10.777  18.801  0.00  0.00    +0.000 C 
ATOM      4  C   UNL     1       0.051  11.368  19.133  0.00  0.00    +0.000 C 
ATOM      5  C   UNL     1      -0.168  10.588  20.388  0.00  0.00    +0.000 A 
ATOM      6  C   UNL     1      -0.821  11.142  21.505  0.00  0.00    +0.000 A 
ATOM      7  C   UNL     1      -0.580  10.594  22.716  0.00  0.00    +0.000 A 
ATOM      8  C   UNL     1       0.251   9.450  22.804  0.00  0.00    +0.000 A 
ATOM      9  C   UNL     1       0.809   8.822  21.622  0.00  0.00    +0.000 A 
ATOM     10  C   UNL     1       0.609   9.388  20.377  0.00  0.00    +0.000 A 
ENDBRANCH   1   2
BRANCH   1  14
ATOM     11  C   UNL     1       3.537   4.244  18.607  0.00  0.00    +0.000 A 
ATOM     12  C   UNL     1       2.516   4.925  19.298  0.00  0.00    +0.000 A 
ATOM     13  C   UNL     1       2.220   6.308  19.069  0.00  0.00    +0.000 A 
ATOM     14  C   UNL     1       2.892   7.135  18.193  0.00  0.00    +0.000 A 
ATOM     15  C   UNL     1       3.909   6.479  17.455  0.00  0.00    +0.000 A 
ATOM     16  C   UNL     1       4.208   5.069  17.698  0.00  0.00    +0.000 A 
BRANCH  11  18
ATOM     17  C   UNL     1       3.390   1.802  17.938  0.00  0.00    +0.000 C 
ATOM     18  N   UNL     1       3.817   2.887  18.834  0.00  0.00    +0.000 N 
ATOM     19  C   UNL     1       4.428   2.438  20.093  0.00  0.00    +0.000 C 
ENDBRANCH  11  18
ENDBRANCH   1  14
TORSDOF 3
ENDMDL
MODEL 9
REMARK VINA RESULT:      -6.8      2.295      6.881
REMARK  Name = 
REMARK  5 active torsions:
REMARK  status: ('A' for Active; 'I' for Inactive)
REMARK    1  A    between atoms: C_1  and  N_2
REMARK    2  A    between atoms: N_2  and  C_3
REMARK    3  A    between atoms: N_2  and  C_4
REMARK    4  A    between atoms: C_7  and  C_8
REMARK    5  A    between atoms: C_8  and  C_9
REMARK                            x       y       z     vdW  Elec       q    Type
REMARK                         _______ _______ _______ _____ _____    ______ ____
ROOT
ATOM      1  C   UNL     1       1.935   8.765  18.422  0.00  0.00    +0.000 C 
ENDROOT
BRANCH   1   2
ATOM      2  C   UNL     1       0.751   9.596  19.202  0.00  0.00    +0.000 C 
ATOM      3  C   UNL     1       1.242  11.062  19.149  0.00  0.00    +0.000 C 
ATOM      4  C   UNL     1      -0.021  11.876  19.361  0.00  0.00    +0.000 C 
ATOM      5  C   UNL     1      -0.498  11.132  20.565  0.00  0.00    +0.000 A 
ATOM      6  C   UNL     1      -1.158  11.778  21.627  0.00  0.00    +0.000 A 
ATOM      7  C   UNL     1      -1.140  11.185  22.840  0.00  0.00    +0.000 A 
ATOM      8  C   UNL     1      -0.530   9.913  22.978  0.00  0.00    +0.000 A 
ATOM      9  C   UNL     1       0.031   9.211  21.840  0.00  0.00    +0.000 A 
ATOM     10  C   UNL     1       0.059   9.816  20.598  0.00  0.00    +0.000 A 
ENDBRANCH   1   2
BRANCH   1  14
ATOM     11  C   UNL     1       2.920   4.539  19.782  0.00  0.00    +0.000 A 
ATOM     12  C   UNL     1       2.287   5.524  20.564  0.00  0.00    +0.000 A 
ATOM     13  C   UNL     1       2.012   6.841  20.070  0.00  0.00    +0.000 A 
ATOM     14  C   UNL     1       2.347   7.311  18.817  0.00  0.00    +0.000 A 
ATOM     15  C   UNL     1       2.962   6.340  17.989  0.00  0.00    +0.000 A 
ATOM     16  C   UNL     1       3.242   5.000  18.501  0.00  0.00    +0.000 A 
BRANCH  11  18
ATOM     17  C   UNL     1       2.476   2.650  21.415  0.00  0.00    +0.000 C 
ATOM     18  N   UNL     1       3.181   3.249  20.272  0.00  0.00    +0.000 N 
ATOM     19  C   UNL     1       4.312   2.460  19.766  0.00  0.00    +0.000 C 
ENDBRANCH  11  18
ENDBRANCH   1  14
TORSDOF 3
ENDMDL
