MODEL 1
REMARK VINA RESULT:      -8.6      0.000      0.000
REMARK  Name = 
REMARK  11 active torsions:
REMARK  status: ('A' for Active; 'I' for Inactive)
REMARK    1  A    between atoms: C_1  and  C_2
REMARK    2  A    between atoms: C_2  and  C_3
REMARK    3  A    between atoms: C_2  and  C_4
REMARK    4  A    between atoms: C_4  and  C_5
REMARK    5  A    between atoms: C_8  and  C_9
REMARK    6  A    between atoms: C_9  and  C_10
REMARK    7  A    between atoms: C_9  and  C_11
REMARK    8  A    between atoms: N_13  and  C_14
REMARK    9  A    between atoms: C_14  and  N_15
REMARK   10  A    between atoms: N_18  and  C_19
REMARK   11  A    between atoms: C_22  and  N_23
REMARK                            x       y       z     vdW  Elec       q    Type
REMARK                         _______ _______ _______ _____ _____    ______ ____
ROOT
ATOM      1  C   UNL     1       4.993   5.516  18.712  0.00  0.00    +0.000 A 
ATOM      2  N   UNL     1       4.381   6.583  18.293  0.00  0.00    +0.000 NA
ATOM      3  N   UNL     1       3.174   6.537  18.966  0.00  0.00    +0.000 N 
ATOM      4  C   UNL     1       3.115   5.389  19.717  0.00  0.00    +0.000 A 
ATOM      5  S   UNL     1       1.920   4.680  20.608  0.00  0.00    +0.000 S 
ATOM      6  O   UNL     1       4.307   4.756  19.595  0.00  0.00    +0.000 OA
ENDROOT
BRANCH   1   7
ATOM      7  C   UNL     1       6.324   4.996  18.252  0.00  0.00    +0.000 C 
ATOM      8  C   UNL     1       7.415   6.014  18.609  0.00  0.00    +0.000 C 
BRANCH   7  12
ATOM      9  C   UNL     1       6.359   4.058  14.004  0.00  0.00    +0.000 A 
ATOM     10  C   UNL     1       7.293   4.944  14.551  0.00  0.00    +0.000 A 
ATOM     11  C   UNL     1       7.294   5.221  15.924  0.00  0.00    +0.000 A 
ATOM     12  C   UNL     1       6.356   4.624  16.780  0.00  0.00    +0.000 A 
ATOM     13  C   UNL     1       5.432   3.729  16.228  0.00  0.00    +0.000 A 
ATOM     14  C   UNL     1       5.435   3.447  14.860  0.00  0.00    +0.000 A 
BRANCH   9  15
ATOM     15  C   UNL     1       6.289   3.800  12.515  0.00  0.00    +0.000 C 
BRANCH  15  17
ATOM     16  C   UNL     1       4.125   3.320  11.255  0.00  0.00    +0.000 C 
ATOM     17  C   UNL     1       5.277   2.727  12.068  0.00  0.00    +0.000 C 
ATOM     18  C   UNL     1       5.994   1.662  11.230  0.00  0.00    +0.000 C 
ENDBRANCH  15  17
ENDBRANCH   9  15
ENDBRANCH   7  12
ENDBRANCH   1   7
BRANCH   3  19
ATOM     19  C   UNL     1       2.064   7.383  18.565  0.00  0.00    +0.000 C 
BRANCH  19  20
ATOM     20  N   UNL     1       1.812   8.516  19.447  0.00  0.00    +0.000 NA
ATOM     21  C   UNL     1       1.296   8.165  20.785  0.00  0.00    +0.000 C 
ATOM     22  C   UNL     1       1.254   9.409  21.728  0.00  0.00    +0.000 C 
ATOM     23  N   UNL     1       0.491  10.487  21.075  0.00  0.00    +0.000 N 
ATOM     24  C   UNL     1       0.990  10.831  19.730  0.00  0.00    +0.000 C 
ATOM     25  C   UNL     1       0.976   9.565  18.848  0.00  0.00    +0.000 C 
BRANCH  23  26
ATOM     26  C   UNL     1      -0.212  11.450  21.773  0.00  0.00    +0.000 A 
ATOM     27  C   UNL     1       0.063  12.821  21.705  0.00  0.00    +0.000 A 
ATOM     28  C   UNL     1      -0.674  13.750  22.459  0.00  0.00    +0.000 A 
ATOM     29  C   UNL     1      -1.694  13.303  23.308  0.00  0.00    +0.000 A 
ATOM     30  C   UNL     1      -1.981  11.942  23.403  0.00  0.00    +0.000 A 
ATOM     31  C   UNL     1      -1.242  11.039  22.640  0.00  0.00    +0.000 A 
BRANCH  29  32
ATOM     32  N   UNL     1      -2.463  14.258  24.114  0.00  0.00    +0.000 N 
ATOM     33  O   UNL     1      -3.448  13.825  24.734  0.00  0.00    +0.000 OA
ATOM     34  O   UNL     1      -2.091  15.441  24.127  0.00  0.00    +0.000 OA
ENDBRANCH  29  32
ENDBRANCH  23  26
ENDBRANCH  19  20
ENDBRANCH   3  19
TORSDOF 8
ENDMDL
MODEL 2
REMARK VINA RESULT:      -8.4      2.024      2.418
REMARK  Name = 
REMARK  11 active torsions:
REMARK  status: ('A' for Active; 'I' for Inactive)
REMARK    1  A    between atoms: C_1  and  C_2
REMARK    2  A    between atoms: C_2  and  C_3
REMARK    3  A    between atoms: C_2  and  C_4
REMARK    4  A    between atoms: C_4  and  C_5
REMARK    5  A    between atoms: C_8  and  C_9
REMARK    6  A    between atoms: C_9  and  C_10
REMARK    7  A    between atoms: C_9  and  C_11
REMARK    8  A    between atoms: N_13  and  C_14
REMARK    9  A    between atoms: C_14  and  N_15
REMARK   10  A    between atoms: N_18  and  C_19
REMARK   11  A    between atoms: C_22  and  N_23
REMARK                            x       y       z     vdW  Elec       q    Type
REMARK                         _______ _______ _______ _____ _____    ______ ____
ROOT
ATOM      1  C   UNL     1       5.527   4.851  18.729  0.00  0.00    +0.000 A 
ATOM      2  N   UNL     1       4.578   5.738  18.775  0.00  0.00    +0.000 NA
ATOM      3  N   UNL     1       3.608   5.121  19.544  0.00  0.00    +0.000 N 
ATOM      4  C   UNL     1       4.023   3.853  19.868  0.00  0.00    +0.000 A 
ATOM      5  S   UNL     1       3.289   2.579  20.617  0.00  0.00    +0.000 S 
ATOM      6  O   UNL     1       5.281   3.696  19.389  0.00  0.00    +0.000 OA
ENDROOT
BRANCH   1   7
ATOM      7  C   UNL     1       6.809   4.937  17.954  0.00  0.00    +0.000 C 
ATOM      8  C   UNL     1       7.431   6.325  18.155  0.00  0.00    +0.000 C 
BRANCH   7  12
ATOM      9  C   UNL     1       6.319   4.086  13.716  0.00  0.00    +0.000 A 
ATOM     10  C   UNL     1       7.389   4.863  14.173  0.00  0.00    +0.000 A 
ATOM     11  C   UNL     1       7.556   5.111  15.542  0.00  0.00    +0.000 A 
ATOM     12  C   UNL     1       6.655   4.594  16.483  0.00  0.00    +0.000 A 
ATOM     13  C   UNL     1       5.594   3.806  16.020  0.00  0.00    +0.000 A 
ATOM     14  C   UNL     1       5.430   3.553  14.656  0.00  0.00    +0.000 A 
BRANCH   9  15
ATOM     15  C   UNL     1       6.073   3.867  12.240  0.00  0.00    +0.000 C 
BRANCH  15  17
ATOM     16  C   UNL     1       3.989   3.172  10.945  0.00  0.00    +0.000 C 
ATOM     17  C   UNL     1       5.109   2.719  11.885  0.00  0.00    +0.000 C 
ATOM     18  C   UNL     1       5.891   1.576  11.228  0.00  0.00    +0.000 C 
ENDBRANCH  15  17
ENDBRANCH   9  15
ENDBRANCH   7  12
ENDBRANCH   1   7
BRANCH   3  19
ATOM     19  C   UNL     1       2.254   5.643  19.597  0.00  0.00    +0.000 C 
BRANCH  19  20
ATOM     20  N   UNL     1       2.165   7.091  19.723  0.00  0.00    +0.000 NA
ATOM     21  C   UNL     1       1.296   7.573  20.816  0.00  0.00    +0.000 C 
ATOM     22  C   UNL     1       1.421   9.117  21.010  0.00  0.00    +0.000 C 
ATOM     23  N   UNL     1       1.165   9.790  19.725  0.00  0.00    +0.000 N 
ATOM     24  C   UNL     1       2.017   9.302  18.624  0.00  0.00    +0.000 C 
ATOM     25  C   UNL     1       1.820   7.779  18.471  0.00  0.00    +0.000 C 
BRANCH  23  26
ATOM     26  C   UNL     1       0.643  11.066  19.626  0.00  0.00    +0.000 A 
ATOM     27  C   UNL     1      -0.236  11.474  18.616  0.00  0.00    +0.000 A 
ATOM     28  C   UNL     1      -0.713  12.795  18.555  0.00  0.00    +0.000 A 
ATOM     29  C   UNL     1      -0.294  13.729  19.510  0.00  0.00    +0.000 A 
ATOM     30  C   UNL     1       0.590  13.352  20.520  0.00  0.00    +0.000 A 
ATOM     31  C   UNL     1       1.045  12.035  20.565  0.00  0.00    +0.000 A 
BRANCH  29  32
ATOM     32  N   UNL     1      -0.770  15.116  19.453  0.00  0.00    +0.000 N 
ATOM     33  O   UNL     1      -1.603  15.474  20.301  0.00  0.00    +0.000 OA
ATOM     34  O   UNL     1      -0.321  15.849  18.559  0.00  0.00    +0.000 OA
ENDBRANCH  29  32
ENDBRANCH  23  26
ENDBRANCH  19  20
ENDBRANCH   3  19
TORSDOF 8
ENDMDL
MODEL 3
REMARK VINA RESULT:      -7.8      1.554      2.094
REMARK  Name = 
REMARK  11 active torsions:
REMARK  status: ('A' for Active; 'I' for Inactive)
REMARK    1  A    between atoms: C_1  and  C_2
REMARK    2  A    between atoms: C_2  and  C_3
REMARK    3  A    between atoms: C_2  and  C_4
REMARK    4  A    between atoms: C_4  and  C_5
REMARK    5  A    between atoms: C_8  and  C_9
REMARK    6  A    between atoms: C_9  and  C_10
REMARK    7  A    between atoms: C_9  and  C_11
REMARK    8  A    between atoms: N_13  and  C_14
REMARK    9  A    between atoms: C_14  and  N_15
REMARK   10  A    between atoms: N_18  and  C_19
REMARK   11  A    between atoms: C_22  and  N_23
REMARK                            x       y       z     vdW  Elec       q    Type
REMARK                         _______ _______ _______ _____ _____    ______ ____
ROOT
ATOM      1  C   UNL     1       4.778   5.772  18.504  0.00  0.00    +0.000 A 
ATOM      2  N   UNL     1       4.185   6.792  17.960  0.00  0.00    +0.000 NA
ATOM      3  N   UNL     1       3.007   6.889  18.677  0.00  0.00    +0.000 N 
ATOM      4  C   UNL     1       2.941   5.864  19.587  0.00  0.00    +0.000 A 
ATOM      5  S   UNL     1       1.763   5.337  20.615  0.00  0.00    +0.000 S 
ATOM      6  O   UNL     1       4.105   5.174  19.513  0.00  0.00    +0.000 OA
ENDROOT
BRANCH   1   7
ATOM      7  C   UNL     1       6.070   5.140  18.074  0.00  0.00    +0.000 C 
ATOM      8  C   UNL     1       7.239   6.034  18.506  0.00  0.00    +0.000 C 
BRANCH   7  12
ATOM      9  C   UNL     1       6.266   4.072  13.861  0.00  0.00    +0.000 A 
ATOM     10  C   UNL     1       5.205   3.639  14.663  0.00  0.00    +0.000 A 
ATOM     11  C   UNL     1       5.133   4.009  16.012  0.00  0.00    +0.000 A 
ATOM     12  C   UNL     1       6.124   4.814  16.592  0.00  0.00    +0.000 A 
ATOM     13  C   UNL     1       7.177   5.255  15.781  0.00  0.00    +0.000 A 
ATOM     14  C   UNL     1       7.246   4.891  14.434  0.00  0.00    +0.000 A 
BRANCH   9  15
ATOM     15  C   UNL     1       6.406   3.626  12.423  0.00  0.00    +0.000 C 
BRANCH  15  17
ATOM     16  C   UNL     1       4.230   3.129  11.191  0.00  0.00    +0.000 C 
ATOM     17  C   UNL     1       5.415   2.541  11.960  0.00  0.00    +0.000 C 
ATOM     18  C   UNL     1       6.142   1.526  11.071  0.00  0.00    +0.000 C 
ENDBRANCH  15  17
ENDBRANCH   9  15
ENDBRANCH   7  12
ENDBRANCH   1   7
BRANCH   3  19
ATOM     19  C   UNL     1       1.910   7.713  18.201  0.00  0.00    +0.000 C 
BRANCH  19  20
ATOM     20  N   UNL     1       1.811   9.022  18.834  0.00  0.00    +0.000 NA
ATOM     21  C   UNL     1       0.794   9.127  19.900  0.00  0.00    +0.000 C 
ATOM     22  C   UNL     1       0.898  10.486  20.660  0.00  0.00    +0.000 C 
ATOM     23  N   UNL     1       0.838  11.591  19.689  0.00  0.00    +0.000 N 
ATOM     24  C   UNL     1       1.840  11.485  18.611  0.00  0.00    +0.000 C 
ATOM     25  C   UNL     1       1.658  10.134  17.886  0.00  0.00    +0.000 C 
BRANCH  23  26
ATOM     26  C   UNL     1       0.344  12.845  19.994  0.00  0.00    +0.000 A 
ATOM     27  C   UNL     1       0.503  13.969  19.174  0.00  0.00    +0.000 A 
ATOM     28  C   UNL     1      -0.002  15.225  19.552  0.00  0.00    +0.000 A 
ATOM     29  C   UNL     1      -0.665  15.367  20.777  0.00  0.00    +0.000 A 
ATOM     30  C   UNL     1      -0.827  14.267  21.618  0.00  0.00    +0.000 A 
ATOM     31  C   UNL     1      -0.324  13.028  21.220  0.00  0.00    +0.000 A 
BRANCH  29  32
ATOM     32  N   UNL     1      -1.185  16.673  21.195  0.00  0.00    +0.000 N 
ATOM     33  O   UNL     1      -1.592  17.440  20.308  0.00  0.00    +0.000 OA
ATOM     34  O   UNL     1      -1.181  16.941  22.406  0.00  0.00    +0.000 OA
ENDBRANCH  29  32
ENDBRANCH  23  26
ENDBRANCH  19  20
ENDBRANCH   3  19
TORSDOF 8
ENDMDL
MODEL 4
REMARK VINA RESULT:      -7.5      4.432     10.650
REMARK  Name = 
REMARK  11 active torsions:
REMARK  status: ('A' for Active; 'I' for Inactive)
REMARK    1  A    between atoms: C_1  and  C_2
REMARK    2  A    between atoms: C_2  and  C_3
REMARK    3  A    between atoms: C_2  and  C_4
REMARK    4  A    between atoms: C_4  and  C_5
REMARK    5  A    between atoms: C_8  and  C_9
REMARK    6  A    between atoms: C_9  and  C_10
REMARK    7  A    between atoms: C_9  and  C_11
REMARK    8  A    between atoms: N_13  and  C_14
REMARK    9  A    between atoms: C_14  and  N_15
REMARK   10  A    between atoms: N_18  and  C_19
REMARK   11  A    between atoms: C_22  and  N_23
REMARK                            x       y       z     vdW  Elec       q    Type
REMARK                         _______ _______ _______ _____ _____    ______ ____
ROOT
ATOM      1  C   UNL     1       0.559  13.469  19.377  0.00  0.00    +0.000 A 
ATOM      2  N   UNL     1       0.905  12.421  20.063  0.00  0.00    +0.000 NA
ATOM      3  N   UNL     1       0.093  11.427  19.549  0.00  0.00    +0.000 N 
ATOM      4  C   UNL     1      -0.747  11.967  18.607  0.00  0.00    +0.000 A 
ATOM      5  S   UNL     1      -2.025  11.366  17.753  0.00  0.00    +0.000 S 
ATOM      6  O   UNL     1      -0.413  13.272  18.457  0.00  0.00    +0.000 OA
ENDROOT
BRANCH   1   7
ATOM      7  C   UNL     1       1.051  14.875  19.561  0.00  0.00    +0.000 C 
ATOM      8  C   UNL     1       0.209  15.824  18.698  0.00  0.00    +0.000 C 
BRANCH   7  12
ATOM      9  C   UNL     1       5.282  15.469  18.738  0.00  0.00    +0.000 A 
ATOM     10  C   UNL     1       4.644  16.174  19.764  0.00  0.00    +0.000 A 
ATOM     11  C   UNL     1       3.288  15.958  20.042  0.00  0.00    +0.000 A 
ATOM     12  C   UNL     1       2.538  15.038  19.296  0.00  0.00    +0.000 A 
ATOM     13  C   UNL     1       3.185  14.326  18.279  0.00  0.00    +0.000 A 
ATOM     14  C   UNL     1       4.539  14.537  18.005  0.00  0.00    +0.000 A 
BRANCH   9  15
ATOM     15  C   UNL     1       6.724  15.738  18.369  0.00  0.00    +0.000 C 
BRANCH  15  17
ATOM     16  C   UNL     1       9.106  14.865  18.112  0.00  0.00    +0.000 C 
ATOM     17  C   UNL     1       7.725  14.623  18.726  0.00  0.00    +0.000 C 
ATOM     18  C   UNL     1       7.859  14.520  20.249  0.00  0.00    +0.000 C 
ENDBRANCH  15  17
ENDBRANCH   9  15
ENDBRANCH   7  12
ENDBRANCH   1   7
BRANCH   3  19
ATOM     19  C   UNL     1      -0.059  10.157  20.237  0.00  0.00    +0.000 C 
BRANCH  19  20
ATOM     20  N   UNL     1       0.690   9.054  19.652  0.00  0.00    +0.000 NA
ATOM     21  C   UNL     1       1.486   8.259  20.608  0.00  0.00    +0.000 C 
ATOM     22  C   UNL     1       2.084   6.984  19.937  0.00  0.00    +0.000 C 
ATOM     23  N   UNL     1       2.842   7.377  18.736  0.00  0.00    +0.000 N 
ATOM     24  C   UNL     1       2.058   8.185  17.783  0.00  0.00    +0.000 C 
ATOM     25  C   UNL     1       1.525   9.440  18.506  0.00  0.00    +0.000 C 
BRANCH  23  26
ATOM     26  C   UNL     1       3.918   6.661  18.248  0.00  0.00    +0.000 A 
ATOM     27  C   UNL     1       4.546   5.621  18.945  0.00  0.00    +0.000 A 
ATOM     28  C   UNL     1       5.654   4.946  18.405  0.00  0.00    +0.000 A 
ATOM     29  C   UNL     1       6.155   5.325  17.153  0.00  0.00    +0.000 A 
ATOM     30  C   UNL     1       5.557   6.365  16.444  0.00  0.00    +0.000 A 
ATOM     31  C   UNL     1       4.454   7.016  16.995  0.00  0.00    +0.000 A 
BRANCH  29  32
ATOM     32  N   UNL     1       7.321   4.642  16.581  0.00  0.00    +0.000 N 
ATOM     33  O   UNL     1       7.388   4.556  15.345  0.00  0.00    +0.000 OA
ATOM     34  O   UNL     1       8.168   4.184  17.362  0.00  0.00    +0.000 OA
ENDBRANCH  29  32
ENDBRANCH  23  26
ENDBRANCH  19  20
ENDBRANCH   3  19
TORSDOF 8
ENDMDL
MODEL 5
REMARK VINA RESULT:      -7.3      5.808      9.290
REMARK  Name = 
REMARK  11 active torsions:
REMARK  status: ('A' for Active; 'I' for Inactive)
REMARK    1  A    between atoms: C_1  and  C_2
REMARK    2  A    between atoms: C_2  and  C_3
REMARK    3  A    between atoms: C_2  and  C_4
REMARK    4  A    between atoms: C_4  and  C_5
REMARK    5  A    between atoms: C_8  and  C_9
REMARK    6  A    between atoms: C_9  and  C_10
REMARK    7  A    between atoms: C_9  and  C_11
REMARK    8  A    between atoms: N_13  and  C_14
REMARK    9  A    between atoms: C_14  and  N_15
REMARK   10  A    between atoms: N_18  and  C_19
REMARK   11  A    between atoms: C_22  and  N_23
REMARK                            x       y       z     vdW  Elec       q    Type
REMARK                         _______ _______ _______ _____ _____    ______ ____
ROOT
ATOM      1  C   UNL     1       0.481  12.174  19.290  0.00  0.00    +0.000 A 
ATOM      2  N   UNL     1       1.233  13.070  18.723  0.00  0.00    +0.000 NA
ATOM      3  N   UNL     1       1.341  14.049  19.692  0.00  0.00    +0.000 N 
ATOM      4  C   UNL     1       0.583  13.698  20.782  0.00  0.00    +0.000 A 
ATOM      5  S   UNL     1       0.173  14.480  22.175  0.00  0.00    +0.000 S 
ATOM      6  O   UNL     1       0.071  12.465  20.546  0.00  0.00    +0.000 OA
ENDROOT
BRANCH   1   7
ATOM      7  C   UNL     1      -0.048  10.913  18.673  0.00  0.00    +0.000 C 
ATOM      8  C   UNL     1      -1.460  10.642  19.207  0.00  0.00    +0.000 C 
BRANCH   7  12
ATOM      9  C   UNL     1       2.479   7.401  19.128  0.00  0.00    +0.000 A 
ATOM     10  C   UNL     1       2.425   8.094  17.914  0.00  0.00    +0.000 A 
ATOM     11  C   UNL     1       1.631   9.240  17.782  0.00  0.00    +0.000 A 
ATOM     12  C   UNL     1       0.867   9.715  18.858  0.00  0.00    +0.000 A 
ATOM     13  C   UNL     1       0.936   9.024  20.074  0.00  0.00    +0.000 A 
ATOM     14  C   UNL     1       1.733   7.885  20.208  0.00  0.00    +0.000 A 
BRANCH   9  15
ATOM     15  C   UNL     1       3.270   6.120  19.274  0.00  0.00    +0.000 C 
BRANCH  15  17
ATOM     16  C   UNL     1       5.104   5.206  17.757  0.00  0.00    +0.000 C 
ATOM     17  C   UNL     1       3.598   5.383  17.961  0.00  0.00    +0.000 C 
ATOM     18  C   UNL     1       2.922   4.007  17.961  0.00  0.00    +0.000 C 
ENDBRANCH  15  17
ENDBRANCH   9  15
ENDBRANCH   7  12
ENDBRANCH   1   7
BRANCH   3  19
ATOM     19  C   UNL     1       1.850  15.370  19.365  0.00  0.00    +0.000 C 
BRANCH  19  20
ATOM     20  N   UNL     1       3.303  15.467  19.317  0.00  0.00    +0.000 NA
ATOM     21  C   UNL     1       3.908  15.157  18.006  0.00  0.00    +0.000 C 
ATOM     22  C   UNL     1       5.434  15.486  17.986  0.00  0.00    +0.000 C 
ATOM     23  N   UNL     1       6.093  14.796  19.109  0.00  0.00    +0.000 N 
ATOM     24  C   UNL     1       5.484  15.088  20.420  0.00  0.00    +0.000 C 
ATOM     25  C   UNL     1       3.988  14.712  20.375  0.00  0.00    +0.000 C 
BRANCH  23  26
ATOM     26  C   UNL     1       7.415  14.394  19.083  0.00  0.00    +0.000 A 
ATOM     27  C   UNL     1       8.069  13.934  17.934  0.00  0.00    +0.000 A 
ATOM     28  C   UNL     1       9.410  13.515  17.977  0.00  0.00    +0.000 A 
ATOM     29  C   UNL     1      10.108  13.542  19.191  0.00  0.00    +0.000 A 
ATOM     30  C   UNL     1       9.477  13.985  20.352  0.00  0.00    +0.000 A 
ATOM     31  C   UNL     1       8.148  14.403  20.285  0.00  0.00    +0.000 A 
BRANCH  29  32
ATOM     32  N   UNL     1      11.503  13.093  19.257  0.00  0.00    +0.000 N 
ATOM     33  O   UNL     1      11.778  12.186  20.059  0.00  0.00    +0.000 OA
ATOM     34  O   UNL     1      12.329  13.649  18.517  0.00  0.00    +0.000 OA
ENDBRANCH  29  32
ENDBRANCH  23  26
ENDBRANCH  19  20
ENDBRANCH   3  19
TORSDOF 8
ENDMDL
MODEL 6
REMARK VINA RESULT:      -7.2      4.294     10.123
REMARK  Name = 
REMARK  11 active torsions:
REMARK  status: ('A' for Active; 'I' for Inactive)
REMARK    1  A    between atoms: C_1  and  C_2
REMARK    2  A    between atoms: C_2  and  C_3
REMARK    3  A    between atoms: C_2  and  C_4
REMARK    4  A    between atoms: C_4  and  C_5
REMARK    5  A    between atoms: C_8  and  C_9
REMARK    6  A    between atoms: C_9  and  C_10
REMARK    7  A    between atoms: C_9  and  C_11
REMARK    8  A    between atoms: N_13  and  C_14
REMARK    9  A    between atoms: C_14  and  N_15
REMARK   10  A    between atoms: N_18  and  C_19
REMARK   11  A    between atoms: C_22  and  N_23
REMARK                            x       y       z     vdW  Elec       q    Type
REMARK                         _______ _______ _______ _____ _____    ______ ____
ROOT
ATOM      1  C   UNL     1       1.185  14.314  20.586  0.00  0.00    +0.000 A 
ATOM      2  N   UNL     1       0.956  13.615  19.515  0.00  0.00    +0.000 NA
ATOM      3  N   UNL     1       0.085  12.637  19.958  0.00  0.00    +0.000 N 
ATOM      4  C   UNL     1      -0.111  12.780  21.309  0.00  0.00    +0.000 A 
ATOM      5  S   UNL     1      -0.895  11.871  22.441  0.00  0.00    +0.000 S 
ATOM      6  O   UNL     1       0.556  13.892  21.706  0.00  0.00    +0.000 OA
ENDROOT
BRANCH   1   7
ATOM      7  C   UNL     1       2.136  15.466  20.729  0.00  0.00    +0.000 C 
ATOM      8  C   UNL     1       1.400  16.773  20.402  0.00  0.00    +0.000 C 
BRANCH   7  12
ATOM      9  C   UNL     1       5.733  14.895  18.350  0.00  0.00    +0.000 A 
ATOM     10  C   UNL     1       4.504  15.170  17.739  0.00  0.00    +0.000 A 
ATOM     11  C   UNL     1       3.355  15.380  18.512  0.00  0.00    +0.000 A 
ATOM     12  C   UNL     1       3.407  15.313  19.912  0.00  0.00    +0.000 A 
ATOM     13  C   UNL     1       4.641  15.051  20.517  0.00  0.00    +0.000 A 
ATOM     14  C   UNL     1       5.789  14.848  19.747  0.00  0.00    +0.000 A 
BRANCH   9  15
ATOM     15  C   UNL     1       6.971  14.591  17.536  0.00  0.00    +0.000 C 
BRANCH  15  17
ATOM     16  C   UNL     1       8.581  12.618  17.654  0.00  0.00    +0.000 C 
ATOM     17  C   UNL     1       8.130  13.927  18.304  0.00  0.00    +0.000 C 
ATOM     18  C   UNL     1       9.319  14.893  18.377  0.00  0.00    +0.000 C 
ENDBRANCH  15  17
ENDBRANCH   9  15
ENDBRANCH   7  12
ENDBRANCH   1   7
BRANCH   3  19
ATOM     19  C   UNL     1      -0.193  11.463  19.149  0.00  0.00    +0.000 C 
BRANCH  19  20
ATOM     20  N   UNL     1       0.793  10.397  19.264  0.00  0.00    +0.000 NA
ATOM     21  C   UNL     1       1.210   9.789  17.985  0.00  0.00    +0.000 C 
ATOM     22  C   UNL     1       2.410   8.810  18.179  0.00  0.00    +0.000 C 
ATOM     23  N   UNL     1       2.064   7.816  19.209  0.00  0.00    +0.000 N 
ATOM     24  C   UNL     1       1.630   8.416  20.485  0.00  0.00    +0.000 C 
ATOM     25  C   UNL     1       0.426   9.344  20.222  0.00  0.00    +0.000 C 
BRANCH  23  26
ATOM     26  C   UNL     1       2.587   6.537  19.238  0.00  0.00    +0.000 A 
ATOM     27  C   UNL     1       3.486   6.039  18.288  0.00  0.00    +0.000 A 
ATOM     28  C   UNL     1       3.963   4.719  18.358  0.00  0.00    +0.000 A 
ATOM     29  C   UNL     1       3.525   3.875  19.386  0.00  0.00    +0.000 A 
ATOM     30  C   UNL     1       2.620   4.342  20.338  0.00  0.00    +0.000 A 
ATOM     31  C   UNL     1       2.165   5.657  20.254  0.00  0.00    +0.000 A 
BRANCH  29  32
ATOM     32  N   UNL     1       4.001   2.489  19.465  0.00  0.00    +0.000 N 
ATOM     33  O   UNL     1       3.419   1.641  18.770  0.00  0.00    +0.000 OA
ATOM     34  O   UNL     1       4.949   2.242  20.225  0.00  0.00    +0.000 OA
ENDBRANCH  29  32
ENDBRANCH  23  26
ENDBRANCH  19  20
ENDBRANCH   3  19
TORSDOF 8
ENDMDL
MODEL 7
REMARK VINA RESULT:      -7.2      1.796      2.325
REMARK  Name = 
REMARK  11 active torsions:
REMARK  status: ('A' for Active; 'I' for Inactive)
REMARK    1  A    between atoms: C_1  and  C_2
REMARK    2  A    between atoms: C_2  and  C_3
REMARK    3  A    between atoms: C_2  and  C_4
REMARK    4  A    between atoms: C_4  and  C_5
REMARK    5  A    between atoms: C_8  and  C_9
REMARK    6  A    between atoms: C_9  and  C_10
REMARK    7  A    between atoms: C_9  and  C_11
REMARK    8  A    between atoms: N_13  and  C_14
REMARK    9  A    between atoms: C_14  and  N_15
REMARK   10  A    between atoms: N_18  and  C_19
REMARK   11  A    between atoms: C_22  and  N_23
REMARK                            x       y       z     vdW  Elec       q    Type
REMARK                         _______ _______ _______ _____ _____    ______ ____
ROOT
ATOM      1  C   UNL     1       4.888   6.087  18.224  0.00  0.00    +0.000 A 
ATOM      2  N   UNL     1       4.084   6.902  17.609  0.00  0.00    +0.000 NA
ATOM      3  N   UNL     1       2.926   6.828  18.359  0.00  0.00    +0.000 N 
ATOM      4  C   UNL     1       3.093   5.909  19.365  0.00  0.00    +0.000 A 
ATOM      5  S   UNL     1       2.071   5.258  20.485  0.00  0.00    +0.000 S 
ATOM      6  O   UNL     1       4.374   5.469  19.312  0.00  0.00    +0.000 OA
ENDROOT
BRANCH   1   7
ATOM      7  C   UNL     1       6.274   5.695  17.805  0.00  0.00    +0.000 C 
ATOM      8  C   UNL     1       7.210   6.902  17.957  0.00  0.00    +0.000 C 
BRANCH   7  12
ATOM      9  C   UNL     1       6.425   4.108  13.757  0.00  0.00    +0.000 A 
ATOM     10  C   UNL     1       7.407   4.991  14.220  0.00  0.00    +0.000 A 
ATOM     11  C   UNL     1       7.368   5.477  15.533  0.00  0.00    +0.000 A 
ATOM     12  C   UNL     1       6.343   5.097  16.411  0.00  0.00    +0.000 A 
ATOM     13  C   UNL     1       5.371   4.204  15.946  0.00  0.00    +0.000 A 
ATOM     14  C   UNL     1       5.412   3.713  14.639  0.00  0.00    +0.000 A 
BRANCH   9  15
ATOM     15  C   UNL     1       6.403   3.628  12.323  0.00  0.00    +0.000 C 
BRANCH  15  17
ATOM     16  C   UNL     1       4.185   3.209  11.136  0.00  0.00    +0.000 C 
ATOM     17  C   UNL     1       5.309   2.600  11.978  0.00  0.00    +0.000 C 
ATOM     18  C   UNL     1       5.930   1.423  11.218  0.00  0.00    +0.000 C 
ENDBRANCH  15  17
ENDBRANCH   9  15
ENDBRANCH   7  12
ENDBRANCH   1   7
BRANCH   3  19
ATOM     19  C   UNL     1       1.672   7.355  17.851  0.00  0.00    +0.000 C 
BRANCH  19  20
ATOM     20  N   UNL     1       1.331   8.687  18.333  0.00  0.00    +0.000 NA
ATOM     21  C   UNL     1       2.113   9.789  17.737  0.00  0.00    +0.000 C 
ATOM     22  C   UNL     1       1.547  11.183  18.149  0.00  0.00    +0.000 C 
ATOM     23  N   UNL     1       1.464  11.259  19.618  0.00  0.00    +0.000 N 
ATOM     24  C   UNL     1       0.699  10.152  20.223  0.00  0.00    +0.000 C 
ATOM     25  C   UNL     1       1.331   8.810  19.798  0.00  0.00    +0.000 C 
BRANCH  23  26
ATOM     26  C   UNL     1       1.564  12.442  20.325  0.00  0.00    +0.000 A 
ATOM     27  C   UNL     1       2.688  13.276  20.297  0.00  0.00    +0.000 A 
ATOM     28  C   UNL     1       2.739  14.456  21.060  0.00  0.00    +0.000 A 
ATOM     29  C   UNL     1       1.656  14.802  21.877  0.00  0.00    +0.000 A 
ATOM     30  C   UNL     1       0.529  13.983  21.932  0.00  0.00    +0.000 A 
ATOM     31  C   UNL     1       0.497  12.821  21.162  0.00  0.00    +0.000 A 
BRANCH  29  32
ATOM     32  N   UNL     1       1.698  16.022  22.691  0.00  0.00    +0.000 N 
ATOM     33  O   UNL     1       0.702  16.286  23.383  0.00  0.00    +0.000 OA
ATOM     34  O   UNL     1       2.721  16.722  22.638  0.00  0.00    +0.000 OA
ENDBRANCH  29  32
ENDBRANCH  23  26
ENDBRANCH  19  20
ENDBRANCH   3  19
TORSDOF 8
ENDMDL
MODEL 8
REMARK VINA RESULT:      -7.2      2.054      2.617
REMARK  Name = 
REMARK  11 active torsions:
REMARK  status: ('A' for Active; 'I' for Inactive)
REMARK    1  A    between atoms: C_1  and  C_2
REMARK    2  A    between atoms: C_2  and  C_3
REMARK    3  A    between atoms: C_2  and  C_4
REMARK    4  A    between atoms: C_4  and  C_5
REMARK    5  A    between atoms: C_8  and  C_9
REMARK    6  A    between atoms: C_9  and  C_10
REMARK    7  A    between atoms: C_9  and  C_11
REMARK    8  A    between atoms: N_13  and  C_14
REMARK    9  A    between atoms: C_14  and  N_15
REMARK   10  A    between atoms: N_18  and  C_19
REMARK   11  A    between atoms: C_22  and  N_23
REMARK                            x       y       z     vdW  Elec       q    Type
REMARK                         _______ _______ _______ _____ _____    ______ ____
ROOT
ATOM      1  C   UNL     1       4.933   5.117  18.438  0.00  0.00    +0.000 A 
ATOM      2  N   UNL     1       4.548   5.524  19.611  0.00  0.00    +0.000 NA
ATOM      3  N   UNL     1       3.197   5.232  19.617  0.00  0.00    +0.000 N 
ATOM      4  C   UNL     1       2.839   4.709  18.399  0.00  0.00    +0.000 A 
ATOM      5  S   UNL     1       1.388   4.305  17.724  0.00  0.00    +0.000 S 
ATOM      6  O   UNL     1       3.966   4.586  17.657  0.00  0.00    +0.000 OA
ENDROOT
BRANCH   1   7
ATOM      7  C   UNL     1       6.299   5.259  17.834  0.00  0.00    +0.000 C 
ATOM      8  C   UNL     1       6.769   6.712  17.979  0.00  0.00    +0.000 C 
BRANCH   7  12
ATOM      9  C   UNL     1       6.448   3.989  13.676  0.00  0.00    +0.000 A 
ATOM     10  C   UNL     1       7.166   5.108  14.111  0.00  0.00    +0.000 A 
ATOM     11  C   UNL     1       7.136   5.495  15.457  0.00  0.00    +0.000 A 
ATOM     12  C   UNL     1       6.382   4.778  16.396  0.00  0.00    +0.000 A 
ATOM     13  C   UNL     1       5.676   3.651  15.957  0.00  0.00    +0.000 A 
ATOM     14  C   UNL     1       5.711   3.260  14.616  0.00  0.00    +0.000 A 
BRANCH   9  15
ATOM     15  C   UNL     1       6.405   3.594  12.217  0.00  0.00    +0.000 C 
BRANCH  15  17
ATOM     16  C   UNL     1       4.191   3.098  11.052  0.00  0.00    +0.000 C 
ATOM     17  C   UNL     1       5.365   2.519  11.845  0.00  0.00    +0.000 C 
ATOM     18  C   UNL     1       6.038   1.416  11.021  0.00  0.00    +0.000 C 
ENDBRANCH  15  17
ENDBRANCH   9  15
ENDBRANCH   7  12
ENDBRANCH   1   7
BRANCH   3  19
ATOM     19  C   UNL     1       2.316   5.794  20.626  0.00  0.00    +0.000 C 
BRANCH  19  20
ATOM     20  N   UNL     1       1.632   7.016  20.223  0.00  0.00    +0.000 NA
ATOM     21  C   UNL     1       2.369   7.858  19.259  0.00  0.00    +0.000 C 
ATOM     22  C   UNL     1       1.485   9.029  18.727  0.00  0.00    +0.000 C 
ATOM     23  N   UNL     1       0.947   9.789  19.869  0.00  0.00    +0.000 N 
ATOM     24  C   UNL     1       0.224   8.952  20.846  0.00  0.00    +0.000 C 
ATOM     25  C   UNL     1       1.166   7.838  21.349  0.00  0.00    +0.000 C 
BRANCH  23  26
ATOM     26  C   UNL     1       0.632  11.133  19.807  0.00  0.00    +0.000 A 
ATOM     27  C   UNL     1       0.819  12.028  20.867  0.00  0.00    +0.000 A 
ATOM     28  C   UNL     1       0.455  13.381  20.751  0.00  0.00    +0.000 A 
ATOM     29  C   UNL     1      -0.118  13.846  19.561  0.00  0.00    +0.000 A 
ATOM     30  C   UNL     1      -0.326  12.973  18.494  0.00  0.00    +0.000 A 
ATOM     31  C   UNL     1       0.049  11.637  18.629  0.00  0.00    +0.000 A 
BRANCH  29  32
ATOM     32  N   UNL     1      -0.518  15.252  19.427  0.00  0.00    +0.000 N 
ATOM     33  O   UNL     1      -0.307  15.809  18.338  0.00  0.00    +0.000 OA
ATOM     34  O   UNL     1      -1.036  15.805  20.409  0.00  0.00    +0.000 OA
ENDBRANCH  29  32
ENDBRANCH  23  26
ENDBRANCH  19  20
ENDBRANCH   3  19
TORSDOF 8
ENDMDL
MODEL 9
REMARK VINA RESULT:      -7.1      4.603     10.804
REMARK  Name = 
REMARK  11 active torsions:
REMARK  status: ('A' for Active; 'I' for Inactive)
REMARK    1  A    between atoms: C_1  and  C_2
REMARK    2  A    between atoms: C_2  and  C_3
REMARK    3  A    between atoms: C_2  and  C_4
REMARK    4  A    between atoms: C_4  and  C_5
REMARK    5  A    between atoms: C_8  and  C_9
REMARK    6  A    between atoms: C_9  and  C_10
REMARK    7  A    between atoms: C_9  and  C_11
REMARK    8  A    between atoms: N_13  and  C_14
REMARK    9  A    between atoms: C_14  and  N_15
REMARK   10  A    between atoms: N_18  and  C_19
REMARK   11  A    between atoms: C_22  and  N_23
REMARK                            x       y       z     vdW  Elec       q    Type
REMARK                         _______ _______ _______ _____ _____    ______ ____
ROOT
ATOM      1  C   UNL     1       0.654  13.587  19.605  0.00  0.00    +0.000 A 
ATOM      2  N   UNL     1       1.073  12.492  20.165  0.00  0.00    +0.000 NA
ATOM      3  N   UNL     1       0.095  11.574  19.831  0.00  0.00    +0.000 N 
ATOM      4  C   UNL     1      -0.899  12.205  19.125  0.00  0.00    +0.000 A 
ATOM      5  S   UNL     1      -2.380  11.722  18.578  0.00  0.00    +0.000 S 
ATOM      6  O   UNL     1      -0.516  13.490  18.933  0.00  0.00    +0.000 OA
ENDROOT
BRANCH   1   7
ATOM      7  C   UNL     1       1.275  14.949  19.704  0.00  0.00    +0.000 C 
ATOM      8  C   UNL     1       0.610  15.885  18.685  0.00  0.00    +0.000 C 
BRANCH   7  12
ATOM      9  C   UNL     1       5.607  15.065  19.322  0.00  0.00    +0.000 A 
ATOM     10  C   UNL     1       4.996  15.103  20.580  0.00  0.00    +0.000 A 
ATOM     11  C   UNL     1       3.602  15.038  20.698  0.00  0.00    +0.000 A 
ATOM     12  C   UNL     1       2.787  14.941  19.561  0.00  0.00    +0.000 A 
ATOM     13  C   UNL     1       3.405  14.890  18.305  0.00  0.00    +0.000 A 
ATOM     14  C   UNL     1       4.796  14.948  18.188  0.00  0.00    +0.000 A 
BRANCH   9  15
ATOM     15  C   UNL     1       7.105  15.209  19.164  0.00  0.00    +0.000 C 
BRANCH  15  17
ATOM     16  C   UNL     1       7.935  17.537  19.794  0.00  0.00    +0.000 C 
ATOM     17  C   UNL     1       7.595  16.577  18.651  0.00  0.00    +0.000 C 
ATOM     18  C   UNL     1       8.833  16.381  17.769  0.00  0.00    +0.000 C 
ENDBRANCH  15  17
ENDBRANCH   9  15
ENDBRANCH   7  12
ENDBRANCH   1   7
BRANCH   3  19
ATOM     19  C   UNL     1       0.015  10.289  20.504  0.00  0.00    +0.000 C 
BRANCH  19  20
ATOM     20  N   UNL     1       0.688   9.197  19.813  0.00  0.00    +0.000 NA
ATOM     21  C   UNL     1       1.523   8.333  20.671  0.00  0.00    +0.000 C 
ATOM     22  C   UNL     1       2.034   7.078  19.897  0.00  0.00    +0.000 C 
ATOM     23  N   UNL     1       2.720   7.511  18.668  0.00  0.00    +0.000 N 
ATOM     24  C   UNL     1       1.898   8.389  17.813  0.00  0.00    +0.000 C 
ATOM     25  C   UNL     1       1.455   9.619  18.633  0.00  0.00    +0.000 C 
BRANCH  23  26
ATOM     26  C   UNL     1       3.738   6.792  18.071  0.00  0.00    +0.000 A 
ATOM     27  C   UNL     1       4.332   7.143  16.852  0.00  0.00    +0.000 A 
ATOM     28  C   UNL     1       5.347   6.355  16.284  0.00  0.00    +0.000 A 
ATOM     29  C   UNL     1       5.769   5.189  16.935  0.00  0.00    +0.000 A 
ATOM     30  C   UNL     1       5.186   4.811  18.143  0.00  0.00    +0.000 A 
ATOM     31  C   UNL     1       4.185   5.611  18.693  0.00  0.00    +0.000 A 
BRANCH  29  32
ATOM     32  N   UNL     1       6.817   4.347  16.348  0.00  0.00    +0.000 N 
ATOM     33  O   UNL     1       6.520   3.671  15.350  0.00  0.00    +0.000 OA
ATOM     34  O   UNL     1       7.935   4.352  16.883  0.00  0.00    +0.000 OA
ENDBRANCH  29  32
ENDBRANCH  23  26
ENDBRANCH  19  20
ENDBRANCH   3  19
TORSDOF 8
ENDMDL
