MODEL 1
REMARK VINA RESULT:      -7.3      0.000      0.000
REMARK  Name = 
REMARK  2 active torsions:
REMARK  status: ('A' for Active; 'I' for Inactive)
REMARK    1  A    between atoms: N_13  and  C_14
REMARK    2  A    between atoms: C_14  and  C_15
REMARK                            x       y       z     vdW  Elec       q    Type
REMARK                         _______ _______ _______ _____ _____    ______ ____
ROOT
ATOM      1  O   UNL     1       1.398   2.607  20.530  0.00  0.00    +0.000 OA
ATOM      2  C   UNL     1       2.488   3.060  20.177  0.00  0.00    +0.000 C 
ATOM      3  C   UNL     1       3.825   2.403  20.530  0.00  0.00    +0.000 C 
ATOM      4  N   UNL     1       4.845   2.656  19.518  0.00  0.00    +0.000 N 
ATOM      5  C   UNL     1       4.925   3.978  19.076  0.00  0.00    +0.000 A 
ATOM      6  N   UNL     1       6.099   4.359  18.566  0.00  0.00    +0.000 NA
ATOM      7  C   UNL     1       6.114   5.581  18.024  0.00  0.00    +0.000 A 
ATOM      8  N   UNL     1       5.095   6.455  17.996  0.00  0.00    +0.000 NA
ATOM      9  C   UNL     1       3.922   6.084  18.548  0.00  0.00    +0.000 A 
ATOM     10  N   UNL     1       2.917   7.036  18.572  0.00  0.00    +0.000 N 
ATOM     11  C   UNL     1       1.928   7.162  19.650  0.00  0.00    +0.000 C 
ATOM     12  C   UNL     1       1.597   8.638  19.995  0.00  0.00    +0.000 C 
ATOM     13  N   UNL     1       1.355   9.526  18.834  0.00  0.00    +0.000 NA
ATOM     14  C   UNL     1       2.546   9.419  17.958  0.00  0.00    +0.000 C 
ATOM     15  C   UNL     1       2.852   7.994  17.459  0.00  0.00    +0.000 C 
ATOM     16  C   UNL     1       3.792   4.798  19.076  0.00  0.00    +0.000 A 
ATOM     17  N   UNL     1       2.569   4.265  19.530  0.00  0.00    +0.000 N 
ATOM     18  H   UNL     1       5.771   2.270  19.657  0.00  0.00    +0.000 HD
ATOM     19  H   UNL     1       1.705   4.737  19.315  0.00  0.00    +0.000 HD
ENDROOT
BRANCH  13  20
ATOM     20  C   UNL     1       0.102   9.148  18.153  0.00  0.00    +0.000 C 
BRANCH  20  21
ATOM     21  C   UNL     1      -1.044  10.119  18.334  0.00  0.00    +0.000 A 
ATOM     22  C   UNL     1      -2.194  10.011  17.533  0.00  0.00    +0.000 A 
ATOM     23  C   UNL     1      -3.274  10.875  17.721  0.00  0.00    +0.000 A 
ATOM     24  C   UNL     1      -3.219  11.853  18.711  0.00  0.00    +0.000 A 
ATOM     25  C   UNL     1      -2.081  11.973  19.509  0.00  0.00    +0.000 A 
ATOM     26  C   UNL     1      -0.998  11.112  19.321  0.00  0.00    +0.000 A 
ENDBRANCH  20  21
ENDBRANCH  13  20
TORSDOF 2
ENDMDL
MODEL 2
REMARK VINA RESULT:      -7.2      3.969      7.984
REMARK  Name = 
REMARK  2 active torsions:
REMARK  status: ('A' for Active; 'I' for Inactive)
REMARK    1  A    between atoms: N_13  and  C_14
REMARK    2  A    between atoms: C_14  and  C_15
REMARK                            x       y       z     vdW  Elec       q    Type
REMARK                         _______ _______ _______ _____ _____    ______ ____
ROOT
ATOM      1  O   UNL     1       1.719   9.273  18.241  0.00  0.00    +0.000 OA
ATOM      2  C   UNL     1       1.949   8.269  18.918  0.00  0.00    +0.000 C 
ATOM      3  C   UNL     1       1.668   8.188  20.421  0.00  0.00    +0.000 C 
ATOM      4  N   UNL     1       1.358   6.827  20.848  0.00  0.00    +0.000 N 
ATOM      5  C   UNL     1       2.207   5.841  20.342  0.00  0.00    +0.000 A 
ATOM      6  N   UNL     1       2.292   4.714  21.054  0.00  0.00    +0.000 NA
ATOM      7  C   UNL     1       2.999   3.733  20.485  0.00  0.00    +0.000 A 
ATOM      8  N   UNL     1       3.656   3.797  19.316  0.00  0.00    +0.000 NA
ATOM      9  C   UNL     1       3.603   4.949  18.617  0.00  0.00    +0.000 A 
ATOM     10  N   UNL     1       4.354   5.007  17.456  0.00  0.00    +0.000 N 
ATOM     11  C   UNL     1       5.016   6.222  16.963  0.00  0.00    +0.000 C 
ATOM     12  C   UNL     1       6.413   5.942  16.350  0.00  0.00    +0.000 C 
ATOM     13  N   UNL     1       6.484   4.788  15.425  0.00  0.00    +0.000 NA
ATOM     14  C   UNL     1       5.961   3.614  16.164  0.00  0.00    +0.000 C 
ATOM     15  C   UNL     1       4.519   3.769  16.681  0.00  0.00    +0.000 C 
ATOM     16  C   UNL     1       2.830   6.006  19.100  0.00  0.00    +0.000 A 
ATOM     17  N   UNL     1       2.585   7.186  18.371  0.00  0.00    +0.000 N 
ATOM     18  H   UNL     1       1.162   6.661  21.828  0.00  0.00    +0.000 HD
ATOM     19  H   UNL     1       2.813   7.226  17.390  0.00  0.00    +0.000 HD
ENDROOT
BRANCH  13  20
ATOM     20  C   UNL     1       5.729   5.075  14.190  0.00  0.00    +0.000 C 
BRANCH  20  21
ATOM     21  C   UNL     1       5.852   4.028  13.104  0.00  0.00    +0.000 A 
ATOM     22  C   UNL     1       4.699   3.474  12.522  0.00  0.00    +0.000 A 
ATOM     23  C   UNL     1       4.803   2.539  11.492  0.00  0.00    +0.000 A 
ATOM     24  C   UNL     1       6.057   2.151  11.028  0.00  0.00    +0.000 A 
ATOM     25  C   UNL     1       7.209   2.689  11.601  0.00  0.00    +0.000 A 
ATOM     26  C   UNL     1       7.108   3.622  12.634  0.00  0.00    +0.000 A 
ENDBRANCH  20  21
ENDBRANCH  13  20
TORSDOF 2
ENDMDL
MODEL 3
REMARK VINA RESULT:      -7.2      4.007      8.087
REMARK  Name = 
REMARK  2 active torsions:
REMARK  status: ('A' for Active; 'I' for Inactive)
REMARK    1  A    between atoms: N_13  and  C_14
REMARK    2  A    between atoms: C_14  and  C_15
REMARK                            x       y       z     vdW  Elec       q    Type
REMARK                         _______ _______ _______ _____ _____    ______ ____
ROOT
ATOM      1  O   UNL     1       1.958   9.081  18.303  0.00  0.00    +0.000 OA
ATOM      2  C   UNL     1       2.161   8.040  18.929  0.00  0.00    +0.000 C 
ATOM      3  C   UNL     1       1.853   7.884  20.422  0.00  0.00    +0.000 C 
ATOM      4  N   UNL     1       1.517   6.508  20.771  0.00  0.00    +0.000 N 
ATOM      5  C   UNL     1       2.361   5.537  20.229  0.00  0.00    +0.000 A 
ATOM      6  N   UNL     1       2.418   4.373  20.882  0.00  0.00    +0.000 NA
ATOM      7  C   UNL     1       3.121   3.413  20.274  0.00  0.00    +0.000 A 
ATOM      8  N   UNL     1       3.799   3.528  19.121  0.00  0.00    +0.000 NA
ATOM      9  C   UNL     1       3.774   4.716  18.482  0.00  0.00    +0.000 A 
ATOM     10  N   UNL     1       4.546   4.823  17.339  0.00  0.00    +0.000 N 
ATOM     11  C   UNL     1       5.233   6.052  16.921  0.00  0.00    +0.000 C 
ATOM     12  C   UNL     1       6.637   5.784  16.318  0.00  0.00    +0.000 C 
ATOM     13  N   UNL     1       6.708   4.679  15.335  0.00  0.00    +0.000 NA
ATOM     14  C   UNL     1       6.156   3.475  16.003  0.00  0.00    +0.000 C 
ATOM     15  C   UNL     1       4.707   3.625  16.503  0.00  0.00    +0.000 C 
ATOM     16  C   UNL     1       3.008   5.757  19.008  0.00  0.00    +0.000 A 
ATOM     17  N   UNL     1       2.792   6.978  18.337  0.00  0.00    +0.000 N 
ATOM     18  H   UNL     1       1.302   6.293  21.738  0.00  0.00    +0.000 HD
ATOM     19  H   UNL     1       3.037   7.065  17.364  0.00  0.00    +0.000 HD
ENDROOT
BRANCH  13  20
ATOM     20  C   UNL     1       5.978   5.041  14.104  0.00  0.00    +0.000 C 
BRANCH  20  21
ATOM     21  C   UNL     1       6.032   4.009  12.999  0.00  0.00    +0.000 A 
ATOM     22  C   UNL     1       7.269   3.599  12.474  0.00  0.00    +0.000 A 
ATOM     23  C   UNL     1       7.331   2.618  11.484  0.00  0.00    +0.000 A 
ATOM     24  C   UNL     1       6.160   2.031  11.011  0.00  0.00    +0.000 A 
ATOM     25  C   UNL     1       4.925   2.432  11.521  0.00  0.00    +0.000 A 
ATOM     26  C   UNL     1       4.860   3.417  12.509  0.00  0.00    +0.000 A 
ENDBRANCH  20  21
ENDBRANCH  13  20
TORSDOF 2
ENDMDL
MODEL 4
REMARK VINA RESULT:      -7.2      2.602      7.828
REMARK  Name = 
REMARK  2 active torsions:
REMARK  status: ('A' for Active; 'I' for Inactive)
REMARK    1  A    between atoms: N_13  and  C_14
REMARK    2  A    between atoms: C_14  and  C_15
REMARK                            x       y       z     vdW  Elec       q    Type
REMARK                         _______ _______ _______ _____ _____    ______ ____
ROOT
ATOM      1  O   UNL     1       0.639   9.369  24.346  0.00  0.00    +0.000 OA
ATOM      2  C   UNL     1       0.233   9.731  23.240  0.00  0.00    +0.000 C 
ATOM      3  C   UNL     1      -1.009  10.606  23.047  0.00  0.00    +0.000 C 
ATOM      4  N   UNL     1      -0.914  11.437  21.852  0.00  0.00    +0.000 N 
ATOM      5  C   UNL     1      -0.462  10.778  20.707  0.00  0.00    +0.000 A 
ATOM      6  N   UNL     1      -0.819  11.314  19.537  0.00  0.00    +0.000 NA
ATOM      7  C   UNL     1      -0.265  10.750  18.460  0.00  0.00    +0.000 A 
ATOM      8  N   UNL     1       0.556   9.688  18.447  0.00  0.00    +0.000 NA
ATOM      9  C   UNL     1       0.884   9.121  19.627  0.00  0.00    +0.000 A 
ATOM     10  N   UNL     1       1.668   7.982  19.573  0.00  0.00    +0.000 N 
ATOM     11  C   UNL     1       1.557   6.861  20.515  0.00  0.00    +0.000 C 
ATOM     12  C   UNL     1       1.729   5.479  19.830  0.00  0.00    +0.000 C 
ATOM     13  N   UNL     1       2.862   5.373  18.882  0.00  0.00    +0.000 NA
ATOM     14  C   UNL     1       2.693   6.462  17.890  0.00  0.00    +0.000 C 
ATOM     15  C   UNL     1       2.658   7.880  18.491  0.00  0.00    +0.000 C 
ATOM     16  C   UNL     1       0.408   9.686  20.811  0.00  0.00    +0.000 A 
ATOM     17  N   UNL     1       0.818   9.266  22.092  0.00  0.00    +0.000 N 
ATOM     18  H   UNL     1      -1.688  12.052  21.627  0.00  0.00    +0.000 HD
ATOM     19  H   UNL     1       1.617   8.660  22.189  0.00  0.00    +0.000 HD
ENDROOT
BRANCH  13  20
ATOM     20  C   UNL     1       4.144   5.447  19.608  0.00  0.00    +0.000 C 
BRANCH  20  21
ATOM     21  C   UNL     1       5.370   5.129  18.779  0.00  0.00    +0.000 A 
ATOM     22  C   UNL     1       5.239   4.446  17.558  0.00  0.00    +0.000 A 
ATOM     23  C   UNL     1       6.358   4.185  16.766  0.00  0.00    +0.000 A 
ATOM     24  C   UNL     1       7.619   4.606  17.183  0.00  0.00    +0.000 A 
ATOM     25  C   UNL     1       7.762   5.281  18.395  0.00  0.00    +0.000 A 
ATOM     26  C   UNL     1       6.644   5.540  19.190  0.00  0.00    +0.000 A 
ENDBRANCH  20  21
ENDBRANCH  13  20
TORSDOF 2
ENDMDL
MODEL 5
REMARK VINA RESULT:      -7.1      0.360      1.047
REMARK  Name = 
REMARK  2 active torsions:
REMARK  status: ('A' for Active; 'I' for Inactive)
REMARK    1  A    between atoms: N_13  and  C_14
REMARK    2  A    between atoms: C_14  and  C_15
REMARK                            x       y       z     vdW  Elec       q    Type
REMARK                         _______ _______ _______ _____ _____    ______ ____
ROOT
ATOM      1  O   UNL     1       1.470   2.704  20.745  0.00  0.00    +0.000 OA
ATOM      2  C   UNL     1       2.513   3.155  20.268  0.00  0.00    +0.000 C 
ATOM      3  C   UNL     1       3.880   2.492  20.462  0.00  0.00    +0.000 C 
ATOM      4  N   UNL     1       4.776   2.743  19.338  0.00  0.00    +0.000 N 
ATOM      5  C   UNL     1       4.809   4.065  18.891  0.00  0.00    +0.000 A 
ATOM      6  N   UNL     1       5.917   4.444  18.247  0.00  0.00    +0.000 NA
ATOM      7  C   UNL     1       5.872   5.666  17.709  0.00  0.00    +0.000 A 
ATOM      8  N   UNL     1       4.860   6.543  17.800  0.00  0.00    +0.000 NA
ATOM      9  C   UNL     1       3.758   6.176  18.485  0.00  0.00    +0.000 A 
ATOM     10  N   UNL     1       2.766   7.131  18.626  0.00  0.00    +0.000 N 
ATOM     11  C   UNL     1       1.910   7.259  19.812  0.00  0.00    +0.000 C 
ATOM     12  C   UNL     1       1.626   8.736  20.195  0.00  0.00    +0.000 C 
ATOM     13  N   UNL     1       1.254   9.625  19.071  0.00  0.00    +0.000 NA
ATOM     14  C   UNL     1       2.335   9.516  18.062  0.00  0.00    +0.000 C 
ATOM     15  C   UNL     1       2.575   8.090  17.530  0.00  0.00    +0.000 C 
ATOM     16  C   UNL     1       3.686   4.889  19.023  0.00  0.00    +0.000 A 
ATOM     17  N   UNL     1       2.523   4.360  19.616  0.00  0.00    +0.000 N 
ATOM     18  H   UNL     1       5.711   2.354  19.368  0.00  0.00    +0.000 HD
ATOM     19  H   UNL     1       1.641   4.835  19.504  0.00  0.00    +0.000 HD
ENDROOT
BRANCH  13  20
ATOM     20  C   UNL     1      -0.071   9.252  18.540  0.00  0.00    +0.000 C 
BRANCH  20  21
ATOM     21  C   UNL     1      -1.170  10.262  18.790  0.00  0.00    +0.000 A 
ATOM     22  C   UNL     1      -1.052  11.191  19.838  0.00  0.00    +0.000 A 
ATOM     23  C   UNL     1      -2.040  12.153  20.049  0.00  0.00    +0.000 A 
ATOM     24  C   UNL     1      -3.154  12.202  19.215  0.00  0.00    +0.000 A 
ATOM     25  C   UNL     1      -3.285  11.283  18.174  0.00  0.00    +0.000 A 
ATOM     26  C   UNL     1      -2.300  10.317  17.962  0.00  0.00    +0.000 A 
ENDBRANCH  20  21
ENDBRANCH  13  20
TORSDOF 2
ENDMDL
MODEL 6
REMARK VINA RESULT:      -7.0      2.587      3.679
REMARK  Name = 
REMARK  2 active torsions:
REMARK  status: ('A' for Active; 'I' for Inactive)
REMARK    1  A    between atoms: N_13  and  C_14
REMARK    2  A    between atoms: C_14  and  C_15
REMARK                            x       y       z     vdW  Elec       q    Type
REMARK                         _______ _______ _______ _____ _____    ______ ____
ROOT
ATOM      1  O   UNL     1       5.881   6.490  15.975  0.00  0.00    +0.000 OA
ATOM      2  C   UNL     1       5.182   5.852  16.764  0.00  0.00    +0.000 C 
ATOM      3  C   UNL     1       5.083   4.324  16.753  0.00  0.00    +0.000 C 
ATOM      4  N   UNL     1       4.809   3.783  18.080  0.00  0.00    +0.000 N 
ATOM      5  C   UNL     1       3.807   4.443  18.794  0.00  0.00    +0.000 A 
ATOM      6  N   UNL     1       3.189   3.731  19.740  0.00  0.00    +0.000 NA
ATOM      7  C   UNL     1       2.333   4.419  20.501  0.00  0.00    +0.000 A 
ATOM      8  N   UNL     1       2.009   5.715  20.369  0.00  0.00    +0.000 NA
ATOM      9  C   UNL     1       2.603   6.423  19.386  0.00  0.00    +0.000 A 
ATOM     10  N   UNL     1       2.189   7.734  19.227  0.00  0.00    +0.000 N 
ATOM     11  C   UNL     1       2.106   8.420  17.932  0.00  0.00    +0.000 C 
ATOM     12  C   UNL     1       0.866   9.346  17.817  0.00  0.00    +0.000 C 
ATOM     13  N   UNL     1       0.610  10.216  18.988  0.00  0.00    +0.000 NA
ATOM     14  C   UNL     1       0.526   9.327  20.172  0.00  0.00    +0.000 C 
ATOM     15  C   UNL     1       1.785   8.478  20.429  0.00  0.00    +0.000 C 
ATOM     16  C   UNL     1       3.564   5.805  18.585  0.00  0.00    +0.000 A 
ATOM     17  N   UNL     1       4.350   6.497  17.641  0.00  0.00    +0.000 N 
ATOM     18  H   UNL     1       4.718   2.779  18.184  0.00  0.00    +0.000 HD
ATOM     19  H   UNL     1       4.369   7.504  17.647  0.00  0.00    +0.000 HD
ENDROOT
BRANCH  13  20
ATOM     20  C   UNL     1       1.667  11.237  19.108  0.00  0.00    +0.000 C 
BRANCH  20  21
ATOM     21  C   UNL     1       1.191  12.670  18.999  0.00  0.00    +0.000 A 
ATOM     22  C   UNL     1      -0.144  12.995  19.293  0.00  0.00    +0.000 A 
ATOM     23  C   UNL     1      -0.582  14.318  19.237  0.00  0.00    +0.000 A 
ATOM     24  C   UNL     1       0.308  15.332  18.891  0.00  0.00    +0.000 A 
ATOM     25  C   UNL     1       1.634  15.022  18.592  0.00  0.00    +0.000 A 
ATOM     26  C   UNL     1       2.074  13.698  18.645  0.00  0.00    +0.000 A 
ENDBRANCH  20  21
ENDBRANCH  13  20
TORSDOF 2
ENDMDL
MODEL 7
REMARK VINA RESULT:      -7.0      3.017      7.851
REMARK  Name = 
REMARK  2 active torsions:
REMARK  status: ('A' for Active; 'I' for Inactive)
REMARK    1  A    between atoms: N_13  and  C_14
REMARK    2  A    between atoms: C_14  and  C_15
REMARK                            x       y       z     vdW  Elec       q    Type
REMARK                         _______ _______ _______ _____ _____    ______ ____
ROOT
ATOM      1  O   UNL     1      -2.095  11.364  17.870  0.00  0.00    +0.000 OA
ATOM      2  C   UNL     1      -1.588  11.280  18.990  0.00  0.00    +0.000 C 
ATOM      3  C   UNL     1      -1.689  12.388  20.042  0.00  0.00    +0.000 C 
ATOM      4  N   UNL     1      -1.655  11.859  21.401  0.00  0.00    +0.000 N 
ATOM      5  C   UNL     1      -0.672  10.896  21.637  0.00  0.00    +0.000 A 
ATOM      6  N   UNL     1      -0.274  10.756  22.904  0.00  0.00    +0.000 NA
ATOM      7  C   UNL     1       0.563   9.739  23.129  0.00  0.00    +0.000 A 
ATOM      8  N   UNL     1       1.067   8.901  22.209  0.00  0.00    +0.000 NA
ATOM      9  C   UNL     1       0.698   9.069  20.923  0.00  0.00    +0.000 A 
ATOM     10  N   UNL     1       1.295   8.239  19.991  0.00  0.00    +0.000 N 
ATOM     11  C   UNL     1       1.628   8.646  18.619  0.00  0.00    +0.000 C 
ATOM     12  C   UNL     1       2.982   8.068  18.130  0.00  0.00    +0.000 C 
ATOM     13  N   UNL     1       3.202   6.631  18.413  0.00  0.00    +0.000 NA
ATOM     14  C   UNL     1       3.022   6.450  19.873  0.00  0.00    +0.000 C 
ATOM     15  C   UNL     1       1.640   6.873  20.408  0.00  0.00    +0.000 C 
ATOM     16  C   UNL     1      -0.229  10.063  20.603  0.00  0.00    +0.000 A 
ATOM     17  N   UNL     1      -0.795  10.214  19.322  0.00  0.00    +0.000 N 
ATOM     18  H   UNL     1      -1.709  12.510  22.176  0.00  0.00    +0.000 HD
ATOM     19  H   UNL     1      -0.683   9.485  18.635  0.00  0.00    +0.000 HD
ENDROOT
BRANCH  13  20
ATOM     20  C   UNL     1       2.280   5.805  17.610  0.00  0.00    +0.000 C 
BRANCH  20  21
ATOM     21  C   UNL     1       2.371   4.315  17.861  0.00  0.00    +0.000 A 
ATOM     22  C   UNL     1       3.558   3.621  17.575  0.00  0.00    +0.000 A 
ATOM     23  C   UNL     1       3.666   2.256  17.842  0.00  0.00    +0.000 A 
ATOM     24  C   UNL     1       2.591   1.570  18.401  0.00  0.00    +0.000 A 
ATOM     25  C   UNL     1       1.405   2.246  18.685  0.00  0.00    +0.000 A 
ATOM     26  C   UNL     1       1.294   3.612  18.416  0.00  0.00    +0.000 A 
ENDBRANCH  20  21
ENDBRANCH  13  20
TORSDOF 2
ENDMDL
MODEL 8
REMARK VINA RESULT:      -6.9      0.941      1.031
REMARK  Name = 
REMARK  2 active torsions:
REMARK  status: ('A' for Active; 'I' for Inactive)
REMARK    1  A    between atoms: N_13  and  C_14
REMARK    2  A    between atoms: C_14  and  C_15
REMARK                            x       y       z     vdW  Elec       q    Type
REMARK                         _______ _______ _______ _____ _____    ______ ____
ROOT
ATOM      1  O   UNL     1       1.864   2.700  21.008  0.00  0.00    +0.000 OA
ATOM      2  C   UNL     1       2.715   3.227  20.289  0.00  0.00    +0.000 C 
ATOM      3  C   UNL     1       4.104   2.626  20.053  0.00  0.00    +0.000 C 
ATOM      4  N   UNL     1       4.638   2.981  18.742  0.00  0.00    +0.000 N 
ATOM      5  C   UNL     1       4.499   4.324  18.390  0.00  0.00    +0.000 A 
ATOM      6  N   UNL     1       5.367   4.792  17.489  0.00  0.00    +0.000 NA
ATOM      7  C   UNL     1       5.132   6.036  17.064  0.00  0.00    +0.000 A 
ATOM      8  N   UNL     1       4.156   6.855  17.489  0.00  0.00    +0.000 NA
ATOM      9  C   UNL     1       3.304   6.397  18.429  0.00  0.00    +0.000 A 
ATOM     10  N   UNL     1       2.360   7.291  18.902  0.00  0.00    +0.000 N 
ATOM     11  C   UNL     1       1.867   7.313  20.285  0.00  0.00    +0.000 C 
ATOM     12  C   UNL     1       1.652   8.752  20.825  0.00  0.00    +0.000 C 
ATOM     13  N   UNL     1       0.948   9.679  19.909  0.00  0.00    +0.000 NA
ATOM     14  C   UNL     1       1.705   9.677  18.634  0.00  0.00    +0.000 C 
ATOM     15  C   UNL     1       1.835   8.296  17.966  0.00  0.00    +0.000 C 
ATOM     16  C   UNL     1       3.431   5.082  18.882  0.00  0.00    +0.000 A 
ATOM     17  N   UNL     1       2.500   4.463  19.740  0.00  0.00    +0.000 N 
ATOM     18  H   UNL     1       5.557   2.639  18.486  0.00  0.00    +0.000 HD
ATOM     19  H   UNL     1       1.606   4.898  19.908  0.00  0.00    +0.000 HD
ENDROOT
BRANCH  13  20
ATOM     20  C   UNL     1      -0.459   9.266  19.746  0.00  0.00    +0.000 C 
BRANCH  20  21
ATOM     21  C   UNL     1      -1.269  10.114  18.788  0.00  0.00    +0.000 A 
ATOM     22  C   UNL     1      -1.553   9.644  17.495  0.00  0.00    +0.000 A 
ATOM     23  C   UNL     1      -2.335  10.399  16.621  0.00  0.00    +0.000 A 
ATOM     24  C   UNL     1      -2.844  11.630  17.028  0.00  0.00    +0.000 A 
ATOM     25  C   UNL     1      -2.564  12.110  18.307  0.00  0.00    +0.000 A 
ATOM     26  C   UNL     1      -1.780  11.357  19.183  0.00  0.00    +0.000 A 
ENDBRANCH  20  21
ENDBRANCH  13  20
TORSDOF 2
ENDMDL
MODEL 9
REMARK VINA RESULT:      -6.8      1.051      1.442
REMARK  Name = 
REMARK  2 active torsions:
REMARK  status: ('A' for Active; 'I' for Inactive)
REMARK    1  A    between atoms: N_13  and  C_14
REMARK    2  A    between atoms: C_14  and  C_15
REMARK                            x       y       z     vdW  Elec       q    Type
REMARK                         _______ _______ _______ _____ _____    ______ ____
ROOT
ATOM      1  O   UNL     1       2.198   2.861  20.872  0.00  0.00    +0.000 OA
ATOM      2  C   UNL     1       2.992   3.422  20.115  0.00  0.00    +0.000 C 
ATOM      3  C   UNL     1       4.391   2.878  19.811  0.00  0.00    +0.000 C 
ATOM      4  N   UNL     1       4.848   3.253  18.478  0.00  0.00    +0.000 N 
ATOM      5  C   UNL     1       4.637   4.590  18.134  0.00  0.00    +0.000 A 
ATOM      6  N   UNL     1       5.443   5.092  17.194  0.00  0.00    +0.000 NA
ATOM      7  C   UNL     1       5.137   6.325  16.782  0.00  0.00    +0.000 A 
ATOM      8  N   UNL     1       4.150   7.104  17.254  0.00  0.00    +0.000 NA
ATOM      9  C   UNL     1       3.363   6.612  18.233  0.00  0.00    +0.000 A 
ATOM     10  N   UNL     1       2.406   7.468  18.751  0.00  0.00    +0.000 N 
ATOM     11  C   UNL     1       1.979   7.471  20.156  0.00  0.00    +0.000 C 
ATOM     12  C   UNL     1       1.732   8.900  20.708  0.00  0.00    +0.000 C 
ATOM     13  N   UNL     1       0.949   9.797  19.827  0.00  0.00    +0.000 NA
ATOM     14  C   UNL     1       1.644   9.825  18.518  0.00  0.00    +0.000 C 
ATOM     15  C   UNL     1       1.798   8.450  17.842  0.00  0.00    +0.000 C 
ATOM     16  C   UNL     1       3.564   5.304  18.677  0.00  0.00    +0.000 A 
ATOM     17  N   UNL     1       2.700   4.649  19.578  0.00  0.00    +0.000 N 
ATOM     18  H   UNL     1       5.767   2.949  18.178  0.00  0.00    +0.000 HD
ATOM     19  H   UNL     1       1.799   5.047  19.788  0.00  0.00    +0.000 HD
ENDROOT
BRANCH  13  20
ATOM     20  C   UNL     1      -0.447   9.327  19.730  0.00  0.00    +0.000 C 
BRANCH  20  21
ATOM     21  C   UNL     1      -1.319  10.103  18.766  0.00  0.00    +0.000 A 
ATOM     22  C   UNL     1      -1.827  11.362  19.128  0.00  0.00    +0.000 A 
ATOM     23  C   UNL     1      -2.596  12.102  18.230  0.00  0.00    +0.000 A 
ATOM     24  C   UNL     1      -2.863  11.597  16.960  0.00  0.00    +0.000 A 
ATOM     25  C   UNL     1      -2.369  10.346  16.590  0.00  0.00    +0.000 A 
ATOM     26  C   UNL     1      -1.601   9.602  17.488  0.00  0.00    +0.000 A 
ENDBRANCH  20  21
ENDBRANCH  13  20
TORSDOF 2
ENDMDL
