MODEL 1
REMARK VINA RESULT:      -7.1      0.000      0.000
REMARK  Name = 
REMARK  8 active torsions:
REMARK  status: ('A' for Active; 'I' for Inactive)
REMARK    1  A    between atoms: C_1  and  O_2
REMARK    2  A    between atoms: O_2  and  C_3
REMARK    3  A    between atoms: C_3  and  C_5
REMARK    4  A    between atoms: C_5  and  S_6
REMARK    5  A    between atoms: S_6  and  C_7
REMARK    6  A    between atoms: C_8  and  C_9
REMARK    7  A    between atoms: C_12  and  N_13
REMARK    8  A    between atoms: C_25  and  C_26
REMARK                            x       y       z     vdW  Elec       q    Type
REMARK                         _______ _______ _______ _____ _____    ______ ____
ROOT
ATOM      1  C   UNL     1       1.841   7.356  19.058  0.00  0.00    +0.000 A 
ATOM      2  C   UNL     1       2.261   8.445  18.250  0.00  0.00    +0.000 A 
ATOM      3  N   UNL     1       3.213   8.295  17.296  0.00  0.00    +0.000 NA
ATOM      4  C   UNL     1       3.780   7.106  17.090  0.00  0.00    +0.000 A 
ATOM      5  C   UNL     1       4.733   7.044  16.082  0.00  0.00    +0.000 A 
ATOM      6  C   UNL     1       5.405   5.865  15.760  0.00  0.00    +0.000 A 
ATOM      7  C   UNL     1       5.096   4.706  16.445  0.00  0.00    +0.000 A 
ATOM      8  C   UNL     1       4.114   4.747  17.438  0.00  0.00    +0.000 A 
ATOM      9  C   UNL     1       3.450   5.949  17.832  0.00  0.00    +0.000 A 
ATOM     10  C   UNL     1       2.461   6.068  18.883  0.00  0.00    +0.000 A 
ENDROOT
BRANCH   2  11
ATOM     11  C   UNL     1       1.662   9.816  18.250  0.00  0.00    +0.000 A 
ATOM     12  C   UNL     1       2.436  10.992  18.263  0.00  0.00    +0.000 A 
ATOM     13  C   UNL     1       1.876  12.243  18.558  0.00  0.00    +0.000 A 
ATOM     14  C   UNL     1       0.493  12.353  18.715  0.00  0.00    +0.000 A 
ATOM     15  C   UNL     1      -0.324  11.233  18.554  0.00  0.00    +0.000 A 
ATOM     16  C   UNL     1       0.262   9.978  18.329  0.00  0.00    +0.000 A 
BRANCH  14  17
ATOM     17  N   UNL     1      -0.088  13.652  19.081  0.00  0.00    +0.000 N 
ATOM     18  O   UNL     1      -1.230  13.666  19.552  0.00  0.00    +0.000 OA
ATOM     19  O   UNL     1       0.609  14.664  18.887  0.00  0.00    +0.000 OA
ENDBRANCH  14  17
ENDBRANCH   2  11
BRANCH  10  20
ATOM     20  C   UNL     1       2.120   4.866  19.745  0.00  0.00    +0.000 A 
ATOM     21  C   UNL     1       1.234   3.860  19.303  0.00  0.00    +0.000 A 
ATOM     22  C   UNL     1       0.821   2.807  20.137  0.00  0.00    +0.000 A 
ATOM     23  C   UNL     1       1.382   2.654  21.397  0.00  0.00    +0.000 A 
ATOM     24  C   UNL     1       2.321   3.574  21.836  0.00  0.00    +0.000 A 
ATOM     25  C   UNL     1       2.630   4.689  21.043  0.00  0.00    +0.000 A 
ENDBRANCH  10  20
BRANCH   1  26
ATOM     26  S   UNL     1       0.517   7.599  20.287  0.00  0.00    +0.000 S 
BRANCH  26  27
ATOM     27  C   UNL     1       1.467   8.473  21.588  0.00  0.00    +0.000 C 
BRANCH  27  28
ATOM     28  C   UNL     1       0.747   9.736  21.983  0.00  0.00    +0.000 C 
ATOM     29  O   UNL     1       1.169  10.866  21.791  0.00  0.00    +0.000 OA
BRANCH  28  31
ATOM     30  C   UNL     1      -1.096  10.603  23.145  0.00  0.00    +0.000 C 
ATOM     31  O   UNL     1      -0.440   9.460  22.603  0.00  0.00    +0.000 OA
ENDBRANCH  28  31
ENDBRANCH  27  28
ENDBRANCH  26  27
ENDBRANCH   1  26
TORSDOF 7
ENDMDL
MODEL 2
REMARK VINA RESULT:      -7.1      0.495      1.027
REMARK  Name = 
REMARK  8 active torsions:
REMARK  status: ('A' for Active; 'I' for Inactive)
REMARK    1  A    between atoms: C_1  and  O_2
REMARK    2  A    between atoms: O_2  and  C_3
REMARK    3  A    between atoms: C_3  and  C_5
REMARK    4  A    between atoms: C_5  and  S_6
REMARK    5  A    between atoms: S_6  and  C_7
REMARK    6  A    between atoms: C_8  and  C_9
REMARK    7  A    between atoms: C_12  and  N_13
REMARK    8  A    between atoms: C_25  and  C_26
REMARK                            x       y       z     vdW  Elec       q    Type
REMARK                         _______ _______ _______ _____ _____    ______ ____
ROOT
ATOM      1  C   UNL     1       1.717   7.483  19.181  0.00  0.00    +0.000 A 
ATOM      2  C   UNL     1       2.125   8.565  18.359  0.00  0.00    +0.000 A 
ATOM      3  N   UNL     1       3.068   8.409  17.398  0.00  0.00    +0.000 NA
ATOM      4  C   UNL     1       3.637   7.220  17.198  0.00  0.00    +0.000 A 
ATOM      5  C   UNL     1       4.581   7.152  16.182  0.00  0.00    +0.000 A 
ATOM      6  C   UNL     1       5.254   5.972  15.865  0.00  0.00    +0.000 A 
ATOM      7  C   UNL     1       4.955   4.819  16.564  0.00  0.00    +0.000 A 
ATOM      8  C   UNL     1       3.982   4.866  17.566  0.00  0.00    +0.000 A 
ATOM      9  C   UNL     1       3.318   6.069  17.954  0.00  0.00    +0.000 A 
ATOM     10  C   UNL     1       2.339   6.196  19.013  0.00  0.00    +0.000 A 
ENDROOT
BRANCH   2  11
ATOM     11  C   UNL     1       1.522   9.935  18.352  0.00  0.00    +0.000 A 
ATOM     12  C   UNL     1       2.283  11.110  18.497  0.00  0.00    +0.000 A 
ATOM     13  C   UNL     1       1.688  12.347  18.781  0.00  0.00    +0.000 A 
ATOM     14  C   UNL     1       0.294  12.448  18.793  0.00  0.00    +0.000 A 
ATOM     15  C   UNL     1      -0.494  11.335  18.498  0.00  0.00    +0.000 A 
ATOM     16  C   UNL     1       0.120  10.091  18.286  0.00  0.00    +0.000 A 
BRANCH  14  17
ATOM     17  N   UNL     1      -0.330  13.730  19.147  0.00  0.00    +0.000 N 
ATOM     18  O   UNL     1      -1.357  13.706  19.834  0.00  0.00    +0.000 OA
ATOM     19  O   UNL     1       0.214  14.766  18.726  0.00  0.00    +0.000 OA
ENDBRANCH  14  17
ENDBRANCH   2  11
BRANCH  10  20
ATOM     20  C   UNL     1       2.010   5.000  19.890  0.00  0.00    +0.000 A 
ATOM     21  C   UNL     1       2.613   4.813  21.151  0.00  0.00    +0.000 A 
ATOM     22  C   UNL     1       2.405   3.653  21.916  0.00  0.00    +0.000 A 
ATOM     23  C   UNL     1       1.485   2.700  21.502  0.00  0.00    +0.000 A 
ATOM     24  C   UNL     1       0.807   2.888  20.308  0.00  0.00    +0.000 A 
ATOM     25  C   UNL     1       1.118   3.989  19.495  0.00  0.00    +0.000 A 
ENDBRANCH  10  20
BRANCH   1  26
ATOM     26  S   UNL     1       0.403   7.734  20.421  0.00  0.00    +0.000 S 
BRANCH  26  27
ATOM     27  C   UNL     1       1.366   8.612  21.710  0.00  0.00    +0.000 C 
BRANCH  27  28
ATOM     28  C   UNL     1       0.447   9.474  22.534  0.00  0.00    +0.000 C 
ATOM     29  O   UNL     1       0.523   9.613  23.746  0.00  0.00    +0.000 OA
BRANCH  28  31
ATOM     30  C   UNL     1      -1.056  11.261  22.323  0.00  0.00    +0.000 C 
ATOM     31  O   UNL     1      -0.501  10.078  21.756  0.00  0.00    +0.000 OA
ENDBRANCH  28  31
ENDBRANCH  27  28
ENDBRANCH  26  27
ENDBRANCH   1  26
TORSDOF 7
ENDMDL
MODEL 3
REMARK VINA RESULT:      -6.6      3.053      5.569
REMARK  Name = 
REMARK  8 active torsions:
REMARK  status: ('A' for Active; 'I' for Inactive)
REMARK    1  A    between atoms: C_1  and  O_2
REMARK    2  A    between atoms: O_2  and  C_3
REMARK    3  A    between atoms: C_3  and  C_5
REMARK    4  A    between atoms: C_5  and  S_6
REMARK    5  A    between atoms: S_6  and  C_7
REMARK    6  A    between atoms: C_8  and  C_9
REMARK    7  A    between atoms: C_12  and  N_13
REMARK    8  A    between atoms: C_25  and  C_26
REMARK                            x       y       z     vdW  Elec       q    Type
REMARK                         _______ _______ _______ _____ _____    ______ ____
ROOT
ATOM      1  C   UNL     1       3.501   6.273  17.808  0.00  0.00    +0.000 A 
ATOM      2  C   UNL     1       2.426   6.506  18.706  0.00  0.00    +0.000 A 
ATOM      3  N   UNL     1       1.699   5.484  19.222  0.00  0.00    +0.000 NA
ATOM      4  C   UNL     1       1.984   4.222  18.898  0.00  0.00    +0.000 A 
ATOM      5  C   UNL     1       1.196   3.243  19.488  0.00  0.00    +0.000 A 
ATOM      6  C   UNL     1       1.383   1.883  19.237  0.00  0.00    +0.000 A 
ATOM      7  C   UNL     1       2.404   1.488  18.396  0.00  0.00    +0.000 A 
ATOM      8  C   UNL     1       3.226   2.463  17.824  0.00  0.00    +0.000 A 
ATOM      9  C   UNL     1       3.025   3.864  18.013  0.00  0.00    +0.000 A 
ATOM     10  C   UNL     1       3.808   4.923  17.411  0.00  0.00    +0.000 A 
ENDROOT
BRANCH   2  11
ATOM     11  C   UNL     1       2.035   7.832  19.278  0.00  0.00    +0.000 A 
ATOM     12  C   UNL     1       1.770   8.032  20.646  0.00  0.00    +0.000 A 
ATOM     13  C   UNL     1       1.128   9.186  21.115  0.00  0.00    +0.000 A 
ATOM     14  C   UNL     1       0.859  10.228  20.224  0.00  0.00    +0.000 A 
ATOM     15  C   UNL     1       1.249  10.129  18.888  0.00  0.00    +0.000 A 
ATOM     16  C   UNL     1       1.826   8.937  18.424  0.00  0.00    +0.000 A 
BRANCH  14  17
ATOM     17  N   UNL     1       0.135  11.413  20.703  0.00  0.00    +0.000 N 
ATOM     18  O   UNL     1       0.746  12.223  21.408  0.00  0.00    +0.000 OA
ATOM     19  O   UNL     1      -1.059  11.527  20.369  0.00  0.00    +0.000 OA
ENDBRANCH  14  17
ENDBRANCH   2  11
BRANCH  10  20
ATOM     20  C   UNL     1       4.897   4.587  16.408  0.00  0.00    +0.000 A 
ATOM     21  C   UNL     1       6.214   4.284  16.813  0.00  0.00    +0.000 A 
ATOM     22  C   UNL     1       7.255   4.088  15.889  0.00  0.00    +0.000 A 
ATOM     23  C   UNL     1       6.984   4.062  14.528  0.00  0.00    +0.000 A 
ATOM     24  C   UNL     1       5.685   4.271  14.092  0.00  0.00    +0.000 A 
ATOM     25  C   UNL     1       4.681   4.589  15.019  0.00  0.00    +0.000 A 
ENDBRANCH  10  20
BRANCH   1  26
ATOM     26  S   UNL     1       4.482   7.679  17.188  0.00  0.00    +0.000 S 
BRANCH  26  27
ATOM     27  C   UNL     1       6.016   7.430  18.158  0.00  0.00    +0.000 C 
BRANCH  27  28
ATOM     28  C   UNL     1       7.206   7.889  17.358  0.00  0.00    +0.000 C 
ATOM     29  O   UNL     1       7.832   7.188  16.577  0.00  0.00    +0.000 OA
BRANCH  28  31
ATOM     30  C   UNL     1       8.626   9.368  18.495  0.00  0.00    +0.000 C 
ATOM     31  O   UNL     1       7.513   9.194  17.623  0.00  0.00    +0.000 OA
ENDBRANCH  28  31
ENDBRANCH  27  28
ENDBRANCH  26  27
ENDBRANCH   1  26
TORSDOF 7
ENDMDL
MODEL 4
REMARK VINA RESULT:      -6.5      3.620      6.710
REMARK  Name = 
REMARK  8 active torsions:
REMARK  status: ('A' for Active; 'I' for Inactive)
REMARK    1  A    between atoms: C_1  and  O_2
REMARK    2  A    between atoms: O_2  and  C_3
REMARK    3  A    between atoms: C_3  and  C_5
REMARK    4  A    between atoms: C_5  and  S_6
REMARK    5  A    between atoms: S_6  and  C_7
REMARK    6  A    between atoms: C_8  and  C_9
REMARK    7  A    between atoms: C_12  and  N_13
REMARK    8  A    between atoms: C_25  and  C_26
REMARK                            x       y       z     vdW  Elec       q    Type
REMARK                         _______ _______ _______ _____ _____    ______ ____
ROOT
ATOM      1  C   UNL     1      -1.169  11.564  20.251  0.00  0.00    +0.000 A 
ATOM      2  C   UNL     1      -2.308  12.412  20.251  0.00  0.00    +0.000 A 
ATOM      3  N   UNL     1      -3.217  12.377  19.247  0.00  0.00    +0.000 NA
ATOM      4  C   UNL     1      -3.064  11.533  18.227  0.00  0.00    +0.000 A 
ATOM      5  C   UNL     1      -4.054  11.557  17.253  0.00  0.00    +0.000 A 
ATOM      6  C   UNL     1      -4.019  10.728  16.131  0.00  0.00    +0.000 A 
ATOM      7  C   UNL     1      -2.981   9.828  15.992  0.00  0.00    +0.000 A 
ATOM      8  C   UNL     1      -1.997   9.770  16.982  0.00  0.00    +0.000 A 
ATOM      9  C   UNL     1      -1.971  10.644  18.112  0.00  0.00    +0.000 A 
ATOM     10  C   UNL     1      -0.957  10.668  19.145  0.00  0.00    +0.000 A 
ENDROOT
BRANCH   2  11
ATOM     11  C   UNL     1      -2.712  13.334  21.358  0.00  0.00    +0.000 A 
ATOM     12  C   UNL     1      -2.296  14.677  21.431  0.00  0.00    +0.000 A 
ATOM     13  C   UNL     1      -2.435  15.432  22.603  0.00  0.00    +0.000 A 
ATOM     14  C   UNL     1      -3.121  14.886  23.691  0.00  0.00    +0.000 A 
ATOM     15  C   UNL     1      -3.684  13.613  23.600  0.00  0.00    +0.000 A 
ATOM     16  C   UNL     1      -3.473  12.846  22.443  0.00  0.00    +0.000 A 
BRANCH  14  17
ATOM     17  N   UNL     1      -3.217  15.655  24.939  0.00  0.00    +0.000 N 
ATOM     18  O   UNL     1      -4.210  16.370  25.108  0.00  0.00    +0.000 OA
ATOM     19  O   UNL     1      -2.282  15.541  25.754  0.00  0.00    +0.000 OA
ENDBRANCH  14  17
ENDBRANCH   2  11
BRANCH  10  20
ATOM     20  C   UNL     1       0.264   9.773  19.031  0.00  0.00    +0.000 A 
ATOM     21  C   UNL     1       1.112   9.810  17.904  0.00  0.00    +0.000 A 
ATOM     22  C   UNL     1       2.174   8.905  17.737  0.00  0.00    +0.000 A 
ATOM     23  C   UNL     1       2.502   8.017  18.752  0.00  0.00    +0.000 A 
ATOM     24  C   UNL     1       1.744   8.008  19.913  0.00  0.00    +0.000 A 
ATOM     25  C   UNL     1       0.612   8.830  20.014  0.00  0.00    +0.000 A 
ENDBRANCH  10  20
BRANCH   1  26
ATOM     26  S   UNL     1      -0.006  11.611  21.655  0.00  0.00    +0.000 S 
BRANCH  26  27
ATOM     27  C   UNL     1       1.406  12.459  20.851  0.00  0.00    +0.000 C 
BRANCH  27  28
ATOM     28  C   UNL     1       1.401  13.919  21.218  0.00  0.00    +0.000 C 
ATOM     29  O   UNL     1       1.054  14.363  22.302  0.00  0.00    +0.000 OA
BRANCH  28  31
ATOM     30  C   UNL     1       0.798  15.505  19.600  0.00  0.00    +0.000 C 
ATOM     31  O   UNL     1       1.820  14.698  20.175  0.00  0.00    +0.000 OA
ENDBRANCH  28  31
ENDBRANCH  27  28
ENDBRANCH  26  27
ENDBRANCH   1  26
TORSDOF 7
ENDMDL
MODEL 5
REMARK VINA RESULT:      -6.5      3.828      7.007
REMARK  Name = 
REMARK  8 active torsions:
REMARK  status: ('A' for Active; 'I' for Inactive)
REMARK    1  A    between atoms: C_1  and  O_2
REMARK    2  A    between atoms: O_2  and  C_3
REMARK    3  A    between atoms: C_3  and  C_5
REMARK    4  A    between atoms: C_5  and  S_6
REMARK    5  A    between atoms: S_6  and  C_7
REMARK    6  A    between atoms: C_8  and  C_9
REMARK    7  A    between atoms: C_12  and  N_13
REMARK    8  A    between atoms: C_25  and  C_26
REMARK                            x       y       z     vdW  Elec       q    Type
REMARK                         _______ _______ _______ _____ _____    ______ ____
ROOT
ATOM      1  C   UNL     1      -1.508  11.622  20.406  0.00  0.00    +0.000 A 
ATOM      2  C   UNL     1      -2.678  12.426  20.377  0.00  0.00    +0.000 A 
ATOM      3  N   UNL     1      -3.544  12.379  19.335  0.00  0.00    +0.000 NA
ATOM      4  C   UNL     1      -3.317  11.563  18.305  0.00  0.00    +0.000 A 
ATOM      5  C   UNL     1      -4.267  11.572  17.292  0.00  0.00    +0.000 A 
ATOM      6  C   UNL     1      -4.155  10.770  16.156  0.00  0.00    +0.000 A 
ATOM      7  C   UNL     1      -3.077   9.913  16.041  0.00  0.00    +0.000 A 
ATOM      8  C   UNL     1      -2.133   9.870  17.070  0.00  0.00    +0.000 A 
ATOM      9  C   UNL     1      -2.187  10.719  18.217  0.00  0.00    +0.000 A 
ATOM     10  C   UNL     1      -1.217  10.759  19.291  0.00  0.00    +0.000 A 
ENDROOT
BRANCH   2  11
ATOM     11  C   UNL     1      -3.163  13.306  21.485  0.00  0.00    +0.000 A 
ATOM     12  C   UNL     1      -3.836  12.814  22.619  0.00  0.00    +0.000 A 
ATOM     13  C   UNL     1      -4.534  13.661  23.491  0.00  0.00    +0.000 A 
ATOM     14  C   UNL     1      -4.456  15.044  23.309  0.00  0.00    +0.000 A 
ATOM     15  C   UNL     1      -3.670  15.575  22.286  0.00  0.00    +0.000 A 
ATOM     16  C   UNL     1      -3.036  14.709  21.382  0.00  0.00    +0.000 A 
BRANCH  14  17
ATOM     17  N   UNL     1      -5.234  15.929  24.186  0.00  0.00    +0.000 N 
ATOM     18  O   UNL     1      -4.622  16.612  25.014  0.00  0.00    +0.000 OA
ATOM     19  O   UNL     1      -6.470  15.933  24.044  0.00  0.00    +0.000 OA
ENDBRANCH  14  17
ENDBRANCH   2  11
BRANCH  10  20
ATOM     20  C   UNL     1       0.041   9.914  19.210  0.00  0.00    +0.000 A 
ATOM     21  C   UNL     1       0.913   9.979  18.102  0.00  0.00    +0.000 A 
ATOM     22  C   UNL     1       2.014   9.118  17.963  0.00  0.00    +0.000 A 
ATOM     23  C   UNL     1       2.354   8.249  18.991  0.00  0.00    +0.000 A 
ATOM     24  C   UNL     1       1.572   8.214  20.135  0.00  0.00    +0.000 A 
ATOM     25  C   UNL     1       0.405   8.990  20.205  0.00  0.00    +0.000 A 
ENDBRANCH  10  20
BRANCH   1  26
ATOM     26  S   UNL     1      -0.406  11.682  21.857  0.00  0.00    +0.000 S 
BRANCH  26  27
ATOM     27  C   UNL     1       0.316  13.350  21.621  0.00  0.00    +0.000 C 
BRANCH  27  28
ATOM     28  C   UNL     1       1.542  13.256  20.751  0.00  0.00    +0.000 C 
ATOM     29  O   UNL     1       2.673  13.048  21.163  0.00  0.00    +0.000 OA
BRANCH  28  31
ATOM     30  C   UNL     1       2.359  13.424  18.560  0.00  0.00    +0.000 C 
ATOM     31  O   UNL     1       1.234  13.447  19.433  0.00  0.00    +0.000 OA
ENDBRANCH  28  31
ENDBRANCH  27  28
ENDBRANCH  26  27
ENDBRANCH   1  26
TORSDOF 7
ENDMDL
MODEL 6
REMARK VINA RESULT:      -6.5      3.709      6.754
REMARK  Name = 
REMARK  8 active torsions:
REMARK  status: ('A' for Active; 'I' for Inactive)
REMARK    1  A    between atoms: C_1  and  O_2
REMARK    2  A    between atoms: O_2  and  C_3
REMARK    3  A    between atoms: C_3  and  C_5
REMARK    4  A    between atoms: C_5  and  S_6
REMARK    5  A    between atoms: S_6  and  C_7
REMARK    6  A    between atoms: C_8  and  C_9
REMARK    7  A    between atoms: C_12  and  N_13
REMARK    8  A    between atoms: C_25  and  C_26
REMARK                            x       y       z     vdW  Elec       q    Type
REMARK                         _______ _______ _______ _____ _____    ______ ____
ROOT
ATOM      1  C   UNL     1      -1.297  11.562  20.285  0.00  0.00    +0.000 A 
ATOM      2  C   UNL     1      -2.450  12.391  20.282  0.00  0.00    +0.000 A 
ATOM      3  N   UNL     1      -3.347  12.353  19.267  0.00  0.00    +0.000 NA
ATOM      4  C   UNL     1      -3.169  11.523  18.239  0.00  0.00    +0.000 A 
ATOM      5  C   UNL     1      -4.148  11.542  17.255  0.00  0.00    +0.000 A 
ATOM      6  C   UNL     1      -4.087  10.727  16.124  0.00  0.00    +0.000 A 
ATOM      7  C   UNL     1      -3.033   9.846  15.986  0.00  0.00    +0.000 A 
ATOM      8  C   UNL     1      -2.059   9.792  16.987  0.00  0.00    +0.000 A 
ATOM      9  C   UNL     1      -2.060  10.653  18.126  0.00  0.00    +0.000 A 
ATOM     10  C   UNL     1      -1.058  10.682  19.171  0.00  0.00    +0.000 A 
ENDROOT
BRANCH   2  11
ATOM     11  C   UNL     1      -2.882  13.292  21.395  0.00  0.00    +0.000 A 
ATOM     12  C   UNL     1      -2.650  14.681  21.394  0.00  0.00    +0.000 A 
ATOM     13  C   UNL     1      -2.792  15.456  22.552  0.00  0.00    +0.000 A 
ATOM     14  C   UNL     1      -3.301  14.867  23.711  0.00  0.00    +0.000 A 
ATOM     15  C   UNL     1      -3.690  13.526  23.706  0.00  0.00    +0.000 A 
ATOM     16  C   UNL     1      -3.474  12.750  22.557  0.00  0.00    +0.000 A 
BRANCH  14  17
ATOM     17  N   UNL     1      -3.396  15.664  24.942  0.00  0.00    +0.000 N 
ATOM     18  O   UNL     1      -2.518  15.518  25.799  0.00  0.00    +0.000 OA
ATOM     19  O   UNL     1      -4.363  16.440  25.047  0.00  0.00    +0.000 OA
ENDBRANCH  14  17
ENDBRANCH   2  11
BRANCH  10  20
ATOM     20  C   UNL     1       0.179   9.809  19.061  0.00  0.00    +0.000 A 
ATOM     21  C   UNL     1       0.991   9.810  17.907  0.00  0.00    +0.000 A 
ATOM     22  C   UNL     1       2.068   8.921  17.749  0.00  0.00    +0.000 A 
ATOM     23  C   UNL     1       2.446   8.090  18.794  0.00  0.00    +0.000 A 
ATOM     24  C   UNL     1       1.725   8.120  19.978  0.00  0.00    +0.000 A 
ATOM     25  C   UNL     1       0.578   8.921  20.075  0.00  0.00    +0.000 A 
ENDBRANCH  10  20
BRANCH   1  26
ATOM     26  S   UNL     1      -0.151  11.612  21.702  0.00  0.00    +0.000 S 
BRANCH  26  27
ATOM     27  C   UNL     1       0.612  13.254  21.419  0.00  0.00    +0.000 C 
BRANCH  27  28
ATOM     28  C   UNL     1       1.918  13.090  20.687  0.00  0.00    +0.000 C 
ATOM     29  O   UNL     1       2.037  12.581  19.582  0.00  0.00    +0.000 OA
BRANCH  28  31
ATOM     30  C   UNL     1       2.800  14.916  21.863  0.00  0.00    +0.000 C 
ATOM     31  O   UNL     1       2.965  13.571  21.421  0.00  0.00    +0.000 OA
ENDBRANCH  28  31
ENDBRANCH  27  28
ENDBRANCH  26  27
ENDBRANCH   1  26
TORSDOF 7
ENDMDL
MODEL 7
REMARK VINA RESULT:      -6.4      3.044      5.490
REMARK  Name = 
REMARK  8 active torsions:
REMARK  status: ('A' for Active; 'I' for Inactive)
REMARK    1  A    between atoms: C_1  and  O_2
REMARK    2  A    between atoms: O_2  and  C_3
REMARK    3  A    between atoms: C_3  and  C_5
REMARK    4  A    between atoms: C_5  and  S_6
REMARK    5  A    between atoms: S_6  and  C_7
REMARK    6  A    between atoms: C_8  and  C_9
REMARK    7  A    between atoms: C_12  and  N_13
REMARK    8  A    between atoms: C_25  and  C_26
REMARK                            x       y       z     vdW  Elec       q    Type
REMARK                         _______ _______ _______ _____ _____    ______ ____
ROOT
ATOM      1  C   UNL     1       3.504   6.305  17.800  0.00  0.00    +0.000 A 
ATOM      2  C   UNL     1       2.421   6.514  18.693  0.00  0.00    +0.000 A 
ATOM      3  N   UNL     1       1.704   5.478  19.193  0.00  0.00    +0.000 NA
ATOM      4  C   UNL     1       2.006   4.224  18.857  0.00  0.00    +0.000 A 
ATOM      5  C   UNL     1       1.227   3.228  19.431  0.00  0.00    +0.000 A 
ATOM      6  C   UNL     1       1.432   1.873  19.167  0.00  0.00    +0.000 A 
ATOM      7  C   UNL     1       2.465   1.500  18.328  0.00  0.00    +0.000 A 
ATOM      8  C   UNL     1       3.278   2.491  17.772  0.00  0.00    +0.000 A 
ATOM      9  C   UNL     1       3.058   3.888  17.975  0.00  0.00    +0.000 A 
ATOM     10  C   UNL     1       3.831   4.964  17.390  0.00  0.00    +0.000 A 
ENDROOT
BRANCH   2  11
ATOM     11  C   UNL     1       2.009   7.829  19.276  0.00  0.00    +0.000 A 
ATOM     12  C   UNL     1       1.754   8.016  20.648  0.00  0.00    +0.000 A 
ATOM     13  C   UNL     1       1.095   9.154  21.131  0.00  0.00    +0.000 A 
ATOM     14  C   UNL     1       0.795  10.195  20.249  0.00  0.00    +0.000 A 
ATOM     15  C   UNL     1       1.174  10.112  18.908  0.00  0.00    +0.000 A 
ATOM     16  C   UNL     1       1.769   8.934  18.431  0.00  0.00    +0.000 A 
BRANCH  14  17
ATOM     17  N   UNL     1       0.053  11.363  20.742  0.00  0.00    +0.000 N 
ATOM     18  O   UNL     1      -0.927  11.746  20.094  0.00  0.00    +0.000 OA
ATOM     19  O   UNL     1       0.463  11.902  21.787  0.00  0.00    +0.000 OA
ENDBRANCH  14  17
ENDBRANCH   2  11
BRANCH  10  20
ATOM     20  C   UNL     1       4.931   4.652  16.391  0.00  0.00    +0.000 A 
ATOM     21  C   UNL     1       4.688   4.623  15.001  0.00  0.00    +0.000 A 
ATOM     22  C   UNL     1       5.668   4.221  14.078  0.00  0.00    +0.000 A 
ATOM     23  C   UNL     1       6.963   3.959  14.505  0.00  0.00    +0.000 A 
ATOM     24  C   UNL     1       7.264   4.060  15.854  0.00  0.00    +0.000 A 
ATOM     25  C   UNL     1       6.246   4.340  16.778  0.00  0.00    +0.000 A 
ENDBRANCH  10  20
BRANCH   1  26
ATOM     26  S   UNL     1       4.471   7.729  17.201  0.00  0.00    +0.000 S 
BRANCH  26  27
ATOM     27  C   UNL     1       6.006   7.484  18.172  0.00  0.00    +0.000 C 
BRANCH  27  28
ATOM     28  C   UNL     1       7.194   7.956  17.376  0.00  0.00    +0.000 C 
ATOM     29  O   UNL     1       7.840   7.258  16.608  0.00  0.00    +0.000 OA
BRANCH  28  31
ATOM     30  C   UNL     1       8.653   9.479  18.400  0.00  0.00    +0.000 C 
ATOM     31  O   UNL     1       7.474   9.270  17.629  0.00  0.00    +0.000 OA
ENDBRANCH  28  31
ENDBRANCH  27  28
ENDBRANCH  26  27
ENDBRANCH   1  26
TORSDOF 7
ENDMDL
MODEL 8
REMARK VINA RESULT:      -6.4      3.415      7.977
REMARK  Name = 
REMARK  8 active torsions:
REMARK  status: ('A' for Active; 'I' for Inactive)
REMARK    1  A    between atoms: C_1  and  O_2
REMARK    2  A    between atoms: O_2  and  C_3
REMARK    3  A    between atoms: C_3  and  C_5
REMARK    4  A    between atoms: C_5  and  S_6
REMARK    5  A    between atoms: S_6  and  C_7
REMARK    6  A    between atoms: C_8  and  C_9
REMARK    7  A    between atoms: C_12  and  N_13
REMARK    8  A    between atoms: C_25  and  C_26
REMARK                            x       y       z     vdW  Elec       q    Type
REMARK                         _______ _______ _______ _____ _____    ______ ____
ROOT
ATOM      1  C   UNL     1      -0.674  11.108  19.922  0.00  0.00    +0.000 A 
ATOM      2  C   UNL     1      -0.410  10.063  18.999  0.00  0.00    +0.000 A 
ATOM      3  N   UNL     1      -1.268   9.774  17.990  0.00  0.00    +0.000 NA
ATOM      4  C   UNL     1      -2.391  10.476  17.838  0.00  0.00    +0.000 A 
ATOM      5  C   UNL     1      -3.200  10.119  16.768  0.00  0.00    +0.000 A 
ATOM      6  C   UNL     1      -4.404  10.768  16.491  0.00  0.00    +0.000 A 
ATOM      7  C   UNL     1      -4.797  11.825  17.289  0.00  0.00    +0.000 A 
ATOM      8  C   UNL     1      -3.974  12.217  18.348  0.00  0.00    +0.000 A 
ATOM      9  C   UNL     1      -2.766  11.536  18.694  0.00  0.00    +0.000 A 
ATOM     10  C   UNL     1      -1.896  11.860  19.805  0.00  0.00    +0.000 A 
ENDROOT
BRANCH   2  11
ATOM     11  C   UNL     1       0.844   9.249  18.934  0.00  0.00    +0.000 A 
ATOM     12  C   UNL     1       1.698   9.240  17.815  0.00  0.00    +0.000 A 
ATOM     13  C   UNL     1       2.692   8.266  17.651  0.00  0.00    +0.000 A 
ATOM     14  C   UNL     1       2.934   7.355  18.682  0.00  0.00    +0.000 A 
ATOM     15  C   UNL     1       2.211   7.433  19.873  0.00  0.00    +0.000 A 
ATOM     16  C   UNL     1       1.172   8.370  19.989  0.00  0.00    +0.000 A 
BRANCH  14  17
ATOM     17  N   UNL     1       3.937   6.299  18.487  0.00  0.00    +0.000 N 
ATOM     18  O   UNL     1       4.552   6.271  17.417  0.00  0.00    +0.000 OA
ATOM     19  O   UNL     1       4.101   5.489  19.418  0.00  0.00    +0.000 OA
ENDBRANCH  14  17
ENDBRANCH   2  11
BRANCH  10  20
ATOM     20  C   UNL     1      -2.290  12.951  20.784  0.00  0.00    +0.000 A 
ATOM     21  C   UNL     1      -3.053  12.677  21.939  0.00  0.00    +0.000 A 
ATOM     22  C   UNL     1      -3.522  13.694  22.787  0.00  0.00    +0.000 A 
ATOM     23  C   UNL     1      -3.133  15.010  22.578  0.00  0.00    +0.000 A 
ATOM     24  C   UNL     1      -2.312  15.311  21.503  0.00  0.00    +0.000 A 
ATOM     25  C   UNL     1      -1.955  14.304  20.594  0.00  0.00    +0.000 A 
ENDBRANCH  10  20
BRANCH   1  26
ATOM     26  S   UNL     1       0.541  11.493  21.226  0.00  0.00    +0.000 S 
BRANCH  26  27
ATOM     27  C   UNL     1       1.606  12.671  20.312  0.00  0.00    +0.000 C 
BRANCH  27  28
ATOM     28  C   UNL     1       1.541  14.027  20.962  0.00  0.00    +0.000 C 
ATOM     29  O   UNL     1       1.342  14.219  22.152  0.00  0.00    +0.000 OA
BRANCH  28  31
ATOM     30  C   UNL     1       2.527  14.665  18.933  0.00  0.00    +0.000 C 
ATOM     31  O   UNL     1       1.718  15.028  20.048  0.00  0.00    +0.000 OA
ENDBRANCH  28  31
ENDBRANCH  27  28
ENDBRANCH  26  27
ENDBRANCH   1  26
TORSDOF 7
ENDMDL
MODEL 9
REMARK VINA RESULT:      -6.4      3.653      8.371
REMARK  Name = 
REMARK  8 active torsions:
REMARK  status: ('A' for Active; 'I' for Inactive)
REMARK    1  A    between atoms: C_1  and  O_2
REMARK    2  A    between atoms: O_2  and  C_3
REMARK    3  A    between atoms: C_3  and  C_5
REMARK    4  A    between atoms: C_5  and  S_6
REMARK    5  A    between atoms: S_6  and  C_7
REMARK    6  A    between atoms: C_8  and  C_9
REMARK    7  A    between atoms: C_12  and  N_13
REMARK    8  A    between atoms: C_25  and  C_26
REMARK                            x       y       z     vdW  Elec       q    Type
REMARK                         _______ _______ _______ _____ _____    ______ ____
ROOT
ATOM      1  C   UNL     1      -1.423  11.712  20.468  0.00  0.00    +0.000 A 
ATOM      2  C   UNL     1      -1.192  10.735  19.464  0.00  0.00    +0.000 A 
ATOM      3  N   UNL     1      -2.103  10.492  18.489  0.00  0.00    +0.000 NA
ATOM      4  C   UNL     1      -3.246  11.177  18.448  0.00  0.00    +0.000 A 
ATOM      5  C   UNL     1      -4.110  10.870  17.405  0.00  0.00    +0.000 A 
ATOM      6  C   UNL     1      -5.340  11.508  17.241  0.00  0.00    +0.000 A 
ATOM      7  C   UNL     1      -5.706  12.502  18.128  0.00  0.00    +0.000 A 
ATOM      8  C   UNL     1      -4.830  12.843  19.162  0.00  0.00    +0.000 A 
ATOM      9  C   UNL     1      -3.591  12.170  19.392  0.00  0.00    +0.000 A 
ATOM     10  C   UNL     1      -2.664  12.442  20.470  0.00  0.00    +0.000 A 
ENDROOT
BRANCH   2  11
ATOM     11  C   UNL     1       0.071   9.956  19.274  0.00  0.00    +0.000 A 
ATOM     12  C   UNL     1       0.768   9.908  18.052  0.00  0.00    +0.000 A 
ATOM     13  C   UNL     1       1.767   8.957  17.807  0.00  0.00    +0.000 A 
ATOM     14  C   UNL     1       2.178   8.114  18.842  0.00  0.00    +0.000 A 
ATOM     15  C   UNL     1       1.617   8.239  20.114  0.00  0.00    +0.000 A 
ATOM     16  C   UNL     1       0.569   9.149  20.320  0.00  0.00    +0.000 A 
BRANCH  14  17
ATOM     17  N   UNL     1       3.184   7.079  18.571  0.00  0.00    +0.000 N 
ATOM     18  O   UNL     1       3.349   6.192  19.415  0.00  0.00    +0.000 OA
ATOM     19  O   UNL     1       3.815   7.162  17.501  0.00  0.00    +0.000 OA
ENDBRANCH  14  17
ENDBRANCH   2  11
BRANCH  10  20
ATOM     20  C   UNL     1      -3.020  13.458  21.541  0.00  0.00    +0.000 A 
ATOM     21  C   UNL     1      -2.747  14.833  21.383  0.00  0.00    +0.000 A 
ATOM     22  C   UNL     1      -2.964  15.763  22.414  0.00  0.00    +0.000 A 
ATOM     23  C   UNL     1      -3.583  15.367  23.591  0.00  0.00    +0.000 A 
ATOM     24  C   UNL     1      -3.946  14.039  23.752  0.00  0.00    +0.000 A 
ATOM     25  C   UNL     1      -3.609  13.100  22.766  0.00  0.00    +0.000 A 
ENDBRANCH  10  20
BRANCH   1  26
ATOM     26  S   UNL     1      -0.141  12.039  21.723  0.00  0.00    +0.000 S 
BRANCH  26  27
ATOM     27  C   UNL     1       0.638  13.524  20.982  0.00  0.00    +0.000 C 
BRANCH  27  28
ATOM     28  C   UNL     1       2.078  13.233  20.650  0.00  0.00    +0.000 C 
ATOM     29  O   UNL     1       3.005  13.317  21.441  0.00  0.00    +0.000 OA
BRANCH  28  31
ATOM     30  C   UNL     1       1.310  13.509  18.452  0.00  0.00    +0.000 C 
ATOM     31  O   UNL     1       2.225  12.873  19.340  0.00  0.00    +0.000 OA
ENDBRANCH  28  31
ENDBRANCH  27  28
ENDBRANCH  26  27
ENDBRANCH   1  26
TORSDOF 7
ENDMDL
