MODEL 1
REMARK VINA RESULT:      -6.7      0.000      0.000
REMARK  Name = 
REMARK  10 active torsions:
REMARK  status: ('A' for Active; 'I' for Inactive)
REMARK    1  A    between atoms: C_1  and  C_2
REMARK    2  A    between atoms: C_2  and  N_3
REMARK    3  A    between atoms: C_9  and  C_10
REMARK    4  A    between atoms: C_10  and  O_11
REMARK    5  A    between atoms: O_11  and  C_12
REMARK    6  A    between atoms: C_15  and  O_16
REMARK    7  A    between atoms: O_16  and  C_17
REMARK    8  A    between atoms: N_20  and  C_21
REMARK    9  A    between atoms: N_22  and  C_23
REMARK   10  A    between atoms: C_23  and  C_24
REMARK                            x       y       z     vdW  Elec       q    Type
REMARK                         _______ _______ _______ _____ _____    ______ ____
ROOT
ATOM      1  N   UNL     1       5.705   4.002  16.165  0.00  0.00    +0.000 N 
ATOM      2  C   UNL     1       4.347   4.016  16.525  0.00  0.00    +0.000 A 
ATOM      3  O   UNL     1       3.478   3.363  15.948  0.00  0.00    +0.000 OA
ATOM      4  C   UNL     1       4.070   4.878  17.629  0.00  0.00    +0.000 A 
ATOM      5  C   UNL     1       5.040   5.593  18.264  0.00  0.00    +0.000 A 
ATOM      6  N   UNL     1       4.537   6.340  19.281  0.00  0.00    +0.000 NA
ATOM      7  C   UNL     1       3.232   6.114  19.279  0.00  0.00    +0.000 A 
ATOM      8  N   UNL     1       2.906   5.216  18.273  0.00  0.00    +0.000 N 
ATOM      9  C   UNL     1       1.602   4.706  17.927  0.00  0.00    +0.000 C 
ATOM     10  N   UNL     1       6.360   5.536  17.886  0.00  0.00    +0.000 N 
ATOM     11  C   UNL     1       6.736   4.691  16.841  0.00  0.00    +0.000 A 
ATOM     12  O   UNL     1       7.919   4.560  16.513  0.00  0.00    +0.000 OA
ENDROOT
BRANCH   1  14
ATOM     13  C   UNL     1       6.055   4.027  13.699  0.00  0.00    +0.000 C 
ATOM     14  C   UNL     1       6.092   3.223  14.991  0.00  0.00    +0.000 C 
ENDBRANCH   1  14
BRANCH  10  15
ATOM     15  C   UNL     1       7.361   6.355  18.563  0.00  0.00    +0.000 C 
ATOM     16  C   UNL     1       7.705   7.616  17.789  0.00  0.00    +0.000 C 
ENDBRANCH  10  15
BRANCH   7  17
ATOM     17  C   UNL     1       2.255   6.729  20.243  0.00  0.00    +0.000 C 
BRANCH  17  18
ATOM     18  O   UNL     1       1.938   8.030  19.742  0.00  0.00    +0.000 OA
BRANCH  18  19
ATOM     19  C   UNL     1       1.125   8.799  20.533  0.00  0.00    +0.000 A 
ATOM     20  C   UNL     1       1.239   8.578  21.908  0.00  0.00    +0.000 A 
ATOM     21  C   UNL     1       0.500   9.343  22.815  0.00  0.00    +0.000 A 
ATOM     22  C   UNL     1      -0.335  10.363  22.363  0.00  0.00    +0.000 A 
ATOM     23  C   UNL     1      -0.460  10.583  20.991  0.00  0.00    +0.000 A 
ATOM     24  C   UNL     1       0.267   9.801  20.077  0.00  0.00    +0.000 A 
BRANCH  22  25
ATOM     25  O   UNL     1      -1.008  11.044  23.340  0.00  0.00    +0.000 OA
ATOM     26  C   UNL     1      -2.005  11.956  22.889  0.00  0.00    +0.000 C 
ENDBRANCH  22  25
ENDBRANCH  18  19
ENDBRANCH  17  18
ENDBRANCH   7  17
TORSDOF 6
ENDMDL
MODEL 2
REMARK VINA RESULT:      -6.7      4.243      9.562
REMARK  Name = 
REMARK  10 active torsions:
REMARK  status: ('A' for Active; 'I' for Inactive)
REMARK    1  A    between atoms: C_1  and  C_2
REMARK    2  A    between atoms: C_2  and  N_3
REMARK    3  A    between atoms: C_9  and  C_10
REMARK    4  A    between atoms: C_10  and  O_11
REMARK    5  A    between atoms: O_11  and  C_12
REMARK    6  A    between atoms: C_15  and  O_16
REMARK    7  A    between atoms: O_16  and  C_17
REMARK    8  A    between atoms: N_20  and  C_21
REMARK    9  A    between atoms: N_22  and  C_23
REMARK   10  A    between atoms: C_23  and  C_24
REMARK                            x       y       z     vdW  Elec       q    Type
REMARK                         _______ _______ _______ _____ _____    ______ ____
ROOT
ATOM      1  N   UNL     1      -3.552  11.970  19.081  0.00  0.00    +0.000 N 
ATOM      2  C   UNL     1      -2.322  12.000  19.757  0.00  0.00    +0.000 A 
ATOM      3  O   UNL     1      -2.107  12.681  20.759  0.00  0.00    +0.000 OA
ATOM      4  C   UNL     1      -1.333  11.162  19.157  0.00  0.00    +0.000 A 
ATOM      5  C   UNL     1      -1.582  10.407  18.052  0.00  0.00    +0.000 A 
ATOM      6  N   UNL     1      -0.491   9.696  17.665  0.00  0.00    +0.000 NA
ATOM      7  C   UNL     1       0.466  10.018  18.522  0.00  0.00    +0.000 A 
ATOM      8  N   UNL     1      -0.016  10.921  19.458  0.00  0.00    +0.000 N 
ATOM      9  C   UNL     1       0.698  11.524  20.557  0.00  0.00    +0.000 C 
ATOM     10  N   UNL     1      -2.808  10.398  17.431  0.00  0.00    +0.000 N 
ATOM     11  C   UNL     1      -3.852  11.156  17.966  0.00  0.00    +0.000 A 
ATOM     12  O   UNL     1      -4.985  11.124  17.479  0.00  0.00    +0.000 OA
ENDROOT
BRANCH   1  14
ATOM     13  C   UNL     1      -5.483  12.229  20.633  0.00  0.00    +0.000 C 
ATOM     14  C   UNL     1      -4.612  12.857  19.553  0.00  0.00    +0.000 C 
ENDBRANCH   1  14
BRANCH  10  15
ATOM     15  C   UNL     1      -3.020   9.612  16.220  0.00  0.00    +0.000 C 
ATOM     16  C   UNL     1      -2.901  10.444  14.954  0.00  0.00    +0.000 C 
ENDBRANCH  10  15
BRANCH   7  17
ATOM     17  C   UNL     1       1.865   9.465  18.488  0.00  0.00    +0.000 C 
BRANCH  17  18
ATOM     18  O   UNL     1       1.811   8.235  17.762  0.00  0.00    +0.000 OA
BRANCH  18  19
ATOM     19  C   UNL     1       2.764   7.304  18.080  0.00  0.00    +0.000 A 
ATOM     20  C   UNL     1       2.424   6.423  19.109  0.00  0.00    +0.000 A 
ATOM     21  C   UNL     1       3.296   5.395  19.482  0.00  0.00    +0.000 A 
ATOM     22  C   UNL     1       4.503   5.212  18.809  0.00  0.00    +0.000 A 
ATOM     23  C   UNL     1       4.852   6.095  17.787  0.00  0.00    +0.000 A 
ATOM     24  C   UNL     1       3.985   7.140  17.424  0.00  0.00    +0.000 A 
BRANCH  22  25
ATOM     25  O   UNL     1       5.274   4.177  19.260  0.00  0.00    +0.000 OA
ATOM     26  C   UNL     1       4.569   3.019  19.695  0.00  0.00    +0.000 C 
ENDBRANCH  22  25
ENDBRANCH  18  19
ENDBRANCH  17  18
ENDBRANCH   7  17
TORSDOF 6
ENDMDL
MODEL 3
REMARK VINA RESULT:      -6.6      2.838      4.012
REMARK  Name = 
REMARK  10 active torsions:
REMARK  status: ('A' for Active; 'I' for Inactive)
REMARK    1  A    between atoms: C_1  and  C_2
REMARK    2  A    between atoms: C_2  and  N_3
REMARK    3  A    between atoms: C_9  and  C_10
REMARK    4  A    between atoms: C_10  and  O_11
REMARK    5  A    between atoms: O_11  and  C_12
REMARK    6  A    between atoms: C_15  and  O_16
REMARK    7  A    between atoms: O_16  and  C_17
REMARK    8  A    between atoms: N_20  and  C_21
REMARK    9  A    between atoms: N_22  and  C_23
REMARK   10  A    between atoms: C_23  and  C_24
REMARK                            x       y       z     vdW  Elec       q    Type
REMARK                         _______ _______ _______ _____ _____    ______ ____
ROOT
ATOM      1  N   UNL     1       3.769   4.191  19.388  0.00  0.00    +0.000 N 
ATOM      2  C   UNL     1       2.895   5.006  20.126  0.00  0.00    +0.000 A 
ATOM      3  O   UNL     1       2.345   4.652  21.168  0.00  0.00    +0.000 OA
ATOM      4  C   UNL     1       2.697   6.292  19.537  0.00  0.00    +0.000 A 
ATOM      5  C   UNL     1       3.314   6.675  18.385  0.00  0.00    +0.000 A 
ATOM      6  N   UNL     1       2.970   7.938  18.020  0.00  0.00    +0.000 NA
ATOM      7  C   UNL     1       2.110   8.353  18.938  0.00  0.00    +0.000 A 
ATOM      8  N   UNL     1       1.917   7.363  19.891  0.00  0.00    +0.000 N 
ATOM      9  C   UNL     1       1.062   7.407  21.052  0.00  0.00    +0.000 C 
ATOM     10  N   UNL     1       4.174   5.848  17.704  0.00  0.00    +0.000 N 
ATOM     11  C   UNL     1       4.462   4.584  18.222  0.00  0.00    +0.000 A 
ATOM     12  O   UNL     1       5.280   3.836  17.677  0.00  0.00    +0.000 OA
ENDROOT
BRANCH   1  14
ATOM     13  C   UNL     1       3.046   1.816  19.183  0.00  0.00    +0.000 C 
ATOM     14  C   UNL     1       3.977   2.821  19.848  0.00  0.00    +0.000 C 
ENDBRANCH   1  14
BRANCH  10  15
ATOM     15  C   UNL     1       4.779   6.280  16.447  0.00  0.00    +0.000 C 
ATOM     16  C   UNL     1       6.159   6.885  16.641  0.00  0.00    +0.000 C 
ENDBRANCH  10  15
BRANCH   7  17
ATOM     17  C   UNL     1       1.459   9.708  18.949  0.00  0.00    +0.000 C 
BRANCH  17  18
ATOM     18  O   UNL     1       0.577   9.757  17.824  0.00  0.00    +0.000 OA
BRANCH  18  19
ATOM     19  C   UNL     1      -0.621  10.389  18.025  0.00  0.00    +0.000 A 
ATOM     20  C   UNL     1      -1.698   9.884  17.292  0.00  0.00    +0.000 A 
ATOM     21  C   UNL     1      -2.982  10.413  17.457  0.00  0.00    +0.000 A 
ATOM     22  C   UNL     1      -3.213  11.430  18.382  0.00  0.00    +0.000 A 
ATOM     23  C   UNL     1      -2.141  11.945  19.109  0.00  0.00    +0.000 A 
ATOM     24  C   UNL     1      -0.847  11.427  18.930  0.00  0.00    +0.000 A 
BRANCH  22  25
ATOM     25  O   UNL     1      -4.507  11.870  18.456  0.00  0.00    +0.000 OA
ATOM     26  C   UNL     1      -4.913  12.397  19.715  0.00  0.00    +0.000 C 
ENDBRANCH  22  25
ENDBRANCH  18  19
ENDBRANCH  17  18
ENDBRANCH   7  17
TORSDOF 6
ENDMDL
MODEL 4
REMARK VINA RESULT:      -6.5      2.407      3.780
REMARK  Name = 
REMARK  10 active torsions:
REMARK  status: ('A' for Active; 'I' for Inactive)
REMARK    1  A    between atoms: C_1  and  C_2
REMARK    2  A    between atoms: C_2  and  N_3
REMARK    3  A    between atoms: C_9  and  C_10
REMARK    4  A    between atoms: C_10  and  O_11
REMARK    5  A    between atoms: O_11  and  C_12
REMARK    6  A    between atoms: C_15  and  O_16
REMARK    7  A    between atoms: O_16  and  C_17
REMARK    8  A    between atoms: N_20  and  C_21
REMARK    9  A    between atoms: N_22  and  C_23
REMARK   10  A    between atoms: C_23  and  C_24
REMARK                            x       y       z     vdW  Elec       q    Type
REMARK                         _______ _______ _______ _____ _____    ______ ____
ROOT
ATOM      1  N   UNL     1       3.409   4.195  19.541  0.00  0.00    +0.000 N 
ATOM      2  C   UNL     1       2.609   5.164  20.168  0.00  0.00    +0.000 A 
ATOM      3  O   UNL     1       1.999   4.973  21.220  0.00  0.00    +0.000 OA
ATOM      4  C   UNL     1       2.563   6.399  19.453  0.00  0.00    +0.000 A 
ATOM      5  C   UNL     1       3.246   6.602  18.293  0.00  0.00    +0.000 A 
ATOM      6  N   UNL     1       3.047   7.852  17.798  0.00  0.00    +0.000 NA
ATOM      7  C   UNL     1       2.213   8.441  18.642  0.00  0.00    +0.000 A 
ATOM      8  N   UNL     1       1.892   7.575  19.677  0.00  0.00    +0.000 N 
ATOM      9  C   UNL     1       1.019   7.820  20.798  0.00  0.00    +0.000 C 
ATOM     10  N   UNL     1       4.030   5.628  17.723  0.00  0.00    +0.000 N 
ATOM     11  C   UNL     1       4.169   4.398  18.368  0.00  0.00    +0.000 A 
ATOM     12  O   UNL     1       4.916   3.520  17.926  0.00  0.00    +0.000 OA
ENDROOT
BRANCH   1  14
ATOM     13  C   UNL     1       2.337   1.950  19.662  0.00  0.00    +0.000 C 
ATOM     14  C   UNL     1       3.460   2.862  20.137  0.00  0.00    +0.000 C 
ENDBRANCH   1  14
BRANCH  10  15
ATOM     15  C   UNL     1       4.707   5.870  16.453  0.00  0.00    +0.000 C 
ATOM     16  C   UNL     1       6.096   6.460  16.635  0.00  0.00    +0.000 C 
ENDBRANCH  10  15
BRANCH   7  17
ATOM     17  C   UNL     1       1.709   9.851  18.501  0.00  0.00    +0.000 C 
BRANCH  17  18
ATOM     18  O   UNL     1       0.431   9.776  17.865  0.00  0.00    +0.000 OA
BRANCH  18  19
ATOM     19  C   UNL     1      -0.571  10.516  18.437  0.00  0.00    +0.000 A 
ATOM     20  C   UNL     1      -0.227  11.190  19.610  0.00  0.00    +0.000 A 
ATOM     21  C   UNL     1      -1.152  12.020  20.251  0.00  0.00    +0.000 A 
ATOM     22  C   UNL     1      -2.420  12.216  19.709  0.00  0.00    +0.000 A 
ATOM     23  C   UNL     1      -2.773  11.538  18.542  0.00  0.00    +0.000 A 
ATOM     24  C   UNL     1      -1.852  10.688  17.908  0.00  0.00    +0.000 A 
BRANCH  22  25
ATOM     25  O   UNL     1      -3.240  13.048  20.422  0.00  0.00    +0.000 OA
ATOM     26  C   UNL     1      -3.405  12.728  21.799  0.00  0.00    +0.000 C 
ENDBRANCH  22  25
ENDBRANCH  18  19
ENDBRANCH  17  18
ENDBRANCH   7  17
TORSDOF 6
ENDMDL
MODEL 5
REMARK VINA RESULT:      -6.5      2.466      8.191
REMARK  Name = 
REMARK  10 active torsions:
REMARK  status: ('A' for Active; 'I' for Inactive)
REMARK    1  A    between atoms: C_1  and  C_2
REMARK    2  A    between atoms: C_2  and  N_3
REMARK    3  A    between atoms: C_9  and  C_10
REMARK    4  A    between atoms: C_10  and  O_11
REMARK    5  A    between atoms: O_11  and  C_12
REMARK    6  A    between atoms: C_15  and  O_16
REMARK    7  A    between atoms: O_16  and  C_17
REMARK    8  A    between atoms: N_20  and  C_21
REMARK    9  A    between atoms: N_22  and  C_23
REMARK   10  A    between atoms: C_23  and  C_24
REMARK                            x       y       z     vdW  Elec       q    Type
REMARK                         _______ _______ _______ _____ _____    ______ ____
ROOT
ATOM      1  N   UNL     1       1.230  11.011  19.396  0.00  0.00    +0.000 N 
ATOM      2  C   UNL     1       1.710  10.030  18.514  0.00  0.00    +0.000 A 
ATOM      3  O   UNL     1       1.971  10.241  17.330  0.00  0.00    +0.000 OA
ATOM      4  C   UNL     1       1.857   8.749  19.128  0.00  0.00    +0.000 A 
ATOM      5  C   UNL     1       1.571   8.527  20.440  0.00  0.00    +0.000 A 
ATOM      6  N   UNL     1       1.787   7.233  20.796  0.00  0.00    +0.000 NA
ATOM      7  C   UNL     1       2.195   6.624  19.693  0.00  0.00    +0.000 A 
ATOM      8  N   UNL     1       2.251   7.528  18.642  0.00  0.00    +0.000 N 
ATOM      9  C   UNL     1       2.641   7.276  17.276  0.00  0.00    +0.000 C 
ATOM     10  N   UNL     1       1.116   9.523  21.271  0.00  0.00    +0.000 N 
ATOM     11  C   UNL     1       0.977  10.819  20.772  0.00  0.00    +0.000 A 
ATOM     12  O   UNL     1       0.636  11.756  21.501  0.00  0.00    +0.000 OA
ENDROOT
BRANCH   1  14
ATOM     13  C   UNL     1       2.187  13.235  18.809  0.00  0.00    +0.000 C 
ATOM     14  C   UNL     1       0.956  12.340  18.855  0.00  0.00    +0.000 C 
ENDBRANCH   1  14
BRANCH  10  15
ATOM     15  C   UNL     1       0.776   9.232  22.660  0.00  0.00    +0.000 C 
ATOM     16  C   UNL     1      -0.721   9.276  22.916  0.00  0.00    +0.000 C 
ENDBRANCH  10  15
BRANCH   7  17
ATOM     17  C   UNL     1       2.561   5.168  19.606  0.00  0.00    +0.000 C 
BRANCH  17  18
ATOM     18  O   UNL     1       3.900   5.044  20.090  0.00  0.00    +0.000 OA
BRANCH  18  19
ATOM     19  C   UNL     1       4.879   4.943  19.136  0.00  0.00    +0.000 A 
ATOM     20  C   UNL     1       4.495   4.326  17.943  0.00  0.00    +0.000 A 
ATOM     21  C   UNL     1       5.394   4.217  16.877  0.00  0.00    +0.000 A 
ATOM     22  C   UNL     1       6.676   4.756  16.976  0.00  0.00    +0.000 A 
ATOM     23  C   UNL     1       7.067   5.365  18.168  0.00  0.00    +0.000 A 
ATOM     24  C   UNL     1       6.172   5.458  19.247  0.00  0.00    +0.000 A 
BRANCH  22  25
ATOM     25  O   UNL     1       7.467   4.589  15.873  0.00  0.00    +0.000 OA
ATOM     26  C   UNL     1       6.783   4.470  14.629  0.00  0.00    +0.000 C 
ENDBRANCH  22  25
ENDBRANCH  18  19
ENDBRANCH  17  18
ENDBRANCH   7  17
TORSDOF 6
ENDMDL
MODEL 6
REMARK VINA RESULT:      -6.5      2.451      8.311
REMARK  Name = 
REMARK  10 active torsions:
REMARK  status: ('A' for Active; 'I' for Inactive)
REMARK    1  A    between atoms: C_1  and  C_2
REMARK    2  A    between atoms: C_2  and  N_3
REMARK    3  A    between atoms: C_9  and  C_10
REMARK    4  A    between atoms: C_10  and  O_11
REMARK    5  A    between atoms: O_11  and  C_12
REMARK    6  A    between atoms: C_15  and  O_16
REMARK    7  A    between atoms: O_16  and  C_17
REMARK    8  A    between atoms: N_20  and  C_21
REMARK    9  A    between atoms: N_22  and  C_23
REMARK   10  A    between atoms: C_23  and  C_24
REMARK                            x       y       z     vdW  Elec       q    Type
REMARK                         _______ _______ _______ _____ _____    ______ ____
ROOT
ATOM      1  N   UNL     1       1.142  11.209  19.576  0.00  0.00    +0.000 N 
ATOM      2  C   UNL     1       1.614  10.231  18.686  0.00  0.00    +0.000 A 
ATOM      3  O   UNL     1       1.888  10.452  17.507  0.00  0.00    +0.000 OA
ATOM      4  C   UNL     1       1.737   8.940  19.285  0.00  0.00    +0.000 A 
ATOM      5  C   UNL     1       1.437   8.706  20.593  0.00  0.00    +0.000 A 
ATOM      6  N   UNL     1       1.631   7.405  20.934  0.00  0.00    +0.000 NA
ATOM      7  C   UNL     1       2.038   6.803  19.827  0.00  0.00    +0.000 A 
ATOM      8  N   UNL     1       2.116   7.719  18.788  0.00  0.00    +0.000 N 
ATOM      9  C   UNL     1       2.512   7.478  17.422  0.00  0.00    +0.000 C 
ATOM     10  N   UNL     1       0.992   9.699  21.432  0.00  0.00    +0.000 N 
ATOM     11  C   UNL     1       0.876  11.003  20.948  0.00  0.00    +0.000 A 
ATOM     12  O   UNL     1       0.544  11.936  21.686  0.00  0.00    +0.000 OA
ENDROOT
BRANCH   1  14
ATOM     13  C   UNL     1      -0.511  12.719  18.484  0.00  0.00    +0.000 C 
ATOM     14  C   UNL     1       0.893  12.548  19.050  0.00  0.00    +0.000 C 
ENDBRANCH   1  14
BRANCH  10  15
ATOM     15  C   UNL     1       0.636   9.396  22.815  0.00  0.00    +0.000 C 
ATOM     16  C   UNL     1      -0.839   9.624  23.102  0.00  0.00    +0.000 C 
ENDBRANCH  10  15
BRANCH   7  17
ATOM     17  C   UNL     1       2.382   5.343  19.725  0.00  0.00    +0.000 C 
BRANCH  17  18
ATOM     18  O   UNL     1       3.784   5.225  19.980  0.00  0.00    +0.000 OA
BRANCH  18  19
ATOM     19  C   UNL     1       4.581   5.019  18.886  0.00  0.00    +0.000 A 
ATOM     20  C   UNL     1       5.882   5.517  18.987  0.00  0.00    +0.000 A 
ATOM     21  C   UNL     1       6.803   5.317  17.953  0.00  0.00    +0.000 A 
ATOM     22  C   UNL     1       6.447   4.586  16.821  0.00  0.00    +0.000 A 
ATOM     23  C   UNL     1       5.146   4.094  16.711  0.00  0.00    +0.000 A 
ATOM     24  C   UNL     1       4.214   4.312  17.740  0.00  0.00    +0.000 A 
BRANCH  22  25
ATOM     25  O   UNL     1       7.428   4.455  15.877  0.00  0.00    +0.000 OA
ATOM     26  C   UNL     1       7.083   4.874  14.560  0.00  0.00    +0.000 C 
ENDBRANCH  22  25
ENDBRANCH  18  19
ENDBRANCH  17  18
ENDBRANCH   7  17
TORSDOF 6
ENDMDL
MODEL 7
REMARK VINA RESULT:      -6.5      4.340      9.721
REMARK  Name = 
REMARK  10 active torsions:
REMARK  status: ('A' for Active; 'I' for Inactive)
REMARK    1  A    between atoms: C_1  and  C_2
REMARK    2  A    between atoms: C_2  and  N_3
REMARK    3  A    between atoms: C_9  and  C_10
REMARK    4  A    between atoms: C_10  and  O_11
REMARK    5  A    between atoms: O_11  and  C_12
REMARK    6  A    between atoms: C_15  and  O_16
REMARK    7  A    between atoms: O_16  and  C_17
REMARK    8  A    between atoms: N_20  and  C_21
REMARK    9  A    between atoms: N_22  and  C_23
REMARK   10  A    between atoms: C_23  and  C_24
REMARK                            x       y       z     vdW  Elec       q    Type
REMARK                         _______ _______ _______ _____ _____    ______ ____
ROOT
ATOM      1  N   UNL     1      -3.745  12.148  19.251  0.00  0.00    +0.000 N 
ATOM      2  C   UNL     1      -2.497  12.280  19.881  0.00  0.00    +0.000 A 
ATOM      3  O   UNL     1      -2.299  12.987  20.868  0.00  0.00    +0.000 OA
ATOM      4  C   UNL     1      -1.468  11.514  19.251  0.00  0.00    +0.000 A 
ATOM      5  C   UNL     1      -1.699  10.731  18.162  0.00  0.00    +0.000 A 
ATOM      6  N   UNL     1      -0.570  10.102  17.741  0.00  0.00    +0.000 NA
ATOM      7  C   UNL     1       0.390  10.506  18.558  0.00  0.00    +0.000 A 
ATOM      8  N   UNL     1      -0.127  11.379  19.505  0.00  0.00    +0.000 N 
ATOM      9  C   UNL     1       0.578  12.047  20.572  0.00  0.00    +0.000 C 
ATOM     10  N   UNL     1      -2.942  10.621  17.587  0.00  0.00    +0.000 N 
ATOM     11  C   UNL     1      -4.021  11.301  18.155  0.00  0.00    +0.000 A 
ATOM     12  O   UNL     1      -5.166  11.177  17.710  0.00  0.00    +0.000 OA
ENDROOT
BRANCH   1  14
ATOM     13  C   UNL     1      -5.637  12.270  20.866  0.00  0.00    +0.000 C 
ATOM     14  C   UNL     1      -4.853  12.955  19.755  0.00  0.00    +0.000 C 
ENDBRANCH   1  14
BRANCH  10  15
ATOM     15  C   UNL     1      -3.137   9.807  16.391  0.00  0.00    +0.000 C 
ATOM     16  C   UNL     1      -2.985  10.608  15.109  0.00  0.00    +0.000 C 
ENDBRANCH  10  15
BRANCH   7  17
ATOM     17  C   UNL     1       1.824  10.062  18.477  0.00  0.00    +0.000 C 
BRANCH  17  18
ATOM     18  O   UNL     1       1.867   8.947  17.583  0.00  0.00    +0.000 OA
BRANCH  18  19
ATOM     19  C   UNL     1       2.550   7.845  18.026  0.00  0.00    +0.000 A 
ATOM     20  C   UNL     1       3.652   7.470  17.254  0.00  0.00    +0.000 A 
ATOM     21  C   UNL     1       4.458   6.394  17.640  0.00  0.00    +0.000 A 
ATOM     22  C   UNL     1       4.195   5.702  18.821  0.00  0.00    +0.000 A 
ATOM     23  C   UNL     1       3.090   6.066  19.590  0.00  0.00    +0.000 A 
ATOM     24  C   UNL     1       2.268   7.134  19.194  0.00  0.00    +0.000 A 
BRANCH  22  25
ATOM     25  O   UNL     1       5.048   4.669  19.096  0.00  0.00    +0.000 OA
ATOM     26  C   UNL     1       6.403   4.859  18.703  0.00  0.00    +0.000 C 
ENDBRANCH  22  25
ENDBRANCH  18  19
ENDBRANCH  17  18
ENDBRANCH   7  17
TORSDOF 6
ENDMDL
MODEL 8
REMARK VINA RESULT:      -6.5      3.882      9.500
REMARK  Name = 
REMARK  10 active torsions:
REMARK  status: ('A' for Active; 'I' for Inactive)
REMARK    1  A    between atoms: C_1  and  C_2
REMARK    2  A    between atoms: C_2  and  N_3
REMARK    3  A    between atoms: C_9  and  C_10
REMARK    4  A    between atoms: C_10  and  O_11
REMARK    5  A    between atoms: O_11  and  C_12
REMARK    6  A    between atoms: C_15  and  O_16
REMARK    7  A    between atoms: O_16  and  C_17
REMARK    8  A    between atoms: N_20  and  C_21
REMARK    9  A    between atoms: N_22  and  C_23
REMARK   10  A    between atoms: C_23  and  C_24
REMARK                            x       y       z     vdW  Elec       q    Type
REMARK                         _______ _______ _______ _____ _____    ______ ____
ROOT
ATOM      1  N   UNL     1      -1.960  12.109  21.837  0.00  0.00    +0.000 N 
ATOM      2  C   UNL     1      -0.957  11.202  22.218  0.00  0.00    +0.000 A 
ATOM      3  O   UNL     1      -0.646  10.976  23.387  0.00  0.00    +0.000 OA
ATOM      4  C   UNL     1      -0.321  10.571  21.106  0.00  0.00    +0.000 A 
ATOM      5  C   UNL     1      -0.676  10.825  19.816  0.00  0.00    +0.000 A 
ATOM      6  N   UNL     1       0.069  10.109  18.934  0.00  0.00    +0.000 NA
ATOM      7  C   UNL     1       0.919   9.409  19.670  0.00  0.00    +0.000 A 
ATOM      8  N   UNL     1       0.708   9.669  21.016  0.00  0.00    +0.000 N 
ATOM      9  C   UNL     1       1.417   9.118  22.146  0.00  0.00    +0.000 C 
ATOM     10  N   UNL     1      -1.675  11.710  19.490  0.00  0.00    +0.000 N 
ATOM     11  C   UNL     1      -2.383  12.348  20.511  0.00  0.00    +0.000 A 
ATOM     12  O   UNL     1      -3.331  13.100  20.264  0.00  0.00    +0.000 OA
ENDROOT
BRANCH   1  14
ATOM     13  C   UNL     1      -1.860  14.144  23.271  0.00  0.00    +0.000 C 
ATOM     14  C   UNL     1      -2.618  12.879  22.889  0.00  0.00    +0.000 C 
ENDBRANCH   1  14
BRANCH  10  15
ATOM     15  C   UNL     1      -1.993  11.989  18.094  0.00  0.00    +0.000 C 
ATOM     16  C   UNL     1      -3.009  11.016  17.520  0.00  0.00    +0.000 C 
ENDBRANCH  10  15
BRANCH   7  17
ATOM     17  C   UNL     1       1.947   8.460  19.119  0.00  0.00    +0.000 C 
BRANCH  17  18
ATOM     18  O   UNL     1       2.100   7.408  20.075  0.00  0.00    +0.000 OA
BRANCH  18  19
ATOM     19  C   UNL     1       2.210   6.141  19.566  0.00  0.00    +0.000 A 
ATOM     20  C   UNL     1       1.854   5.110  20.439  0.00  0.00    +0.000 A 
ATOM     21  C   UNL     1       1.872   3.778  20.011  0.00  0.00    +0.000 A 
ATOM     22  C   UNL     1       2.211   3.463  18.696  0.00  0.00    +0.000 A 
ATOM     23  C   UNL     1       2.577   4.488  17.824  0.00  0.00    +0.000 A 
ATOM     24  C   UNL     1       2.578   5.824  18.257  0.00  0.00    +0.000 A 
BRANCH  22  25
ATOM     25  O   UNL     1       2.195   2.129  18.392  0.00  0.00    +0.000 OA
ATOM     26  C   UNL     1       3.468   1.518  18.209  0.00  0.00    +0.000 C 
ENDBRANCH  22  25
ENDBRANCH  18  19
ENDBRANCH  17  18
ENDBRANCH   7  17
TORSDOF 6
ENDMDL
MODEL 9
REMARK VINA RESULT:      -6.5      2.975      4.340
REMARK  Name = 
REMARK  10 active torsions:
REMARK  status: ('A' for Active; 'I' for Inactive)
REMARK    1  A    between atoms: C_1  and  C_2
REMARK    2  A    between atoms: C_2  and  N_3
REMARK    3  A    between atoms: C_9  and  C_10
REMARK    4  A    between atoms: C_10  and  O_11
REMARK    5  A    between atoms: O_11  and  C_12
REMARK    6  A    between atoms: C_15  and  O_16
REMARK    7  A    between atoms: O_16  and  C_17
REMARK    8  A    between atoms: N_20  and  C_21
REMARK    9  A    between atoms: N_22  and  C_23
REMARK   10  A    between atoms: C_23  and  C_24
REMARK                            x       y       z     vdW  Elec       q    Type
REMARK                         _______ _______ _______ _____ _____    ______ ____
ROOT
ATOM      1  N   UNL     1       4.215   5.053  18.016  0.00  0.00    +0.000 N 
ATOM      2  C   UNL     1       3.834   6.367  17.701  0.00  0.00    +0.000 A 
ATOM      3  O   UNL     1       4.250   6.985  16.721  0.00  0.00    +0.000 OA
ATOM      4  C   UNL     1       2.917   6.925  18.642  0.00  0.00    +0.000 A 
ATOM      5  C   UNL     1       2.458   6.231  19.721  0.00  0.00    +0.000 A 
ATOM      6  N   UNL     1       1.599   6.969  20.472  0.00  0.00    +0.000 NA
ATOM      7  C   UNL     1       1.526   8.149  19.875  0.00  0.00    +0.000 A 
ATOM      8  N   UNL     1       2.327   8.160  18.742  0.00  0.00    +0.000 N 
ATOM      9  C   UNL     1       2.534   9.245  17.814  0.00  0.00    +0.000 C 
ATOM     10  N   UNL     1       2.848   4.940  19.982  0.00  0.00    +0.000 N 
ATOM     11  C   UNL     1       3.713   4.294  19.097  0.00  0.00    +0.000 A 
ATOM     12  O   UNL     1       4.035   3.113  19.258  0.00  0.00    +0.000 OA
ENDROOT
BRANCH   1  14
ATOM     13  C   UNL     1       6.648   4.725  17.594  0.00  0.00    +0.000 C 
ATOM     14  C   UNL     1       5.219   4.412  17.171  0.00  0.00    +0.000 C 
ENDBRANCH   1  14
BRANCH  10  15
ATOM     15  C   UNL     1       2.370   4.248  21.175  0.00  0.00    +0.000 C 
ATOM     16  C   UNL     1       1.141   3.397  20.903  0.00  0.00    +0.000 C 
ENDBRANCH  10  15
BRANCH   7  17
ATOM     17  C   UNL     1       0.682   9.298  20.353  0.00  0.00    +0.000 C 
BRANCH  17  18
ATOM     18  O   UNL     1       0.580  10.222  19.267  0.00  0.00    +0.000 OA
BRANCH  18  19
ATOM     19  C   UNL     1      -0.687  10.489  18.819  0.00  0.00    +0.000 A 
ATOM     20  C   UNL     1      -1.369  11.494  19.510  0.00  0.00    +0.000 A 
ATOM     21  C   UNL     1      -2.648  11.891  19.107  0.00  0.00    +0.000 A 
ATOM     22  C   UNL     1      -3.247  11.316  17.987  0.00  0.00    +0.000 A 
ATOM     23  C   UNL     1      -2.575  10.306  17.300  0.00  0.00    +0.000 A 
ATOM     24  C   UNL     1      -1.298   9.892  17.715  0.00  0.00    +0.000 A 
BRANCH  22  25
ATOM     25  O   UNL     1      -4.498  11.782  17.689  0.00  0.00    +0.000 OA
ATOM     26  C   UNL     1      -5.585  11.018  18.199  0.00  0.00    +0.000 C 
ENDBRANCH  22  25
ENDBRANCH  18  19
ENDBRANCH  17  18
ENDBRANCH   7  17
TORSDOF 6
ENDMDL
