MODEL 1
REMARK VINA RESULT:      -8.3      0.000      0.000
REMARK  Name = 
REMARK  11 active torsions:
REMARK  status: ('A' for Active; 'I' for Inactive)
REMARK    1  A    between atoms: C_2  and  C_3
REMARK    2  A    between atoms: N_5  and  C_6
REMARK    3  A    between atoms: C_6  and  C_7
REMARK    4  A    between atoms: C_6  and  C_22
REMARK    5  A    between atoms: C_7  and  C_8
REMARK    6  A    between atoms: C_11  and  C_12
REMARK    7  A    between atoms: C_22  and  O_23
REMARK    8  A    between atoms: C_22  and  C_24
REMARK    9  A    between atoms: C_24  and  O_25
REMARK   10  A    between atoms: C_24  and  C_26
REMARK   11  A    between atoms: C_26  and  O_28
REMARK                            x       y       z     vdW  Elec       q    Type
REMARK                         _______ _______ _______ _____ _____    ______ ____
ROOT
ATOM      1  C   UNL     1       3.758   4.718  18.852  0.00  0.00    +0.000 C 
ENDROOT
BRANCH   1   4
ATOM      2  C   UNL     1       1.931   2.901  19.244  0.00  0.00    +0.000 C 
ATOM      3  O   UNL     1       1.472   1.860  18.781  0.00  0.00    +0.000 OA
ATOM      4  N   UNL     1       3.018   3.456  18.650  0.00  0.00    +0.000 N 
ATOM      5  H   UNL     1       3.308   2.887  17.860  0.00  0.00    +0.000 HD
BRANCH   2   7
ATOM      6  C   UNL     1       1.759   3.185  21.667  0.00  0.00    +0.000 C 
ATOM      7  C   UNL     1       1.335   3.537  20.445  0.00  0.00    +0.000 C 
ENDBRANCH   2   7
ENDBRANCH   1   4
BRANCH   1   8
ATOM      8  C   UNL     1       3.242   5.800  17.876  0.00  0.00    +0.000 C 
BRANCH   8   9
ATOM      9  C   UNL     1       2.609   7.030  18.474  0.00  0.00    +0.000 A 
ATOM     10  C   UNL     1       2.314   8.138  17.681  0.00  0.00    +0.000 A 
ATOM     11  C   UNL     1       1.661   9.243  18.227  0.00  0.00    +0.000 A 
ATOM     12  C   UNL     1       1.237   9.269  19.567  0.00  0.00    +0.000 A 
ATOM     13  C   UNL     1       1.531   8.142  20.352  0.00  0.00    +0.000 A 
ATOM     14  C   UNL     1       2.213   7.042  19.816  0.00  0.00    +0.000 A 
BRANCH  12  15
ATOM     15  C   UNL     1       0.520  10.448  20.106  0.00  0.00    +0.000 A 
ATOM     16  C   UNL     1      -0.139  10.385  21.349  0.00  0.00    +0.000 A 
ATOM     17  C   UNL     1      -0.903  11.454  21.820  0.00  0.00    +0.000 A 
ATOM     18 CL   UNL     1      -1.748  11.299  23.311  0.00  0.00    +0.000 Cl
ATOM     19  C   UNL     1      -1.003  12.627  21.086  0.00  0.00    +0.000 A 
ATOM     20  C   UNL     1      -0.324  12.724  19.877  0.00  0.00    +0.000 A 
ATOM     21 CL   UNL     1      -0.431  14.176  18.958  0.00  0.00    +0.000 Cl
ATOM     22  C   UNL     1       0.429  11.651  19.388  0.00  0.00    +0.000 A 
ENDBRANCH  12  15
ENDBRANCH   8   9
ENDBRANCH   1   8
BRANCH   1  23
ATOM     23  C   UNL     1       5.287   4.450  18.628  0.00  0.00    +0.000 C 
BRANCH  23  24
ATOM     24  O   UNL     1       6.031   5.455  19.356  0.00  0.00    +0.000 OA
ATOM     25  H   UNL     1       5.581   5.607  20.207  0.00  0.00    +0.000 HD
ENDBRANCH  23  24
BRANCH  23  26
ATOM     26  C   UNL     1       5.829   4.465  17.183  0.00  0.00    +0.000 C 
BRANCH  26  27
ATOM     27  O   UNL     1       5.550   3.238  16.489  0.00  0.00    +0.000 OA
ATOM     28  H   UNL     1       5.307   3.453  15.570  0.00  0.00    +0.000 HD
ENDBRANCH  26  27
BRANCH  26  29
ATOM     29  C   UNL     1       7.302   4.838  17.045  0.00  0.00    +0.000 C 
ATOM     30  O   UNL     1       8.242   4.171  17.444  0.00  0.00    +0.000 OA
BRANCH  29  31
ATOM     31  O   UNL     1       7.455   6.019  16.392  0.00  0.00    +0.000 OA
ATOM     32  H   UNL     1       8.173   6.551  16.804  0.00  0.00    +0.000 HD
ENDBRANCH  29  31
ENDBRANCH  26  29
ENDBRANCH  23  26
ENDBRANCH   1  23
TORSDOF 11
ENDMDL
MODEL 2
REMARK VINA RESULT:      -8.1      2.031      4.301
REMARK  Name = 
REMARK  11 active torsions:
REMARK  status: ('A' for Active; 'I' for Inactive)
REMARK    1  A    between atoms: C_2  and  C_3
REMARK    2  A    between atoms: N_5  and  C_6
REMARK    3  A    between atoms: C_6  and  C_7
REMARK    4  A    between atoms: C_6  and  C_22
REMARK    5  A    between atoms: C_7  and  C_8
REMARK    6  A    between atoms: C_11  and  C_12
REMARK    7  A    between atoms: C_22  and  O_23
REMARK    8  A    between atoms: C_22  and  C_24
REMARK    9  A    between atoms: C_24  and  O_25
REMARK   10  A    between atoms: C_24  and  C_26
REMARK   11  A    between atoms: C_26  and  O_28
REMARK                            x       y       z     vdW  Elec       q    Type
REMARK                         _______ _______ _______ _____ _____    ______ ____
ROOT
ATOM      1  C   UNL     1       4.287   4.789  17.685  0.00  0.00    +0.000 C 
ENDROOT
BRANCH   1   4
ATOM      2  C   UNL     1       6.724   4.617  16.778  0.00  0.00    +0.000 C 
ATOM      3  O   UNL     1       7.885   4.420  17.126  0.00  0.00    +0.000 OA
ATOM      4  N   UNL     1       5.739   4.522  17.706  0.00  0.00    +0.000 N 
ATOM      5  H   UNL     1       6.138   4.285  18.610  0.00  0.00    +0.000 HD
BRANCH   2   7
ATOM      6  C   UNL     1       6.163   3.933  14.497  0.00  0.00    +0.000 C 
ATOM      7  C   UNL     1       6.387   4.929  15.367  0.00  0.00    +0.000 C 
ENDBRANCH   2   7
ENDBRANCH   1   4
BRANCH   1   8
ATOM      8  C   UNL     1       3.854   5.483  18.997  0.00  0.00    +0.000 C 
BRANCH   8   9
ATOM      9  C   UNL     1       2.995   6.716  18.880  0.00  0.00    +0.000 A 
ATOM     10  C   UNL     1       2.208   7.141  19.948  0.00  0.00    +0.000 A 
ATOM     11  C   UNL     1       1.473   8.324  19.858  0.00  0.00    +0.000 A 
ATOM     12  C   UNL     1       1.532   9.150  18.722  0.00  0.00    +0.000 A 
ATOM     13  C   UNL     1       2.337   8.716  17.657  0.00  0.00    +0.000 A 
ATOM     14  C   UNL     1       3.053   7.514  17.731  0.00  0.00    +0.000 A 
BRANCH  12  15
ATOM     15  C   UNL     1       0.762  10.414  18.672  0.00  0.00    +0.000 A 
ATOM     16  C   UNL     1      -0.629  10.403  18.449  0.00  0.00    +0.000 A 
ATOM     17  C   UNL     1      -1.349  11.589  18.297  0.00  0.00    +0.000 A 
ATOM     18 CL   UNL     1      -3.034  11.519  17.954  0.00  0.00    +0.000 Cl
ATOM     19  C   UNL     1      -0.713  12.819  18.400  0.00  0.00    +0.000 A 
ATOM     20  C   UNL     1       0.651  12.850  18.664  0.00  0.00    +0.000 A 
ATOM     21 CL   UNL     1       1.453  14.367  18.803  0.00  0.00    +0.000 Cl
ATOM     22  C   UNL     1       1.384  11.667  18.798  0.00  0.00    +0.000 A 
ENDBRANCH  12  15
ENDBRANCH   8   9
ENDBRANCH   1   8
BRANCH   1  23
ATOM     23  C   UNL     1       3.524   3.432  17.494  0.00  0.00    +0.000 C 
BRANCH  23  24
ATOM     24  O   UNL     1       2.150   3.731  17.156  0.00  0.00    +0.000 OA
ATOM     25  H   UNL     1       2.040   3.603  16.196  0.00  0.00    +0.000 HD
ENDBRANCH  23  24
BRANCH  23  26
ATOM     26  C   UNL     1       3.479   2.445  18.680  0.00  0.00    +0.000 C 
BRANCH  26  27
ATOM     27  O   UNL     1       4.008   1.156  18.331  0.00  0.00    +0.000 OA
ATOM     28  H   UNL     1       3.272   0.593  18.031  0.00  0.00    +0.000 HD
ENDBRANCH  26  27
BRANCH  26  29
ATOM     29  C   UNL     1       2.119   2.304  19.357  0.00  0.00    +0.000 C 
ATOM     30  O   UNL     1       1.739   2.946  20.322  0.00  0.00    +0.000 OA
BRANCH  29  31
ATOM     31  O   UNL     1       1.350   1.374  18.735  0.00  0.00    +0.000 OA
ATOM     32  H   UNL     1       1.309   0.548  19.269  0.00  0.00    +0.000 HD
ENDBRANCH  29  31
ENDBRANCH  26  29
ENDBRANCH  23  26
ENDBRANCH   1  23
TORSDOF 11
ENDMDL
MODEL 3
REMARK VINA RESULT:      -8.0      1.128      1.707
REMARK  Name = 
REMARK  11 active torsions:
REMARK  status: ('A' for Active; 'I' for Inactive)
REMARK    1  A    between atoms: C_2  and  C_3
REMARK    2  A    between atoms: N_5  and  C_6
REMARK    3  A    between atoms: C_6  and  C_7
REMARK    4  A    between atoms: C_6  and  C_22
REMARK    5  A    between atoms: C_7  and  C_8
REMARK    6  A    between atoms: C_11  and  C_12
REMARK    7  A    between atoms: C_22  and  O_23
REMARK    8  A    between atoms: C_22  and  C_24
REMARK    9  A    between atoms: C_24  and  O_25
REMARK   10  A    between atoms: C_24  and  C_26
REMARK   11  A    between atoms: C_26  and  O_28
REMARK                            x       y       z     vdW  Elec       q    Type
REMARK                         _______ _______ _______ _____ _____    ______ ____
ROOT
ATOM      1  C   UNL     1       4.775   4.969  18.580  0.00  0.00    +0.000 C 
ENDROOT
BRANCH   1   4
ATOM      2  C   UNL     1       3.879   2.642  19.339  0.00  0.00    +0.000 C 
ATOM      3  O   UNL     1       3.968   1.438  19.111  0.00  0.00    +0.000 OA
ATOM      4  N   UNL     1       4.678   3.496  18.652  0.00  0.00    +0.000 N 
ATOM      5  H   UNL     1       5.270   2.976  18.010  0.00  0.00    +0.000 HD
BRANCH   2   7
ATOM      6  C   UNL     1       1.618   3.120  20.140  0.00  0.00    +0.000 C 
ATOM      7  C   UNL     1       2.940   3.163  20.362  0.00  0.00    +0.000 C 
ENDBRANCH   2   7
ENDBRANCH   1   4
BRANCH   1   8
ATOM      8  C   UNL     1       3.634   5.534  17.704  0.00  0.00    +0.000 C 
BRANCH   8   9
ATOM      9  C   UNL     1       2.835   6.684  18.261  0.00  0.00    +0.000 A 
ATOM     10  C   UNL     1       2.442   6.699  19.598  0.00  0.00    +0.000 A 
ATOM     11  C   UNL     1       1.768   7.800  20.125  0.00  0.00    +0.000 A 
ATOM     12  C   UNL     1       1.501   8.947  19.354  0.00  0.00    +0.000 A 
ATOM     13  C   UNL     1       1.912   8.923  18.012  0.00  0.00    +0.000 A 
ATOM     14  C   UNL     1       2.563   7.807  17.470  0.00  0.00    +0.000 A 
BRANCH  12  15
ATOM     15  C   UNL     1       0.809  10.110  19.954  0.00  0.00    +0.000 A 
ATOM     16  C   UNL     1       0.193  10.011  21.216  0.00  0.00    +0.000 A 
ATOM     17  C   UNL     1      -0.550  11.067  21.746  0.00  0.00    +0.000 A 
ATOM     18 CL   UNL     1      -1.344  10.869  23.260  0.00  0.00    +0.000 Cl
ATOM     19  C   UNL     1      -0.668  12.264  21.053  0.00  0.00    +0.000 A 
ATOM     20  C   UNL     1      -0.030  12.396  19.826  0.00  0.00    +0.000 A 
ATOM     21 CL   UNL     1      -0.160  13.877  18.957  0.00  0.00    +0.000 Cl
ATOM     22  C   UNL     1       0.700  11.337  19.278  0.00  0.00    +0.000 A 
ENDBRANCH  12  15
ENDBRANCH   8   9
ENDBRANCH   1   8
BRANCH   1  23
ATOM     23  C   UNL     1       6.175   5.356  17.989  0.00  0.00    +0.000 C 
BRANCH  23  24
ATOM     24  O   UNL     1       6.067   6.673  17.402  0.00  0.00    +0.000 OA
ATOM     25  H   UNL     1       5.529   6.600  16.592  0.00  0.00    +0.000 HD
ENDBRANCH  23  24
BRANCH  23  26
ATOM     26  C   UNL     1       6.792   4.444  16.908  0.00  0.00    +0.000 C 
BRANCH  26  27
ATOM     27  O   UNL     1       8.165   4.126  17.188  0.00  0.00    +0.000 OA
ATOM     28  H   UNL     1       8.652   4.958  17.325  0.00  0.00    +0.000 HD
ENDBRANCH  26  27
BRANCH  26  29
ATOM     29  C   UNL     1       6.635   4.938  15.474  0.00  0.00    +0.000 C 
ATOM     30  O   UNL     1       5.640   4.802  14.783  0.00  0.00    +0.000 OA
BRANCH  29  31
ATOM     31  O   UNL     1       7.751   5.583  15.047  0.00  0.00    +0.000 OA
ATOM     32  H   UNL     1       8.347   5.780  15.805  0.00  0.00    +0.000 HD
ENDBRANCH  29  31
ENDBRANCH  26  29
ENDBRANCH  23  26
ENDBRANCH   1  23
TORSDOF 11
ENDMDL
MODEL 4
REMARK VINA RESULT:      -8.0      1.998      4.400
REMARK  Name = 
REMARK  11 active torsions:
REMARK  status: ('A' for Active; 'I' for Inactive)
REMARK    1  A    between atoms: C_2  and  C_3
REMARK    2  A    between atoms: N_5  and  C_6
REMARK    3  A    between atoms: C_6  and  C_7
REMARK    4  A    between atoms: C_6  and  C_22
REMARK    5  A    between atoms: C_7  and  C_8
REMARK    6  A    between atoms: C_11  and  C_12
REMARK    7  A    between atoms: C_22  and  O_23
REMARK    8  A    between atoms: C_22  and  C_24
REMARK    9  A    between atoms: C_24  and  O_25
REMARK   10  A    between atoms: C_24  and  C_26
REMARK   11  A    between atoms: C_26  and  O_28
REMARK                            x       y       z     vdW  Elec       q    Type
REMARK                         _______ _______ _______ _____ _____    ______ ____
ROOT
ATOM      1  C   UNL     1       4.261   4.652  17.648  0.00  0.00    +0.000 C 
ENDROOT
BRANCH   1   4
ATOM      2  C   UNL     1       6.833   5.042  17.491  0.00  0.00    +0.000 C 
ATOM      3  O   UNL     1       7.918   4.483  17.635  0.00  0.00    +0.000 OA
ATOM      4  N   UNL     1       5.699   4.313  17.640  0.00  0.00    +0.000 N 
ATOM      5  H   UNL     1       5.934   3.349  17.861  0.00  0.00    +0.000 HD
BRANCH   2   7
ATOM      6  C   UNL     1       7.668   7.339  17.605  0.00  0.00    +0.000 C 
ATOM      7  C   UNL     1       6.751   6.480  17.136  0.00  0.00    +0.000 C 
ENDBRANCH   2   7
ENDBRANCH   1   4
BRANCH   1   8
ATOM      8  C   UNL     1       3.900   5.404  18.949  0.00  0.00    +0.000 C 
BRANCH   8   9
ATOM      9  C   UNL     1       3.053   6.644  18.823  0.00  0.00    +0.000 A 
ATOM     10  C   UNL     1       2.261   7.079  19.884  0.00  0.00    +0.000 A 
ATOM     11  C   UNL     1       1.538   8.268  19.785  0.00  0.00    +0.000 A 
ATOM     12  C   UNL     1       1.612   9.091  18.647  0.00  0.00    +0.000 A 
ATOM     13  C   UNL     1       2.421   8.646  17.589  0.00  0.00    +0.000 A 
ATOM     14  C   UNL     1       3.126   7.438  17.672  0.00  0.00    +0.000 A 
BRANCH  12  15
ATOM     15  C   UNL     1       0.854  10.361  18.587  0.00  0.00    +0.000 A 
ATOM     16  C   UNL     1       1.503  11.598  18.766  0.00  0.00    +0.000 A 
ATOM     17  C   UNL     1       0.785  12.794  18.815  0.00  0.00    +0.000 A 
ATOM     18 CL   UNL     1       1.619  14.270  19.109  0.00  0.00    +0.000 Cl
ATOM     19  C   UNL     1      -0.593  12.797  18.650  0.00  0.00    +0.000 A 
ATOM     20  C   UNL     1      -1.246  11.591  18.428  0.00  0.00    +0.000 A 
ATOM     21 CL   UNL     1      -2.954  11.579  18.214  0.00  0.00    +0.000 Cl
ATOM     22  C   UNL     1      -0.538  10.385  18.397  0.00  0.00    +0.000 A 
ENDBRANCH  12  15
ENDBRANCH   8   9
ENDBRANCH   1   8
BRANCH   1  23
ATOM     23  C   UNL     1       3.428   3.329  17.519  0.00  0.00    +0.000 C 
BRANCH  23  24
ATOM     24  O   UNL     1       2.058   3.688  17.227  0.00  0.00    +0.000 OA
ATOM     25  H   UNL     1       2.013   3.983  16.299  0.00  0.00    +0.000 HD
ENDBRANCH  23  24
BRANCH  23  26
ATOM     26  C   UNL     1       3.382   2.372  18.729  0.00  0.00    +0.000 C 
BRANCH  26  27
ATOM     27  O   UNL     1       3.952   1.089  18.425  0.00  0.00    +0.000 OA
ATOM     28  H   UNL     1       4.119   1.045  17.466  0.00  0.00    +0.000 HD
ENDBRANCH  26  27
BRANCH  26  29
ATOM     29  C   UNL     1       2.011   2.211  19.379  0.00  0.00    +0.000 C 
ATOM     30  O   UNL     1       1.654   2.743  20.417  0.00  0.00    +0.000 OA
BRANCH  29  31
ATOM     31  O   UNL     1       1.205   1.405  18.642  0.00  0.00    +0.000 OA
ATOM     32  H   UNL     1       0.613   0.881  19.228  0.00  0.00    +0.000 HD
ENDBRANCH  29  31
ENDBRANCH  26  29
ENDBRANCH  23  26
ENDBRANCH   1  23
TORSDOF 11
ENDMDL
MODEL 5
REMARK VINA RESULT:      -8.0      0.333      1.739
REMARK  Name = 
REMARK  11 active torsions:
REMARK  status: ('A' for Active; 'I' for Inactive)
REMARK    1  A    between atoms: C_2  and  C_3
REMARK    2  A    between atoms: N_5  and  C_6
REMARK    3  A    between atoms: C_6  and  C_7
REMARK    4  A    between atoms: C_6  and  C_22
REMARK    5  A    between atoms: C_7  and  C_8
REMARK    6  A    between atoms: C_11  and  C_12
REMARK    7  A    between atoms: C_22  and  O_23
REMARK    8  A    between atoms: C_22  and  C_24
REMARK    9  A    between atoms: C_24  and  O_25
REMARK   10  A    between atoms: C_24  and  C_26
REMARK   11  A    between atoms: C_26  and  O_28
REMARK                            x       y       z     vdW  Elec       q    Type
REMARK                         _______ _______ _______ _____ _____    ______ ____
ROOT
ATOM      1  C   UNL     1       3.779   4.917  18.802  0.00  0.00    +0.000 C 
ENDROOT
BRANCH   1   4
ATOM      2  C   UNL     1       2.403   2.782  19.388  0.00  0.00    +0.000 C 
ATOM      3  O   UNL     1       1.647   1.943  18.905  0.00  0.00    +0.000 OA
ATOM      4  N   UNL     1       2.941   3.722  18.571  0.00  0.00    +0.000 N 
ATOM      5  H   UNL     1       2.616   3.580  17.619  0.00  0.00    +0.000 HD
BRANCH   2   7
ATOM      6  C   UNL     1       1.881   3.232  21.735  0.00  0.00    +0.000 C 
ATOM      7  C   UNL     1       2.752   2.763  20.830  0.00  0.00    +0.000 C 
ENDBRANCH   2   7
ENDBRANCH   1   4
BRANCH   1   8
ATOM      8  C   UNL     1       3.363   6.052  17.839  0.00  0.00    +0.000 C 
BRANCH   8   9
ATOM      9  C   UNL     1       2.646   7.238  18.431  0.00  0.00    +0.000 A 
ATOM     10  C   UNL     1       2.307   8.335  17.641  0.00  0.00    +0.000 A 
ATOM     11  C   UNL     1       1.579   9.396  18.179  0.00  0.00    +0.000 A 
ATOM     12  C   UNL     1       1.120   9.383  19.508  0.00  0.00    +0.000 A 
ATOM     13  C   UNL     1       1.459   8.267  20.291  0.00  0.00    +0.000 A 
ATOM     14  C   UNL     1       2.216   7.213  19.763  0.00  0.00    +0.000 A 
BRANCH  12  15
ATOM     15  C   UNL     1       0.323  10.513  20.039  0.00  0.00    +0.000 A 
ATOM     16  C   UNL     1       0.267  11.741  19.352  0.00  0.00    +0.000 A 
ATOM     17  C   UNL     1      -0.395  12.845  19.892  0.00  0.00    +0.000 A 
ATOM     18 CL   UNL     1      -0.371  14.344  19.046  0.00  0.00    +0.000 Cl
ATOM     19  C   UNL     1      -1.051  12.748  21.111  0.00  0.00    +0.000 A 
ATOM     20  C   UNL     1      -1.045  11.531  21.782  0.00  0.00    +0.000 A 
ATOM     21 CL   UNL     1      -1.860  11.391  23.292  0.00  0.00    +0.000 Cl
ATOM     22  C   UNL     1      -0.367  10.425  21.259  0.00  0.00    +0.000 A 
ENDBRANCH  12  15
ENDBRANCH   8   9
ENDBRANCH   1   8
BRANCH   1  23
ATOM     23  C   UNL     1       5.284   4.529  18.591  0.00  0.00    +0.000 C 
BRANCH  23  24
ATOM     24  O   UNL     1       6.100   5.498  19.288  0.00  0.00    +0.000 OA
ATOM     25  H   UNL     1       5.656   6.365  19.231  0.00  0.00    +0.000 HD
ENDBRANCH  23  24
BRANCH  23  26
ATOM     26  C   UNL     1       5.825   4.458  17.147  0.00  0.00    +0.000 C 
BRANCH  26  27
ATOM     27  O   UNL     1       5.563   3.185  16.534  0.00  0.00    +0.000 OA
ATOM     28  H   UNL     1       5.632   3.289  15.568  0.00  0.00    +0.000 HD
ENDBRANCH  26  27
BRANCH  26  29
ATOM     29  C   UNL     1       7.292   4.842  16.984  0.00  0.00    +0.000 C 
ATOM     30  O   UNL     1       8.244   4.173  17.350  0.00  0.00    +0.000 OA
BRANCH  29  31
ATOM     31  O   UNL     1       7.425   6.036  16.350  0.00  0.00    +0.000 OA
ATOM     32  H   UNL     1       6.622   6.233  15.816  0.00  0.00    +0.000 HD
ENDBRANCH  29  31
ENDBRANCH  26  29
ENDBRANCH  23  26
ENDBRANCH   1  23
TORSDOF 11
ENDMDL
MODEL 6
REMARK VINA RESULT:      -8.0      1.757      4.212
REMARK  Name = 
REMARK  11 active torsions:
REMARK  status: ('A' for Active; 'I' for Inactive)
REMARK    1  A    between atoms: C_2  and  C_3
REMARK    2  A    between atoms: N_5  and  C_6
REMARK    3  A    between atoms: C_6  and  C_7
REMARK    4  A    between atoms: C_6  and  C_22
REMARK    5  A    between atoms: C_7  and  C_8
REMARK    6  A    between atoms: C_11  and  C_12
REMARK    7  A    between atoms: C_22  and  O_23
REMARK    8  A    between atoms: C_22  and  C_24
REMARK    9  A    between atoms: C_24  and  O_25
REMARK   10  A    between atoms: C_24  and  C_26
REMARK   11  A    between atoms: C_26  and  O_28
REMARK                            x       y       z     vdW  Elec       q    Type
REMARK                         _______ _______ _______ _____ _____    ______ ____
ROOT
ATOM      1  C   UNL     1       4.542   4.565  17.521  0.00  0.00    +0.000 C 
ENDROOT
BRANCH   1   4
ATOM      2  C   UNL     1       7.118   4.764  17.173  0.00  0.00    +0.000 C 
ATOM      3  O   UNL     1       8.166   4.127  17.240  0.00  0.00    +0.000 OA
ATOM      4  N   UNL     1       5.946   4.121  17.408  0.00  0.00    +0.000 N 
ATOM      5  H   UNL     1       6.126   3.143  17.618  0.00  0.00    +0.000 HD
BRANCH   2   7
ATOM      6  C   UNL     1       7.478   7.119  17.727  0.00  0.00    +0.000 C 
ATOM      7  C   UNL     1       7.115   6.204  16.816  0.00  0.00    +0.000 C 
ENDBRANCH   2   7
ENDBRANCH   1   4
BRANCH   1   8
ATOM      8  C   UNL     1       4.323   5.304  18.861  0.00  0.00    +0.000 C 
BRANCH   8   9
ATOM      9  C   UNL     1       3.328   6.435  18.877  0.00  0.00    +0.000 A 
ATOM     10  C   UNL     1       2.524   6.663  19.991  0.00  0.00    +0.000 A 
ATOM     11  C   UNL     1       1.659   7.756  20.028  0.00  0.00    +0.000 A 
ATOM     12  C   UNL     1       1.596   8.689  18.977  0.00  0.00    +0.000 A 
ATOM     13  C   UNL     1       2.419   8.453  17.864  0.00  0.00    +0.000 A 
ATOM     14  C   UNL     1       3.267   7.340  17.810  0.00  0.00    +0.000 A 
BRANCH  12  15
ATOM     15  C   UNL     1       0.687   9.855  19.061  0.00  0.00    +0.000 A 
ATOM     16  C   UNL     1       0.793  10.778  20.119  0.00  0.00    +0.000 A 
ATOM     17  C   UNL     1      -0.121  11.822  20.267  0.00  0.00    +0.000 A 
ATOM     18 CL   UNL     1       0.010  12.878  21.619  0.00  0.00    +0.000 Cl
ATOM     19  C   UNL     1      -1.143  12.000  19.345  0.00  0.00    +0.000 A 
ATOM     20  C   UNL     1      -1.238  11.126  18.269  0.00  0.00    +0.000 A 
ATOM     21 CL   UNL     1      -2.495  11.337  17.112  0.00  0.00    +0.000 Cl
ATOM     22  C   UNL     1      -0.338  10.065  18.123  0.00  0.00    +0.000 A 
ENDBRANCH  12  15
ENDBRANCH   8   9
ENDBRANCH   1   8
BRANCH   1  23
ATOM     23  C   UNL     1       3.604   3.313  17.414  0.00  0.00    +0.000 C 
BRANCH  23  24
ATOM     24  O   UNL     1       2.295   3.766  17.000  0.00  0.00    +0.000 OA
ATOM     25  H   UNL     1       1.953   4.370  17.684  0.00  0.00    +0.000 HD
ENDBRANCH  23  24
BRANCH  23  26
ATOM     26  C   UNL     1       3.390   2.449  18.676  0.00  0.00    +0.000 C 
BRANCH  26  27
ATOM     27  O   UNL     1       3.885   1.111  18.505  0.00  0.00    +0.000 OA
ATOM     28  H   UNL     1       3.392   0.691  17.778  0.00  0.00    +0.000 HD
ENDBRANCH  26  27
BRANCH  26  29
ATOM     29  C   UNL     1       1.964   2.430  19.216  0.00  0.00    +0.000 C 
ATOM     30  O   UNL     1       1.052   1.744  18.784  0.00  0.00    +0.000 OA
BRANCH  29  31
ATOM     31  O   UNL     1       1.823   3.271  20.273  0.00  0.00    +0.000 OA
ATOM     32  H   UNL     1       1.815   4.207  19.971  0.00  0.00    +0.000 HD
ENDBRANCH  29  31
ENDBRANCH  26  29
ENDBRANCH  23  26
ENDBRANCH   1  23
TORSDOF 11
ENDMDL
MODEL 7
REMARK VINA RESULT:      -7.9      2.052      4.380
REMARK  Name = 
REMARK  11 active torsions:
REMARK  status: ('A' for Active; 'I' for Inactive)
REMARK    1  A    between atoms: C_2  and  C_3
REMARK    2  A    between atoms: N_5  and  C_6
REMARK    3  A    between atoms: C_6  and  C_7
REMARK    4  A    between atoms: C_6  and  C_22
REMARK    5  A    between atoms: C_7  and  C_8
REMARK    6  A    between atoms: C_11  and  C_12
REMARK    7  A    between atoms: C_22  and  O_23
REMARK    8  A    between atoms: C_22  and  C_24
REMARK    9  A    between atoms: C_24  and  O_25
REMARK   10  A    between atoms: C_24  and  C_26
REMARK   11  A    between atoms: C_26  and  O_28
REMARK                            x       y       z     vdW  Elec       q    Type
REMARK                         _______ _______ _______ _____ _____    ______ ____
ROOT
ATOM      1  C   UNL     1       4.342   4.526  17.612  0.00  0.00    +0.000 C 
ENDROOT
BRANCH   1   4
ATOM      2  C   UNL     1       6.766   4.501  16.654  0.00  0.00    +0.000 C 
ATOM      3  O   UNL     1       7.935   4.281  16.959  0.00  0.00    +0.000 OA
ATOM      4  N   UNL     1       5.798   4.281  17.580  0.00  0.00    +0.000 N 
ATOM      5  H   UNL     1       6.216   3.945  18.443  0.00  0.00    +0.000 HD
BRANCH   2   7
ATOM      6  C   UNL     1       6.229   4.084  14.304  0.00  0.00    +0.000 C 
ATOM      7  C   UNL     1       6.400   4.971  15.295  0.00  0.00    +0.000 C 
ENDBRANCH   2   7
ENDBRANCH   1   4
BRANCH   1   8
ATOM      8  C   UNL     1       3.943   5.187  18.952  0.00  0.00    +0.000 C 
BRANCH   8   9
ATOM      9  C   UNL     1       3.216   6.505  18.887  0.00  0.00    +0.000 A 
ATOM     10  C   UNL     1       3.274   7.297  17.742  0.00  0.00    +0.000 A 
ATOM     11  C   UNL     1       2.539   8.479  17.661  0.00  0.00    +0.000 A 
ATOM     12  C   UNL     1       1.683   8.893  18.698  0.00  0.00    +0.000 A 
ATOM     13  C   UNL     1       1.625   8.081  19.842  0.00  0.00    +0.000 A 
ATOM     14  C   UNL     1       2.385   6.908  19.939  0.00  0.00    +0.000 A 
BRANCH  12  15
ATOM     15  C   UNL     1       0.894  10.140  18.567  0.00  0.00    +0.000 A 
ATOM     16  C   UNL     1       1.502  11.399  18.732  0.00  0.00    +0.000 A 
ATOM     17  C   UNL     1       0.752  12.576  18.714  0.00  0.00    +0.000 A 
ATOM     18 CL   UNL     1       1.533  14.083  18.993  0.00  0.00    +0.000 Cl
ATOM     19  C   UNL     1      -0.618  12.536  18.494  0.00  0.00    +0.000 A 
ATOM     20  C   UNL     1      -1.229  11.305  18.284  0.00  0.00    +0.000 A 
ATOM     21 CL   UNL     1      -2.926  11.239  18.002  0.00  0.00    +0.000 Cl
ATOM     22  C   UNL     1      -0.489  10.119  18.321  0.00  0.00    +0.000 A 
ENDBRANCH  12  15
ENDBRANCH   8   9
ENDBRANCH   1   8
BRANCH   1  23
ATOM     23  C   UNL     1       3.594   3.161  17.419  0.00  0.00    +0.000 C 
BRANCH  23  24
ATOM     24  O   UNL     1       2.244   3.445  16.986  0.00  0.00    +0.000 OA
ATOM     25  H   UNL     1       2.274   3.687  16.042  0.00  0.00    +0.000 HD
ENDBRANCH  23  24
BRANCH  23  26
ATOM     26  C   UNL     1       3.475   2.214  18.632  0.00  0.00    +0.000 C 
BRANCH  26  27
ATOM     27  O   UNL     1       3.894   0.876  18.317  0.00  0.00    +0.000 OA
ATOM     28  H   UNL     1       3.109   0.300  18.317  0.00  0.00    +0.000 HD
ENDBRANCH  26  27
BRANCH  26  29
ATOM     29  C   UNL     1       2.111   2.204  19.317  0.00  0.00    +0.000 C 
ATOM     30  O   UNL     1       1.067   1.833  18.808  0.00  0.00    +0.000 OA
BRANCH  29  31
ATOM     31  O   UNL     1       2.196   2.646  20.598  0.00  0.00    +0.000 OA
ATOM     32  H   UNL     1       1.438   2.313  21.129  0.00  0.00    +0.000 HD
ENDBRANCH  29  31
ENDBRANCH  26  29
ENDBRANCH  23  26
ENDBRANCH   1  23
TORSDOF 11
ENDMDL
MODEL 8
REMARK VINA RESULT:      -7.9      1.961      4.367
REMARK  Name = 
REMARK  11 active torsions:
REMARK  status: ('A' for Active; 'I' for Inactive)
REMARK    1  A    between atoms: C_2  and  C_3
REMARK    2  A    between atoms: N_5  and  C_6
REMARK    3  A    between atoms: C_6  and  C_7
REMARK    4  A    between atoms: C_6  and  C_22
REMARK    5  A    between atoms: C_7  and  C_8
REMARK    6  A    between atoms: C_11  and  C_12
REMARK    7  A    between atoms: C_22  and  O_23
REMARK    8  A    between atoms: C_22  and  C_24
REMARK    9  A    between atoms: C_24  and  O_25
REMARK   10  A    between atoms: C_24  and  C_26
REMARK   11  A    between atoms: C_26  and  O_28
REMARK                            x       y       z     vdW  Elec       q    Type
REMARK                         _______ _______ _______ _____ _____    ______ ____
ROOT
ATOM      1  C   UNL     1       3.797   4.781  17.985  0.00  0.00    +0.000 C 
ENDROOT
BRANCH   1   4
ATOM      2  C   UNL     1       6.389   4.991  18.154  0.00  0.00    +0.000 C 
ATOM      3  O   UNL     1       7.410   4.344  18.376  0.00  0.00    +0.000 OA
ATOM      4  N   UNL     1       5.200   4.338  18.114  0.00  0.00    +0.000 N 
ATOM      5  H   UNL     1       5.344   3.347  18.283  0.00  0.00    +0.000 HD
BRANCH   2   7
ATOM      6  C   UNL     1       7.576   7.013  17.459  0.00  0.00    +0.000 C 
ATOM      7  C   UNL     1       6.443   6.452  17.907  0.00  0.00    +0.000 C 
ENDBRANCH   2   7
ENDBRANCH   1   4
BRANCH   1   8
ATOM      8  C   UNL     1       3.332   5.461  19.293  0.00  0.00    +0.000 C 
BRANCH   8   9
ATOM      9  C   UNL     1       2.683   6.817  19.179  0.00  0.00    +0.000 A 
ATOM     10  C   UNL     1       2.668   7.501  17.965  0.00  0.00    +0.000 A 
ATOM     11  C   UNL     1       2.001   8.720  17.849  0.00  0.00    +0.000 A 
ATOM     12  C   UNL     1       1.285   9.281  18.922  0.00  0.00    +0.000 A 
ATOM     13  C   UNL     1       1.299   8.576  20.136  0.00  0.00    +0.000 A 
ATOM     14  C   UNL     1       1.992   7.366  20.266  0.00  0.00    +0.000 A 
BRANCH  12  15
ATOM     15  C   UNL     1       0.563  10.563  18.755  0.00  0.00    +0.000 A 
ATOM     16  C   UNL     1       1.260  11.786  18.744  0.00  0.00    +0.000 A 
ATOM     17  C   UNL     1       0.584  13.006  18.691  0.00  0.00    +0.000 A 
ATOM     18 CL   UNL     1       1.480  14.475  18.754  0.00  0.00    +0.000 Cl
ATOM     19  C   UNL     1      -0.801  13.043  18.610  0.00  0.00    +0.000 A 
ATOM     20  C   UNL     1      -1.504  11.844  18.575  0.00  0.00    +0.000 A 
ATOM     21 CL   UNL     1      -3.221  11.872  18.467  0.00  0.00    +0.000 Cl
ATOM     22  C   UNL     1      -0.836  10.617  18.648  0.00  0.00    +0.000 A 
ENDBRANCH  12  15
ENDBRANCH   8   9
ENDBRANCH   1   8
BRANCH   1  23
ATOM     23  C   UNL     1       2.901   3.537  17.654  0.00  0.00    +0.000 C 
BRANCH  23  24
ATOM     24  O   UNL     1       1.642   4.017  17.128  0.00  0.00    +0.000 OA
ATOM     25  H   UNL     1       0.923   3.535  17.576  0.00  0.00    +0.000 HD
ENDBRANCH  23  24
BRANCH  23  26
ATOM     26  C   UNL     1       2.554   2.561  18.798  0.00  0.00    +0.000 C 
BRANCH  26  27
ATOM     27  O   UNL     1       3.093   1.248  18.571  0.00  0.00    +0.000 OA
ATOM     28  H   UNL     1       3.821   1.101  19.200  0.00  0.00    +0.000 HD
ENDBRANCH  26  27
BRANCH  26  29
ATOM     29  C   UNL     1       1.073   2.479  19.156  0.00  0.00    +0.000 C 
ATOM     30  O   UNL     1       0.199   2.005  18.450  0.00  0.00    +0.000 OA
BRANCH  29  31
ATOM     31  O   UNL     1       0.833   2.990  20.391  0.00  0.00    +0.000 OA
ATOM     32  H   UNL     1       0.904   3.971  20.378  0.00  0.00    +0.000 HD
ENDBRANCH  29  31
ENDBRANCH  26  29
ENDBRANCH  23  26
ENDBRANCH   1  23
TORSDOF 11
ENDMDL
MODEL 9
REMARK VINA RESULT:      -7.9      1.763      4.331
REMARK  Name = 
REMARK  11 active torsions:
REMARK  status: ('A' for Active; 'I' for Inactive)
REMARK    1  A    between atoms: C_2  and  C_3
REMARK    2  A    between atoms: N_5  and  C_6
REMARK    3  A    between atoms: C_6  and  C_7
REMARK    4  A    between atoms: C_6  and  C_22
REMARK    5  A    between atoms: C_7  and  C_8
REMARK    6  A    between atoms: C_11  and  C_12
REMARK    7  A    between atoms: C_22  and  O_23
REMARK    8  A    between atoms: C_22  and  C_24
REMARK    9  A    between atoms: C_24  and  O_25
REMARK   10  A    between atoms: C_24  and  C_26
REMARK   11  A    between atoms: C_26  and  O_28
REMARK                            x       y       z     vdW  Elec       q    Type
REMARK                         _______ _______ _______ _____ _____    ______ ____
ROOT
ATOM      1  C   UNL     1       4.535   4.548  17.369  0.00  0.00    +0.000 C 
ENDROOT
BRANCH   1   4
ATOM      2  C   UNL     1       7.131   4.752  17.469  0.00  0.00    +0.000 C 
ATOM      3  O   UNL     1       8.170   4.145  17.218  0.00  0.00    +0.000 OA
ATOM      4  N   UNL     1       5.946   4.181  17.135  0.00  0.00    +0.000 N 
ATOM      5  H   UNL     1       6.109   3.278  16.698  0.00  0.00    +0.000 HD
BRANCH   2   7
ATOM      6  C   UNL     1       7.424   7.177  17.354  0.00  0.00    +0.000 C 
ATOM      7  C   UNL     1       7.158   6.094  18.099  0.00  0.00    +0.000 C 
ENDBRANCH   2   7
ENDBRANCH   1   4
BRANCH   1   8
ATOM      8  C   UNL     1       4.395   5.294  18.716  0.00  0.00    +0.000 C 
BRANCH   8   9
ATOM      9  C   UNL     1       3.385   6.410  18.791  0.00  0.00    +0.000 A 
ATOM     10  C   UNL     1       2.625   6.608  19.942  0.00  0.00    +0.000 A 
ATOM     11  C   UNL     1       1.746   7.687  20.031  0.00  0.00    +0.000 A 
ATOM     12  C   UNL     1       1.626   8.635  18.999  0.00  0.00    +0.000 A 
ATOM     13  C   UNL     1       2.405   8.429  17.849  0.00  0.00    +0.000 A 
ATOM     14  C   UNL     1       3.267   7.330  17.743  0.00  0.00    +0.000 A 
BRANCH  12  15
ATOM     15  C   UNL     1       0.705   9.786  19.139  0.00  0.00    +0.000 A 
ATOM     16  C   UNL     1      -0.322  10.006  18.201  0.00  0.00    +0.000 A 
ATOM     17  C   UNL     1      -1.131  11.142  18.263  0.00  0.00    +0.000 A 
ATOM     18 CL   UNL     1      -2.324  11.400  17.050  0.00  0.00    +0.000 Cl
ATOM     19  C   UNL     1      -0.966  12.070  19.281  0.00  0.00    +0.000 A 
ATOM     20  C   UNL     1       0.013  11.848  20.242  0.00  0.00    +0.000 A 
ATOM     21 CL   UNL     1       0.226  12.986  21.515  0.00  0.00    +0.000 Cl
ATOM     22  C   UNL     1       0.842  10.723  20.176  0.00  0.00    +0.000 A 
ENDBRANCH  12  15
ENDBRANCH   8   9
ENDBRANCH   1   8
BRANCH   1  23
ATOM     23  C   UNL     1       3.664   3.243  17.362  0.00  0.00    +0.000 C 
BRANCH  23  24
ATOM     24  O   UNL     1       2.324   3.600  16.952  0.00  0.00    +0.000 OA
ATOM     25  H   UNL     1       2.195   4.550  17.130  0.00  0.00    +0.000 HD
ENDBRANCH  23  24
BRANCH  23  26
ATOM     26  C   UNL     1       3.523   2.450  18.678  0.00  0.00    +0.000 C 
BRANCH  26  27
ATOM     27  O   UNL     1       4.092   1.134  18.579  0.00  0.00    +0.000 OA
ATOM     28  H   UNL     1       4.439   1.015  17.677  0.00  0.00    +0.000 HD
ENDBRANCH  26  27
BRANCH  26  29
ATOM     29  C   UNL     1       2.110   2.384  19.249  0.00  0.00    +0.000 C 
ATOM     30  O   UNL     1       1.667   3.107  20.126  0.00  0.00    +0.000 OA
BRANCH  29  31
ATOM     31  O   UNL     1       1.374   1.418  18.642  0.00  0.00    +0.000 OA
ATOM     32  H   UNL     1       0.426   1.499  18.890  0.00  0.00    +0.000 HD
ENDBRANCH  29  31
ENDBRANCH  26  29
ENDBRANCH  23  26
ENDBRANCH   1  23
TORSDOF 11
ENDMDL
