MODEL 1
REMARK VINA RESULT:      -6.8      0.000      0.000
REMARK  Name = 
REMARK  5 active torsions:
REMARK  status: ('A' for Active; 'I' for Inactive)
REMARK    1  A    between atoms: C_2  and  O_3
REMARK    2  A    between atoms: C_2  and  C_4
REMARK    3  A    between atoms: C_4  and  C_5
REMARK    4  A    between atoms: C_5  and  N_6
REMARK    5  A    between atoms: C_9  and  C_10
REMARK                            x       y       z     vdW  Elec       q    Type
REMARK                         _______ _______ _______ _____ _____    ______ ____
ROOT
ATOM      1  N   UNL     1       6.754   4.421  13.667  0.00  0.00    +0.000 N 
ATOM      2  N   UNL     1       7.682   5.262  14.149  0.00  0.00    +0.000 NA
ATOM      3  N   UNL     1       7.298   5.510  15.392  0.00  0.00    +0.000 NA
ATOM      4  C   UNL     1       6.130   4.808  15.600  0.00  0.00    +0.000 A 
ATOM      5  N   UNL     1       5.761   4.101  14.516  0.00  0.00    +0.000 NA
ENDROOT
BRANCH   4   6
ATOM      6  C   UNL     1       5.398   4.840  16.859  0.00  0.00    +0.000 A 
ATOM      7  C   UNL     1       6.041   5.226  18.047  0.00  0.00    +0.000 A 
ATOM      8  C   UNL     1       5.347   5.247  19.258  0.00  0.00    +0.000 A 
ATOM      9  C   UNL     1       4.001   4.883  19.296  0.00  0.00    +0.000 A 
ATOM     10  C   UNL     1       3.354   4.506  18.121  0.00  0.00    +0.000 A 
ATOM     11 CL   UNL     1       1.694   4.057  18.171  0.00  0.00    +0.000 Cl
ATOM     12  C   UNL     1       4.042   4.484  16.908  0.00  0.00    +0.000 A 
ENDBRANCH   4   6
BRANCH   1  13
ATOM     13  C   UNL     1       6.750   3.972  12.293  0.00  0.00    +0.000 C 
BRANCH  13  14
ATOM     14  C   UNL     1       5.685   2.925  11.992  0.00  0.00    +0.000 C 
BRANCH  14  16
ATOM     15  O   UNL     1       5.739   0.646  11.193  0.00  0.00    +0.000 OA
ATOM     16  C   UNL     1       6.324   1.692  11.423  0.00  0.00    +0.000 C 
BRANCH  16  17
ATOM     17  O   UNL     1       7.644   1.852  11.181  0.00  0.00    +0.000 OA
ATOM     18  H   UNL     1       7.910   1.693  10.255  0.00  0.00    +0.000 HD
ENDBRANCH  16  17
ENDBRANCH  14  16
ENDBRANCH  13  14
ENDBRANCH   1  13
TORSDOF 5
ENDMDL
MODEL 2
REMARK VINA RESULT:      -6.8      1.952      2.687
REMARK  Name = 
REMARK  5 active torsions:
REMARK  status: ('A' for Active; 'I' for Inactive)
REMARK    1  A    between atoms: C_2  and  O_3
REMARK    2  A    between atoms: C_2  and  C_4
REMARK    3  A    between atoms: C_4  and  C_5
REMARK    4  A    between atoms: C_5  and  N_6
REMARK    5  A    between atoms: C_9  and  C_10
REMARK                            x       y       z     vdW  Elec       q    Type
REMARK                         _______ _______ _______ _____ _____    ______ ____
ROOT
ATOM      1  N   UNL     1       6.496   4.535  16.071  0.00  0.00    +0.000 N 
ATOM      2  N   UNL     1       7.383   4.471  17.076  0.00  0.00    +0.000 NA
ATOM      3  N   UNL     1       6.653   4.569  18.176  0.00  0.00    +0.000 NA
ATOM      4  C   UNL     1       5.341   4.704  17.777  0.00  0.00    +0.000 A 
ATOM      5  N   UNL     1       5.211   4.682  16.438  0.00  0.00    +0.000 NA
ENDROOT
BRANCH   4   6
ATOM      6  C   UNL     1       4.236   4.849  18.716  0.00  0.00    +0.000 A 
ATOM      7  C   UNL     1       3.498   6.043  18.768  0.00  0.00    +0.000 A 
ATOM      8  C   UNL     1       2.446   6.192  19.674  0.00  0.00    +0.000 A 
ATOM      9  C   UNL     1       2.119   5.147  20.539  0.00  0.00    +0.000 A 
ATOM     10  C   UNL     1       2.842   3.957  20.489  0.00  0.00    +0.000 A 
ATOM     11 CL   UNL     1       2.437   2.671  21.557  0.00  0.00    +0.000 Cl
ATOM     12  C   UNL     1       3.893   3.802  19.585  0.00  0.00    +0.000 A 
ENDBRANCH   4   6
BRANCH   1  13
ATOM     13  C   UNL     1       6.895   4.558  14.681  0.00  0.00    +0.000 C 
BRANCH  13  14
ATOM     14  C   UNL     1       5.893   3.896  13.744  0.00  0.00    +0.000 C 
BRANCH  14  16
ATOM     15  O   UNL     1       7.311   4.317  11.834  0.00  0.00    +0.000 OA
ATOM     16  C   UNL     1       6.552   3.573  12.434  0.00  0.00    +0.000 C 
BRANCH  16  17
ATOM     17  O   UNL     1       6.220   2.349  11.970  0.00  0.00    +0.000 OA
ATOM     18  H   UNL     1       6.196   1.648  12.649  0.00  0.00    +0.000 HD
ENDBRANCH  16  17
ENDBRANCH  14  16
ENDBRANCH  13  14
ENDBRANCH   1  13
TORSDOF 5
ENDMDL
MODEL 3
REMARK VINA RESULT:      -6.8      5.169      7.237
REMARK  Name = 
REMARK  5 active torsions:
REMARK  status: ('A' for Active; 'I' for Inactive)
REMARK    1  A    between atoms: C_2  and  O_3
REMARK    2  A    between atoms: C_2  and  C_4
REMARK    3  A    between atoms: C_4  and  C_5
REMARK    4  A    between atoms: C_5  and  N_6
REMARK    5  A    between atoms: C_9  and  C_10
REMARK                            x       y       z     vdW  Elec       q    Type
REMARK                         _______ _______ _______ _____ _____    ______ ____
ROOT
ATOM      1  N   UNL     1       1.907   3.877  18.749  0.00  0.00    +0.000 N 
ATOM      2  N   UNL     1       1.564   3.127  17.690  0.00  0.00    +0.000 NA
ATOM      3  N   UNL     1       2.557   3.289  16.828  0.00  0.00    +0.000 NA
ATOM      4  C   UNL     1       3.458   4.154  17.410  0.00  0.00    +0.000 A 
ATOM      5  N   UNL     1       3.070   4.542  18.639  0.00  0.00    +0.000 NA
ENDROOT
BRANCH   4   6
ATOM      6  C   UNL     1       4.686   4.582  16.754  0.00  0.00    +0.000 A 
ATOM      7  C   UNL     1       5.082   4.003  15.537  0.00  0.00    +0.000 A 
ATOM      8  C   UNL     1       6.263   4.400  14.909  0.00  0.00    +0.000 A 
ATOM      9  C   UNL     1       7.064   5.383  15.491  0.00  0.00    +0.000 A 
ATOM     10  C   UNL     1       6.676   5.967  16.695  0.00  0.00    +0.000 A 
ATOM     11 CL   UNL     1       7.666   7.178  17.411  0.00  0.00    +0.000 Cl
ATOM     12  C   UNL     1       5.495   5.575  17.326  0.00  0.00    +0.000 A 
ENDBRANCH   4   6
BRANCH   1  13
ATOM     13  C   UNL     1       1.037   4.053  19.890  0.00  0.00    +0.000 C 
BRANCH  13  14
ATOM     14  C   UNL     1       1.782   4.233  21.207  0.00  0.00    +0.000 C 
BRANCH  14  16
ATOM     15  O   UNL     1       3.312   2.417  21.650  0.00  0.00    +0.000 OA
ATOM     16  C   UNL     1       2.194   2.895  21.750  0.00  0.00    +0.000 C 
BRANCH  16  17
ATOM     17  O   UNL     1       1.185   2.253  22.378  0.00  0.00    +0.000 OA
ATOM     18  H   UNL     1       1.428   1.388  22.762  0.00  0.00    +0.000 HD
ENDBRANCH  16  17
ENDBRANCH  14  16
ENDBRANCH  13  14
ENDBRANCH   1  13
TORSDOF 5
ENDMDL
MODEL 4
REMARK VINA RESULT:      -6.7      1.998      2.733
REMARK  Name = 
REMARK  5 active torsions:
REMARK  status: ('A' for Active; 'I' for Inactive)
REMARK    1  A    between atoms: C_2  and  O_3
REMARK    2  A    between atoms: C_2  and  C_4
REMARK    3  A    between atoms: C_4  and  C_5
REMARK    4  A    between atoms: C_5  and  N_6
REMARK    5  A    between atoms: C_9  and  C_10
REMARK                            x       y       z     vdW  Elec       q    Type
REMARK                         _______ _______ _______ _____ _____    ______ ____
ROOT
ATOM      1  N   UNL     1       5.685   5.461  15.654  0.00  0.00    +0.000 N 
ATOM      2  N   UNL     1       5.521   6.766  15.918  0.00  0.00    +0.000 NA
ATOM      3  N   UNL     1       4.609   6.803  16.877  0.00  0.00    +0.000 NA
ATOM      4  C   UNL     1       4.249   5.499  17.140  0.00  0.00    +0.000 A 
ATOM      5  N   UNL     1       4.923   4.621  16.376  0.00  0.00    +0.000 NA
ENDROOT
BRANCH   4   6
ATOM      6  C   UNL     1       3.252   5.136  18.140  0.00  0.00    +0.000 A 
ATOM      7  C   UNL     1       3.072   5.928  19.285  0.00  0.00    +0.000 A 
ATOM      8  C   UNL     1       2.127   5.579  20.252  0.00  0.00    +0.000 A 
ATOM      9  C   UNL     1       1.349   4.433  20.083  0.00  0.00    +0.000 A 
ATOM     10  C   UNL     1       1.517   3.646  18.946  0.00  0.00    +0.000 A 
ATOM     11 CL   UNL     1       0.557   2.233  18.740  0.00  0.00    +0.000 Cl
ATOM     12  C   UNL     1       2.459   3.991  17.976  0.00  0.00    +0.000 A 
ENDBRANCH   4   6
BRANCH   1  13
ATOM     13  C   UNL     1       6.538   4.985  14.588  0.00  0.00    +0.000 C 
BRANCH  13  14
ATOM     14  C   UNL     1       6.110   3.640  14.014  0.00  0.00    +0.000 C 
BRANCH  14  16
ATOM     15  O   UNL     1       7.213   4.128  11.921  0.00  0.00    +0.000 OA
ATOM     16  C   UNL     1       6.265   3.647  12.520  0.00  0.00    +0.000 C 
BRANCH  16  17
ATOM     17  O   UNL     1       5.231   3.053  11.885  0.00  0.00    +0.000 OA
ATOM     18  H   UNL     1       4.952   3.495  11.060  0.00  0.00    +0.000 HD
ENDBRANCH  16  17
ENDBRANCH  14  16
ENDBRANCH  13  14
ENDBRANCH   1  13
TORSDOF 5
ENDMDL
MODEL 5
REMARK VINA RESULT:      -6.7      1.863      2.592
REMARK  Name = 
REMARK  5 active torsions:
REMARK  status: ('A' for Active; 'I' for Inactive)
REMARK    1  A    between atoms: C_2  and  O_3
REMARK    2  A    between atoms: C_2  and  C_4
REMARK    3  A    between atoms: C_4  and  C_5
REMARK    4  A    between atoms: C_5  and  N_6
REMARK    5  A    between atoms: C_9  and  C_10
REMARK                            x       y       z     vdW  Elec       q    Type
REMARK                         _______ _______ _______ _____ _____    ______ ____
ROOT
ATOM      1  N   UNL     1       6.261   4.414  16.071  0.00  0.00    +0.000 N 
ATOM      2  N   UNL     1       7.046   4.652  17.133  0.00  0.00    +0.000 NA
ATOM      3  N   UNL     1       6.217   4.671  18.166  0.00  0.00    +0.000 NA
ATOM      4  C   UNL     1       4.950   4.455  17.669  0.00  0.00    +0.000 A 
ATOM      5  N   UNL     1       4.949   4.283  16.335  0.00  0.00    +0.000 NA
ENDROOT
BRANCH   4   6
ATOM      6  C   UNL     1       3.762   4.416  18.513  0.00  0.00    +0.000 A 
ATOM      7  C   UNL     1       3.608   5.330  19.567  0.00  0.00    +0.000 A 
ATOM      8  C   UNL     1       2.478   5.290  20.386  0.00  0.00    +0.000 A 
ATOM      9  C   UNL     1       1.487   4.335  20.159  0.00  0.00    +0.000 A 
ATOM     10  C   UNL     1       1.630   3.428  19.110  0.00  0.00    +0.000 A 
ATOM     11 CL   UNL     1       0.407   2.251  18.832  0.00  0.00    +0.000 Cl
ATOM     12  C   UNL     1       2.756   3.465  18.288  0.00  0.00    +0.000 A 
ENDBRANCH   4   6
BRANCH   1  13
ATOM     13  C   UNL     1       6.767   4.407  14.717  0.00  0.00    +0.000 C 
BRANCH  13  14
ATOM     14  C   UNL     1       5.746   3.947  13.683  0.00  0.00    +0.000 C 
BRANCH  14  16
ATOM     15  O   UNL     1       7.280   4.221  11.837  0.00  0.00    +0.000 OA
ATOM     16  C   UNL     1       6.445   3.546  12.416  0.00  0.00    +0.000 C 
BRANCH  16  17
ATOM     17  O   UNL     1       6.055   2.333  11.967  0.00  0.00    +0.000 OA
ATOM     18  H   UNL     1       6.458   2.063  11.119  0.00  0.00    +0.000 HD
ENDBRANCH  16  17
ENDBRANCH  14  16
ENDBRANCH  13  14
ENDBRANCH   1  13
TORSDOF 5
ENDMDL
MODEL 6
REMARK VINA RESULT:      -6.7      5.327      7.095
REMARK  Name = 
REMARK  5 active torsions:
REMARK  status: ('A' for Active; 'I' for Inactive)
REMARK    1  A    between atoms: C_2  and  O_3
REMARK    2  A    between atoms: C_2  and  C_4
REMARK    3  A    between atoms: C_4  and  C_5
REMARK    4  A    between atoms: C_5  and  N_6
REMARK    5  A    between atoms: C_9  and  C_10
REMARK                            x       y       z     vdW  Elec       q    Type
REMARK                         _______ _______ _______ _____ _____    ______ ____
ROOT
ATOM      1  N   UNL     1       2.238   2.731  18.712  0.00  0.00    +0.000 N 
ATOM      2  N   UNL     1       2.921   1.595  18.506  0.00  0.00    +0.000 NA
ATOM      3  N   UNL     1       4.022   1.975  17.875  0.00  0.00    +0.000 NA
ATOM      4  C   UNL     1       3.943   3.340  17.715  0.00  0.00    +0.000 A 
ATOM      5  N   UNL     1       2.816   3.851  18.243  0.00  0.00    +0.000 NA
ENDROOT
BRANCH   4   6
ATOM      6  C   UNL     1       4.977   4.123  17.049  0.00  0.00    +0.000 A 
ATOM      7  C   UNL     1       5.177   4.006  15.664  0.00  0.00    +0.000 A 
ATOM      8  C   UNL     1       6.173   4.744  15.023  0.00  0.00    +0.000 A 
ATOM      9  C   UNL     1       6.981   5.610  15.760  0.00  0.00    +0.000 A 
ATOM     10  C   UNL     1       6.784   5.737  17.134  0.00  0.00    +0.000 A 
ATOM     11 CL   UNL     1       7.782   6.806  18.040  0.00  0.00    +0.000 Cl
ATOM     12  C   UNL     1       5.789   5.003  17.779  0.00  0.00    +0.000 A 
ENDBRANCH   4   6
BRANCH   1  13
ATOM     13  C   UNL     1       0.916   2.748  19.298  0.00  0.00    +0.000 C 
BRANCH  13  14
ATOM     14  C   UNL     1       0.729   3.825  20.360  0.00  0.00    +0.000 C 
BRANCH  14  16
ATOM     15  O   UNL     1       2.090   2.867  22.111  0.00  0.00    +0.000 OA
ATOM     16  C   UNL     1       1.868   3.785  21.337  0.00  0.00    +0.000 C 
BRANCH  16  17
ATOM     17  O   UNL     1       2.647   4.887  21.277  0.00  0.00    +0.000 OA
ATOM     18  H   UNL     1       2.969   5.110  20.383  0.00  0.00    +0.000 HD
ENDBRANCH  16  17
ENDBRANCH  14  16
ENDBRANCH  13  14
ENDBRANCH   1  13
TORSDOF 5
ENDMDL
MODEL 7
REMARK VINA RESULT:      -6.7      5.222      7.149
REMARK  Name = 
REMARK  5 active torsions:
REMARK  status: ('A' for Active; 'I' for Inactive)
REMARK    1  A    between atoms: C_2  and  O_3
REMARK    2  A    between atoms: C_2  and  C_4
REMARK    3  A    between atoms: C_4  and  C_5
REMARK    4  A    between atoms: C_5  and  N_6
REMARK    5  A    between atoms: C_9  and  C_10
REMARK                            x       y       z     vdW  Elec       q    Type
REMARK                         _______ _______ _______ _____ _____    ______ ____
ROOT
ATOM      1  N   UNL     1       2.163   4.353  18.742  0.00  0.00    +0.000 N 
ATOM      2  N   UNL     1       1.651   3.510  17.832  0.00  0.00    +0.000 NA
ATOM      3  N   UNL     1       2.586   3.416  16.899  0.00  0.00    +0.000 NA
ATOM      4  C   UNL     1       3.627   4.229  17.288  0.00  0.00    +0.000 A 
ATOM      5  N   UNL     1       3.386   4.837  18.463  0.00  0.00    +0.000 NA
ENDROOT
BRANCH   4   6
ATOM      6  C   UNL     1       4.843   4.393  16.502  0.00  0.00    +0.000 A 
ATOM      7  C   UNL     1       5.980   4.995  17.067  0.00  0.00    +0.000 A 
ATOM      8  C   UNL     1       7.143   5.166  16.315  0.00  0.00    +0.000 A 
ATOM      9  C   UNL     1       7.185   4.736  14.988  0.00  0.00    +0.000 A 
ATOM     10  C   UNL     1       6.064   4.133  14.423  0.00  0.00    +0.000 A 
ATOM     11 CL   UNL     1       6.118   3.604  12.787  0.00  0.00    +0.000 Cl
ATOM     12  C   UNL     1       4.899   3.958  15.170  0.00  0.00    +0.000 A 
ENDBRANCH   4   6
BRANCH   1  13
ATOM     13  C   UNL     1       1.413   4.804  19.893  0.00  0.00    +0.000 C 
BRANCH  13  14
ATOM     14  C   UNL     1       2.123   4.565  21.220  0.00  0.00    +0.000 C 
BRANCH  14  16
ATOM     15  O   UNL     1       2.961   2.430  21.979  0.00  0.00    +0.000 OA
ATOM     16  C   UNL     1       2.026   3.116  21.600  0.00  0.00    +0.000 C 
BRANCH  16  17
ATOM     17  O   UNL     1       0.771   2.628  21.482  0.00  0.00    +0.000 OA
ATOM     18  H   UNL     1       0.652   1.979  20.762  0.00  0.00    +0.000 HD
ENDBRANCH  16  17
ENDBRANCH  14  16
ENDBRANCH  13  14
ENDBRANCH   1  13
TORSDOF 5
ENDMDL
MODEL 8
REMARK VINA RESULT:      -6.7      1.020      1.288
REMARK  Name = 
REMARK  5 active torsions:
REMARK  status: ('A' for Active; 'I' for Inactive)
REMARK    1  A    between atoms: C_2  and  O_3
REMARK    2  A    between atoms: C_2  and  C_4
REMARK    3  A    between atoms: C_4  and  C_5
REMARK    4  A    between atoms: C_5  and  N_6
REMARK    5  A    between atoms: C_9  and  C_10
REMARK                            x       y       z     vdW  Elec       q    Type
REMARK                         _______ _______ _______ _____ _____    ______ ____
ROOT
ATOM      1  N   UNL     1       6.619   4.506  13.832  0.00  0.00    +0.000 N 
ATOM      2  N   UNL     1       7.484   5.277  14.508  0.00  0.00    +0.000 NA
ATOM      3  N   UNL     1       6.838   5.618  15.612  0.00  0.00    +0.000 NA
ATOM      4  C   UNL     1       5.590   5.040  15.544  0.00  0.00    +0.000 A 
ATOM      5  N   UNL     1       5.423   4.320  14.419  0.00  0.00    +0.000 NA
ENDROOT
BRANCH   4   6
ATOM      6  C   UNL     1       4.582   5.200  16.585  0.00  0.00    +0.000 A 
ATOM      7  C   UNL     1       4.394   6.444  17.208  0.00  0.00    +0.000 A 
ATOM      8  C   UNL     1       3.438   6.600  18.213  0.00  0.00    +0.000 A 
ATOM      9  C   UNL     1       2.659   5.512  18.608  0.00  0.00    +0.000 A 
ATOM     10  C   UNL     1       2.835   4.276  17.990  0.00  0.00    +0.000 A 
ATOM     11 CL   UNL     1       1.872   2.937  18.478  0.00  0.00    +0.000 Cl
ATOM     12  C   UNL     1       3.787   4.115  16.983  0.00  0.00    +0.000 A 
ENDBRANCH   4   6
BRANCH   1  13
ATOM     13  C   UNL     1       6.901   3.995  12.509  0.00  0.00    +0.000 C 
BRANCH  13  14
ATOM     14  C   UNL     1       5.898   2.954  12.026  0.00  0.00    +0.000 C 
BRANCH  14  16
ATOM     15  O   UNL     1       7.730   1.865  10.890  0.00  0.00    +0.000 OA
ATOM     16  C   UNL     1       6.622   1.800  11.395  0.00  0.00    +0.000 C 
BRANCH  16  17
ATOM     17  O   UNL     1       5.913   0.651  11.442  0.00  0.00    +0.000 OA
ATOM     18  H   UNL     1       5.727   0.323  12.344  0.00  0.00    +0.000 HD
ENDBRANCH  16  17
ENDBRANCH  14  16
ENDBRANCH  13  14
ENDBRANCH   1  13
TORSDOF 5
ENDMDL
MODEL 9
REMARK VINA RESULT:      -6.6      5.089      6.595
REMARK  Name = 
REMARK  5 active torsions:
REMARK  status: ('A' for Active; 'I' for Inactive)
REMARK    1  A    between atoms: C_2  and  O_3
REMARK    2  A    between atoms: C_2  and  C_4
REMARK    3  A    between atoms: C_4  and  C_5
REMARK    4  A    between atoms: C_5  and  N_6
REMARK    5  A    between atoms: C_9  and  C_10
REMARK                            x       y       z     vdW  Elec       q    Type
REMARK                         _______ _______ _______ _____ _____    ______ ____
ROOT
ATOM      1  N   UNL     1       3.151   3.277  20.491  0.00  0.00    +0.000 N 
ATOM      2  N   UNL     1       3.974   2.217  20.478  0.00  0.00    +0.000 NA
ATOM      3  N   UNL     1       5.010   2.606  19.751  0.00  0.00    +0.000 NA
ATOM      4  C   UNL     1       4.753   3.896  19.342  0.00  0.00    +0.000 A 
ATOM      5  N   UNL     1       3.574   4.351  19.803  0.00  0.00    +0.000 NA
ENDROOT
BRANCH   4   6
ATOM      6  C   UNL     1       5.670   4.662  18.507  0.00  0.00    +0.000 A 
ATOM      7  C   UNL     1       6.550   5.592  19.086  0.00  0.00    +0.000 A 
ATOM      8  C   UNL     1       7.422   6.337  18.290  0.00  0.00    +0.000 A 
ATOM      9  C   UNL     1       7.426   6.161  16.906  0.00  0.00    +0.000 A 
ATOM     10  C   UNL     1       6.560   5.236  16.326  0.00  0.00    +0.000 A 
ATOM     11 CL   UNL     1       6.566   5.021  14.619  0.00  0.00    +0.000 Cl
ATOM     12  C   UNL     1       5.688   4.487  17.116  0.00  0.00    +0.000 A 
ENDBRANCH   4   6
BRANCH   1  13
ATOM     13  C   UNL     1       1.843   3.238  21.108  0.00  0.00    +0.000 C 
BRANCH  13  14
ATOM     14  C   UNL     1       0.696   3.442  20.126  0.00  0.00    +0.000 C 
BRANCH  14  16
ATOM     15  O   UNL     1       1.100   3.441  17.745  0.00  0.00    +0.000 OA
ATOM     16  C   UNL     1       1.041   2.831  18.799  0.00  0.00    +0.000 C 
BRANCH  16  17
ATOM     17  O   UNL     1       1.289   1.505  18.884  0.00  0.00    +0.000 OA
ATOM     18  H   UNL     1       2.222   1.276  19.060  0.00  0.00    +0.000 HD
ENDBRANCH  16  17
ENDBRANCH  14  16
ENDBRANCH  13  14
ENDBRANCH   1  13
TORSDOF 5
ENDMDL
