MODEL 1
REMARK VINA RESULT:      -6.7      0.000      0.000
REMARK  Name = 
REMARK  6 active torsions:
REMARK  status: ('A' for Active; 'I' for Inactive)
REMARK    1  A    between atoms: C_1  and  N_2
REMARK    2  A    between atoms: N_2  and  C_3
REMARK    3  A    between atoms: N_2  and  C_4
REMARK    4  A    between atoms: C_4  and  C_5
REMARK    5  A    between atoms: C_10  and  O_11
REMARK    6  A    between atoms: O_11  and  C_12
REMARK                            x       y       z     vdW  Elec       q    Type
REMARK                         _______ _______ _______ _____ _____    ______ ____
ROOT
ATOM      1  C   UNL     1       2.484   5.064  19.747  0.00  0.00    +0.000 A 
ATOM      2  C   UNL     1       1.858   5.895  20.706  0.00  0.00    +0.000 A 
ATOM      3  C   UNL     1       1.690   7.264  20.513  0.00  0.00    +0.000 A 
ATOM      4  C   UNL     1       2.080   7.836  19.316  0.00  0.00    +0.000 A 
ATOM      5  C   UNL     1       2.731   7.055  18.370  0.00  0.00    +0.000 A 
ATOM      6  C   UNL     1       3.071   5.711  18.636  0.00  0.00    +0.000 A 
ENDROOT
BRANCH   1   7
ATOM      7  C   UNL     1       2.469   3.552  20.012  0.00  0.00    +0.000 C 
BRANCH   7   9
ATOM      8  C   UNL     1       3.152   1.694  18.547  0.00  0.00    +0.000 C 
ATOM      9  N   UNL     1       2.176   2.764  18.774  0.00  0.00    +0.000 NA
ATOM     10  C   UNL     1       0.822   2.222  18.697  0.00  0.00    +0.000 C 
ENDBRANCH   7   9
ENDBRANCH   1   7
BRANCH   6  11
ATOM     11  O   UNL     1       4.023   5.086  17.830  0.00  0.00    +0.000 OA
BRANCH  11  12
ATOM     12  C   UNL     1       5.354   5.504  18.000  0.00  0.00    +0.000 A 
ATOM     13  C   UNL     1       6.082   5.207  19.166  0.00  0.00    +0.000 A 
ATOM     14  C   UNL     1       7.339   5.779  19.399  0.00  0.00    +0.000 A 
ATOM     15  C   UNL     1       7.924   6.598  18.438  0.00  0.00    +0.000 A 
ATOM     16  C   UNL     1       7.248   6.842  17.237  0.00  0.00    +0.000 A 
ATOM     17  C   UNL     1       5.972   6.291  17.016  0.00  0.00    +0.000 A 
ATOM     18 CL   UNL     1       5.173   6.681  15.538  0.00  0.00    +0.000 Cl
ENDBRANCH  11  12
ENDBRANCH   6  11
TORSDOF 4
ENDMDL
MODEL 2
REMARK VINA RESULT:      -6.7      2.419      5.481
REMARK  Name = 
REMARK  6 active torsions:
REMARK  status: ('A' for Active; 'I' for Inactive)
REMARK    1  A    between atoms: C_1  and  N_2
REMARK    2  A    between atoms: N_2  and  C_3
REMARK    3  A    between atoms: N_2  and  C_4
REMARK    4  A    between atoms: C_4  and  C_5
REMARK    5  A    between atoms: C_10  and  O_11
REMARK    6  A    between atoms: O_11  and  C_12
REMARK                            x       y       z     vdW  Elec       q    Type
REMARK                         _______ _______ _______ _____ _____    ______ ____
ROOT
ATOM      1  C   UNL     1       5.816   5.947  16.909  0.00  0.00    +0.000 A 
ATOM      2  C   UNL     1       7.172   6.215  17.211  0.00  0.00    +0.000 A 
ATOM      3  C   UNL     1       7.699   6.056  18.491  0.00  0.00    +0.000 A 
ATOM      4  C   UNL     1       6.898   5.552  19.499  0.00  0.00    +0.000 A 
ATOM      5  C   UNL     1       5.553   5.314  19.244  0.00  0.00    +0.000 A 
ATOM      6  C   UNL     1       4.972   5.648  18.002  0.00  0.00    +0.000 A 
ENDROOT
BRANCH   1   7
ATOM      7  C   UNL     1       5.400   6.013  15.432  0.00  0.00    +0.000 C 
BRANCH   7   9
ATOM      8  C   UNL     1       7.012   4.925  13.921  0.00  0.00    +0.000 C 
ATOM      9  N   UNL     1       5.770   4.771  14.685  0.00  0.00    +0.000 NA
ATOM     10  C   UNL     1       5.838   3.561  15.500  0.00  0.00    +0.000 C 
ENDBRANCH   7   9
ENDBRANCH   1   7
BRANCH   6  11
ATOM     11  O   UNL     1       3.582   5.735  17.911  0.00  0.00    +0.000 OA
BRANCH  11  12
ATOM     12  C   UNL     1       2.859   4.603  18.326  0.00  0.00    +0.000 A 
ATOM     13  C   UNL     1       2.915   3.388  17.622  0.00  0.00    +0.000 A 
ATOM     14  C   UNL     1       2.056   2.328  17.939  0.00  0.00    +0.000 A 
ATOM     15  C   UNL     1       1.178   2.436  19.013  0.00  0.00    +0.000 A 
ATOM     16  C   UNL     1       1.164   3.610  19.776  0.00  0.00    +0.000 A 
ATOM     17  C   UNL     1       2.006   4.686  19.438  0.00  0.00    +0.000 A 
ATOM     18 CL   UNL     1       1.894   6.123  20.386  0.00  0.00    +0.000 Cl
ENDBRANCH  11  12
ENDBRANCH   6  11
TORSDOF 4
ENDMDL
MODEL 3
REMARK VINA RESULT:      -6.6      0.832      1.223
REMARK  Name = 
REMARK  6 active torsions:
REMARK  status: ('A' for Active; 'I' for Inactive)
REMARK    1  A    between atoms: C_1  and  N_2
REMARK    2  A    between atoms: N_2  and  C_3
REMARK    3  A    between atoms: N_2  and  C_4
REMARK    4  A    between atoms: C_4  and  C_5
REMARK    5  A    between atoms: C_10  and  O_11
REMARK    6  A    between atoms: O_11  and  C_12
REMARK                            x       y       z     vdW  Elec       q    Type
REMARK                         _______ _______ _______ _____ _____    ______ ____
ROOT
ATOM      1  C   UNL     1       2.163   5.314  19.498  0.00  0.00    +0.000 A 
ATOM      2  C   UNL     1       1.598   6.136  20.502  0.00  0.00    +0.000 A 
ATOM      3  C   UNL     1       1.597   7.526  20.418  0.00  0.00    +0.000 A 
ATOM      4  C   UNL     1       2.100   8.140  19.285  0.00  0.00    +0.000 A 
ATOM      5  C   UNL     1       2.695   7.363  18.299  0.00  0.00    +0.000 A 
ATOM      6  C   UNL     1       2.866   5.972  18.464  0.00  0.00    +0.000 A 
ENDROOT
BRANCH   1   7
ATOM      7  C   UNL     1       1.962   3.798  19.638  0.00  0.00    +0.000 C 
BRANCH   7   9
ATOM      8  C   UNL     1       2.512   2.540  21.682  0.00  0.00    +0.000 C 
ATOM      9  N   UNL     1       3.036   3.159  20.460  0.00  0.00    +0.000 NA
ATOM     10  C   UNL     1       3.874   2.204  19.742  0.00  0.00    +0.000 C 
ENDBRANCH   7   9
ENDBRANCH   1   7
BRANCH   6  11
ATOM     11  O   UNL     1       3.772   5.303  17.641  0.00  0.00    +0.000 OA
BRANCH  11  12
ATOM     12  C   UNL     1       5.134   5.575  17.863  0.00  0.00    +0.000 A 
ATOM     13  C   UNL     1       5.776   5.216  19.061  0.00  0.00    +0.000 A 
ATOM     14  C   UNL     1       7.078   5.649  19.342  0.00  0.00    +0.000 A 
ATOM     15  C   UNL     1       7.788   6.386  18.399  0.00  0.00    +0.000 A 
ATOM     16  C   UNL     1       7.193   6.685  17.167  0.00  0.00    +0.000 A 
ATOM     17  C   UNL     1       5.874   6.275  16.898  0.00  0.00    +0.000 A 
ATOM     18 CL   UNL     1       5.185   6.729  15.384  0.00  0.00    +0.000 Cl
ENDBRANCH  11  12
ENDBRANCH   6  11
TORSDOF 4
ENDMDL
MODEL 4
REMARK VINA RESULT:      -6.6      0.701      1.019
REMARK  Name = 
REMARK  6 active torsions:
REMARK  status: ('A' for Active; 'I' for Inactive)
REMARK    1  A    between atoms: C_1  and  N_2
REMARK    2  A    between atoms: N_2  and  C_3
REMARK    3  A    between atoms: N_2  and  C_4
REMARK    4  A    between atoms: C_4  and  C_5
REMARK    5  A    between atoms: C_10  and  O_11
REMARK    6  A    between atoms: O_11  and  C_12
REMARK                            x       y       z     vdW  Elec       q    Type
REMARK                         _______ _______ _______ _____ _____    ______ ____
ROOT
ATOM      1  C   UNL     1       1.959   4.547  19.176  0.00  0.00    +0.000 A 
ATOM      2  C   UNL     1       1.349   5.011  20.365  0.00  0.00    +0.000 A 
ATOM      3  C   UNL     1       1.449   6.333  20.791  0.00  0.00    +0.000 A 
ATOM      4  C   UNL     1       2.107   7.256  19.998  0.00  0.00    +0.000 A 
ATOM      5  C   UNL     1       2.748   6.825  18.844  0.00  0.00    +0.000 A 
ATOM      6  C   UNL     1       2.808   5.456  18.505  0.00  0.00    +0.000 A 
ENDROOT
BRANCH   1   7
ATOM      7  C   UNL     1       1.644   3.109  18.740  0.00  0.00    +0.000 C 
BRANCH   7   9
ATOM      8  C   UNL     1       3.573   1.684  18.182  0.00  0.00    +0.000 C 
ATOM      9  N   UNL     1       2.662   2.132  19.239  0.00  0.00    +0.000 NA
ATOM     10  C   UNL     1       3.431   2.582  20.396  0.00  0.00    +0.000 C 
ENDBRANCH   7   9
ENDBRANCH   1   7
BRANCH   6  11
ATOM     11  O   UNL     1       3.748   5.037  17.563  0.00  0.00    +0.000 OA
BRANCH  11  12
ATOM     12  C   UNL     1       5.086   5.379  17.824  0.00  0.00    +0.000 A 
ATOM     13  C   UNL     1       5.728   5.006  19.018  0.00  0.00    +0.000 A 
ATOM     14  C   UNL     1       6.997   5.504  19.343  0.00  0.00    +0.000 A 
ATOM     15  C   UNL     1       7.677   6.323  18.447  0.00  0.00    +0.000 A 
ATOM     16  C   UNL     1       7.087   6.640  17.218  0.00  0.00    +0.000 A 
ATOM     17  C   UNL     1       5.800   6.165  16.906  0.00  0.00    +0.000 A 
ATOM     18 CL   UNL     1       5.111   6.644  15.399  0.00  0.00    +0.000 Cl
ENDBRANCH  11  12
ENDBRANCH   6  11
TORSDOF 4
ENDMDL
MODEL 5
REMARK VINA RESULT:      -6.6      2.046      3.898
REMARK  Name = 
REMARK  6 active torsions:
REMARK  status: ('A' for Active; 'I' for Inactive)
REMARK    1  A    between atoms: C_1  and  N_2
REMARK    2  A    between atoms: N_2  and  C_3
REMARK    3  A    between atoms: N_2  and  C_4
REMARK    4  A    between atoms: C_4  and  C_5
REMARK    5  A    between atoms: C_10  and  O_11
REMARK    6  A    between atoms: O_11  and  C_12
REMARK                            x       y       z     vdW  Elec       q    Type
REMARK                         _______ _______ _______ _____ _____    ______ ____
ROOT
ATOM      1  C   UNL     1       2.812   4.530  19.275  0.00  0.00    +0.000 A 
ATOM      2  C   UNL     1       1.479   4.169  18.968  0.00  0.00    +0.000 A 
ATOM      3  C   UNL     1       1.088   2.847  18.772  0.00  0.00    +0.000 A 
ATOM      4  C   UNL     1       2.010   1.831  18.950  0.00  0.00    +0.000 A 
ATOM      5  C   UNL     1       3.334   2.154  19.214  0.00  0.00    +0.000 A 
ATOM      6  C   UNL     1       3.774   3.495  19.229  0.00  0.00    +0.000 A 
ENDROOT
BRANCH   1   7
ATOM      7  C   UNL     1       3.079   6.003  19.618  0.00  0.00    +0.000 C 
BRANCH   7   9
ATOM      8  C   UNL     1       2.014   8.148  19.045  0.00  0.00    +0.000 C 
ATOM      9  N   UNL     1       2.635   6.925  18.526  0.00  0.00    +0.000 NA
ATOM     10  C   UNL     1       3.669   7.270  17.555  0.00  0.00    +0.000 C 
ENDBRANCH   7   9
ENDBRANCH   1   7
BRANCH   6  11
ATOM     11  O   UNL     1       5.141   3.757  19.135  0.00  0.00    +0.000 OA
BRANCH  11  12
ATOM     12  C   UNL     1       5.597   4.250  17.900  0.00  0.00    +0.000 A 
ATOM     13  C   UNL     1       5.019   3.850  16.682  0.00  0.00    +0.000 A 
ATOM     14  C   UNL     1       5.595   4.208  15.456  0.00  0.00    +0.000 A 
ATOM     15  C   UNL     1       6.715   5.033  15.424  0.00  0.00    +0.000 A 
ATOM     16  C   UNL     1       7.257   5.506  16.625  0.00  0.00    +0.000 A 
ATOM     17  C   UNL     1       6.695   5.122  17.857  0.00  0.00    +0.000 A 
ATOM     18 CL   UNL     1       7.451   5.696  19.297  0.00  0.00    +0.000 Cl
ENDBRANCH  11  12
ENDBRANCH   6  11
TORSDOF 4
ENDMDL
MODEL 6
REMARK VINA RESULT:      -6.6      1.710      3.254
REMARK  Name = 
REMARK  6 active torsions:
REMARK  status: ('A' for Active; 'I' for Inactive)
REMARK    1  A    between atoms: C_1  and  N_2
REMARK    2  A    between atoms: N_2  and  C_3
REMARK    3  A    between atoms: N_2  and  C_4
REMARK    4  A    between atoms: C_4  and  C_5
REMARK    5  A    between atoms: C_10  and  O_11
REMARK    6  A    between atoms: O_11  and  C_12
REMARK                            x       y       z     vdW  Elec       q    Type
REMARK                         _______ _______ _______ _____ _____    ______ ____
ROOT
ATOM      1  C   UNL     1       2.334   4.468  19.123  0.00  0.00    +0.000 A 
ATOM      2  C   UNL     1       1.316   4.255  20.082  0.00  0.00    +0.000 A 
ATOM      3  C   UNL     1       1.425   3.300  21.089  0.00  0.00    +0.000 A 
ATOM      4  C   UNL     1       2.595   2.572  21.214  0.00  0.00    +0.000 A 
ATOM      5  C   UNL     1       3.598   2.732  20.267  0.00  0.00    +0.000 A 
ATOM      6  C   UNL     1       3.418   3.561  19.139  0.00  0.00    +0.000 A 
ENDROOT
BRANCH   1   7
ATOM      7  C   UNL     1       2.157   5.653  18.163  0.00  0.00    +0.000 C 
BRANCH   7   9
ATOM      8  C   UNL     1       3.652   7.510  17.545  0.00  0.00    +0.000 C 
ATOM      9  N   UNL     1       2.895   6.870  18.625  0.00  0.00    +0.000 NA
ATOM     10  C   UNL     1       2.074   7.864  19.309  0.00  0.00    +0.000 C 
ENDBRANCH   7   9
ENDBRANCH   1   7
BRANCH   6  11
ATOM     11  O   UNL     1       4.278   3.413  18.051  0.00  0.00    +0.000 OA
BRANCH  11  12
ATOM     12  C   UNL     1       5.395   4.266  18.019  0.00  0.00    +0.000 A 
ATOM     13  C   UNL     1       5.983   4.763  19.196  0.00  0.00    +0.000 A 
ATOM     14  C   UNL     1       6.977   5.749  19.147  0.00  0.00    +0.000 A 
ATOM     15  C   UNL     1       7.453   6.201  17.921  0.00  0.00    +0.000 A 
ATOM     16  C   UNL     1       6.935   5.660  16.738  0.00  0.00    +0.000 A 
ATOM     17  C   UNL     1       5.916   4.692  16.788  0.00  0.00    +0.000 A 
ATOM     18 CL   UNL     1       5.285   4.112  15.291  0.00  0.00    +0.000 Cl
ENDBRANCH  11  12
ENDBRANCH   6  11
TORSDOF 4
ENDMDL
MODEL 7
REMARK VINA RESULT:      -6.6      0.823      1.097
REMARK  Name = 
REMARK  6 active torsions:
REMARK  status: ('A' for Active; 'I' for Inactive)
REMARK    1  A    between atoms: C_1  and  N_2
REMARK    2  A    between atoms: N_2  and  C_3
REMARK    3  A    between atoms: N_2  and  C_4
REMARK    4  A    between atoms: C_4  and  C_5
REMARK    5  A    between atoms: C_10  and  O_11
REMARK    6  A    between atoms: O_11  and  C_12
REMARK                            x       y       z     vdW  Elec       q    Type
REMARK                         _______ _______ _______ _____ _____    ______ ____
ROOT
ATOM      1  C   UNL     1       2.613   5.309  19.785  0.00  0.00    +0.000 A 
ATOM      2  C   UNL     1       1.977   6.223  20.659  0.00  0.00    +0.000 A 
ATOM      3  C   UNL     1       1.720   7.544  20.301  0.00  0.00    +0.000 A 
ATOM      4  C   UNL     1       2.026   7.976  19.024  0.00  0.00    +0.000 A 
ATOM      5  C   UNL     1       2.683   7.115  18.155  0.00  0.00    +0.000 A 
ATOM      6  C   UNL     1       3.114   5.837  18.574  0.00  0.00    +0.000 A 
ENDROOT
BRANCH   1   7
ATOM      7  C   UNL     1       2.699   3.846  20.242  0.00  0.00    +0.000 C 
BRANCH   7   9
ATOM      8  C   UNL     1       0.845   2.419  19.470  0.00  0.00    +0.000 C 
ATOM      9  N   UNL     1       1.352   3.271  20.551  0.00  0.00    +0.000 NA
ATOM     10  C   UNL     1       1.265   2.559  21.822  0.00  0.00    +0.000 C 
ENDBRANCH   7   9
ENDBRANCH   1   7
BRANCH   6  11
ATOM     11  O   UNL     1       4.068   5.165  17.810  0.00  0.00    +0.000 OA
BRANCH  11  12
ATOM     12  C   UNL     1       5.403   5.571  17.983  0.00  0.00    +0.000 A 
ATOM     13  C   UNL     1       6.138   5.232  19.133  0.00  0.00    +0.000 A 
ATOM     14  C   UNL     1       7.400   5.790  19.376  0.00  0.00    +0.000 A 
ATOM     15  C   UNL     1       7.982   6.637  18.437  0.00  0.00    +0.000 A 
ATOM     16  C   UNL     1       7.299   6.922  17.249  0.00  0.00    +0.000 A 
ATOM     17  C   UNL     1       6.018   6.386  17.020  0.00  0.00    +0.000 A 
ATOM     18 CL   UNL     1       5.211   6.827  15.561  0.00  0.00    +0.000 Cl
ENDBRANCH  11  12
ENDBRANCH   6  11
TORSDOF 4
ENDMDL
MODEL 8
REMARK VINA RESULT:      -6.5      1.679      2.280
REMARK  Name = 
REMARK  6 active torsions:
REMARK  status: ('A' for Active; 'I' for Inactive)
REMARK    1  A    between atoms: C_1  and  N_2
REMARK    2  A    between atoms: N_2  and  C_3
REMARK    3  A    between atoms: N_2  and  C_4
REMARK    4  A    between atoms: C_4  and  C_5
REMARK    5  A    between atoms: C_10  and  O_11
REMARK    6  A    between atoms: O_11  and  C_12
REMARK                            x       y       z     vdW  Elec       q    Type
REMARK                         _______ _______ _______ _____ _____    ______ ____
ROOT
ATOM      1  C   UNL     1       2.850   4.241  20.220  0.00  0.00    +0.000 A 
ATOM      2  C   UNL     1       1.825   5.017  20.811  0.00  0.00    +0.000 A 
ATOM      3  C   UNL     1       1.642   6.366  20.514  0.00  0.00    +0.000 A 
ATOM      4  C   UNL     1       2.438   6.966  19.555  0.00  0.00    +0.000 A 
ATOM      5  C   UNL     1       3.477   6.241  18.984  0.00  0.00    +0.000 A 
ATOM      6  C   UNL     1       3.784   4.933  19.417  0.00  0.00    +0.000 A 
ENDROOT
BRANCH   1   7
ATOM      7  C   UNL     1       2.847   2.734  20.515  0.00  0.00    +0.000 C 
BRANCH   7   9
ATOM      8  C   UNL     1       1.292   2.625  18.608  0.00  0.00    +0.000 C 
ATOM      9  N   UNL     1       2.348   1.933  19.354  0.00  0.00    +0.000 NA
ATOM     10  C   UNL     1       3.383   1.474  18.434  0.00  0.00    +0.000 C 
ENDBRANCH   7   9
ENDBRANCH   1   7
BRANCH   6  11
ATOM     11  O   UNL     1       5.027   4.391  19.090  0.00  0.00    +0.000 OA
BRANCH  11  12
ATOM     12  C   UNL     1       5.489   4.634  17.784  0.00  0.00    +0.000 A 
ATOM     13  C   UNL     1       4.801   4.158  16.654  0.00  0.00    +0.000 A 
ATOM     14  C   UNL     1       5.363   4.251  15.374  0.00  0.00    +0.000 A 
ATOM     15  C   UNL     1       6.586   4.888  15.191  0.00  0.00    +0.000 A 
ATOM     16  C   UNL     1       7.248   5.439  16.296  0.00  0.00    +0.000 A 
ATOM     17  C   UNL     1       6.698   5.318  17.585  0.00  0.00    +0.000 A 
ATOM     18 CL   UNL     1       7.596   5.969  18.906  0.00  0.00    +0.000 Cl
ENDBRANCH  11  12
ENDBRANCH   6  11
TORSDOF 4
ENDMDL
MODEL 9
REMARK VINA RESULT:      -6.4      1.672      3.424
REMARK  Name = 
REMARK  6 active torsions:
REMARK  status: ('A' for Active; 'I' for Inactive)
REMARK    1  A    between atoms: C_1  and  N_2
REMARK    2  A    between atoms: N_2  and  C_3
REMARK    3  A    between atoms: N_2  and  C_4
REMARK    4  A    between atoms: C_4  and  C_5
REMARK    5  A    between atoms: C_10  and  O_11
REMARK    6  A    between atoms: O_11  and  C_12
REMARK                            x       y       z     vdW  Elec       q    Type
REMARK                         _______ _______ _______ _____ _____    ______ ____
ROOT
ATOM      1  C   UNL     1       2.121   4.866  19.559  0.00  0.00    +0.000 A 
ATOM      2  C   UNL     1       1.027   4.112  20.044  0.00  0.00    +0.000 A 
ATOM      3  C   UNL     1       0.696   2.860  19.532  0.00  0.00    +0.000 A 
ATOM      4  C   UNL     1       1.497   2.287  18.561  0.00  0.00    +0.000 A 
ATOM      5  C   UNL     1       2.556   3.017  18.038  0.00  0.00    +0.000 A 
ATOM      6  C   UNL     1       2.784   4.357  18.419  0.00  0.00    +0.000 A 
ENDROOT
BRANCH   1   7
ATOM      7  C   UNL     1       2.471   6.158  20.311  0.00  0.00    +0.000 C 
BRANCH   7   9
ATOM      8  C   UNL     1       1.325   8.248  20.932  0.00  0.00    +0.000 C 
ATOM      9  N   UNL     1       1.655   7.322  19.844  0.00  0.00    +0.000 NA
ATOM     10  C   UNL     1       2.224   8.062  18.722  0.00  0.00    +0.000 C 
ENDBRANCH   7   9
ENDBRANCH   1   7
BRANCH   6  11
ATOM     11  O   UNL     1       3.607   5.153  17.622  0.00  0.00    +0.000 OA
BRANCH  11  12
ATOM     12  C   UNL     1       4.991   5.031  17.839  0.00  0.00    +0.000 A 
ATOM     13  C   UNL     1       5.582   5.370  19.069  0.00  0.00    +0.000 A 
ATOM     14  C   UNL     1       6.974   5.415  19.214  0.00  0.00    +0.000 A 
ATOM     15  C   UNL     1       7.800   5.050  18.155  0.00  0.00    +0.000 A 
ATOM     16  C   UNL     1       7.228   4.634  16.947  0.00  0.00    +0.000 A 
ATOM     17  C   UNL     1       5.829   4.618  16.792  0.00  0.00    +0.000 A 
ATOM     18 CL   UNL     1       5.196   4.149  15.258  0.00  0.00    +0.000 Cl
ENDBRANCH  11  12
ENDBRANCH   6  11
TORSDOF 4
ENDMDL
