MODEL 1
REMARK VINA RESULT:      -8.7      0.000      0.000
REMARK  Name = 
REMARK  13 active torsions:
REMARK  status: ('A' for Active; 'I' for Inactive)
REMARK    1  A    between atoms: C_2  and  C_4
REMARK    2  A    between atoms: C_8  and  C_9
REMARK    3  A    between atoms: C_9  and  N_10
REMARK    4  A    between atoms: N_10  and  C_11
REMARK    5  A    between atoms: N_10  and  C_17
REMARK    6  A    between atoms: C_11  and  C_12
REMARK    7  A    between atoms: C_12  and  C_13
REMARK    8  A    between atoms: C_13  and  C_14
REMARK    9  A    between atoms: C_14  and  O_16
REMARK   10  A    between atoms: C_17  and  C_18
REMARK   11  A    between atoms: C_20  and  N_21
REMARK   12  A    between atoms: C_31  and  O_32
REMARK   13  A    between atoms: C_33  and  O_34
REMARK                            x       y       z     vdW  Elec       q    Type
REMARK                         _______ _______ _______ _____ _____    ______ ____
ROOT
ATOM      1  C   UNL     1       4.138   3.508  17.389  0.00  0.00    +0.000 C 
ENDROOT
BRANCH   1   2
ATOM      2  C   UNL     1       3.942   3.709  18.914  0.00  0.00    +0.000 C 
ATOM      3  O   UNL     1       3.997   5.117  19.225  0.00  0.00    +0.000 OA
ATOM      4  C   UNL     1       2.726   5.541  19.761  0.00  0.00    +0.000 C 
ATOM      5  C   UNL     1       1.718   4.433  19.442  0.00  0.00    +0.000 C 
ATOM      6  C   UNL     1       2.602   3.199  19.435  0.00  0.00    +0.000 C 
BRANCH   4   7
ATOM      7  N   UNL     1       2.404   6.828  19.194  0.00  0.00    +0.000 N 
ATOM      8  C   UNL     1       2.728   7.262  17.936  0.00  0.00    +0.000 A 
ATOM      9  N   UNL     1       2.373   8.511  17.728  0.00  0.00    +0.000 NA
ATOM     10  C   UNL     1       1.718   8.878  18.892  0.00  0.00    +0.000 A 
ATOM     11  C   UNL     1       1.060  10.058  19.289  0.00  0.00    +0.000 A 
ATOM     12  N   UNL     1       0.919  11.167  18.468  0.00  0.00    +0.000 N 
ATOM     13  N   UNL     1       0.547  10.125  20.537  0.00  0.00    +0.000 NA
ATOM     14  C   UNL     1       0.658   9.041  21.337  0.00  0.00    +0.000 A 
ATOM     15  N   UNL     1       1.241   7.857  21.065  0.00  0.00    +0.000 NA
ATOM     16  C   UNL     1       1.747   7.848  19.822  0.00  0.00    +0.000 A 
ATOM     17  H   UNL     1       1.562  11.200  17.686  0.00  0.00    +0.000 HD
ATOM     18  H   UNL     1       0.748  12.017  18.986  0.00  0.00    +0.000 HD
ENDBRANCH   4   7
BRANCH   5  19
ATOM     19  O   UNL     1       0.680   4.326  20.411  0.00  0.00    +0.000 OA
ATOM     20  H   UNL     1      -0.069   3.877  19.964  0.00  0.00    +0.000 HD
ENDBRANCH   5  19
BRANCH   6  21
ATOM     21  O   UNL     1       2.721   2.732  20.800  0.00  0.00    +0.000 OA
ATOM     22  H   UNL     1       2.986   1.793  20.795  0.00  0.00    +0.000 HD
ENDBRANCH   6  21
ENDBRANCH   1   2
BRANCH   1  23
ATOM     23  N   UNL     1       5.503   3.863  16.894  0.00  0.00    +0.000 NA
BRANCH  23  24
ATOM     24  C   UNL     1       5.386   5.024  15.980  0.00  0.00    +0.000 C 
BRANCH  24  29
ATOM     25  C   UNL     1       5.828   3.601  12.501  0.00  0.00    +0.000 A 
ATOM     26  C   UNL     1       7.118   4.050  12.185  0.00  0.00    +0.000 A 
ATOM     27  C   UNL     1       7.788   4.934  13.033  0.00  0.00    +0.000 A 
ATOM     28  C   UNL     1       7.196   5.346  14.228  0.00  0.00    +0.000 A 
ATOM     29  C   UNL     1       5.909   4.904  14.565  0.00  0.00    +0.000 A 
ATOM     30  C   UNL     1       5.213   4.072  13.667  0.00  0.00    +0.000 A 
BRANCH  25  32
ATOM     31  N   UNL     1       5.957   1.357  11.498  0.00  0.00    +0.000 N 
ATOM     32  C   UNL     1       5.240   2.511  11.673  0.00  0.00    +0.000 C 
ATOM     33  O   UNL     1       4.154   2.641  11.119  0.00  0.00    +0.000 OA
ATOM     34  H   UNL     1       5.542   0.656  10.896  0.00  0.00    +0.000 HD
ATOM     35  H   UNL     1       6.787   1.106  12.009  0.00  0.00    +0.000 HD
ENDBRANCH  25  32
ENDBRANCH  24  29
ENDBRANCH  23  24
BRANCH  23  36
ATOM     36  C   UNL     1       6.415   4.192  18.012  0.00  0.00    +0.000 C 
BRANCH  36  37
ATOM     37  C   UNL     1       7.584   5.135  17.686  0.00  0.00    +0.000 C 
BRANCH  37  38
ATOM     38  C   UNL     1       7.800   6.285  18.677  0.00  0.00    +0.000 C 
BRANCH  38  39
ATOM     39  C   UNL     1       7.831   7.595  17.925  0.00  0.00    +0.000 C 
ATOM     40  O   UNL     1       7.318   7.763  16.826  0.00  0.00    +0.000 OA
BRANCH  39  41
ATOM     41  O   UNL     1       8.489   8.597  18.561  0.00  0.00    +0.000 OA
ATOM     42  H   UNL     1       8.721   8.447  19.496  0.00  0.00    +0.000 HD
ENDBRANCH  39  41
ENDBRANCH  38  39
ENDBRANCH  37  38
ENDBRANCH  36  37
ENDBRANCH  23  36
ENDBRANCH   1  23
TORSDOF 13
ENDMDL
MODEL 2
REMARK VINA RESULT:      -8.4      0.978      1.205
REMARK  Name = 
REMARK  13 active torsions:
REMARK  status: ('A' for Active; 'I' for Inactive)
REMARK    1  A    between atoms: C_2  and  C_4
REMARK    2  A    between atoms: C_8  and  C_9
REMARK    3  A    between atoms: C_9  and  N_10
REMARK    4  A    between atoms: N_10  and  C_11
REMARK    5  A    between atoms: N_10  and  C_17
REMARK    6  A    between atoms: C_11  and  C_12
REMARK    7  A    between atoms: C_12  and  C_13
REMARK    8  A    between atoms: C_13  and  C_14
REMARK    9  A    between atoms: C_14  and  O_16
REMARK   10  A    between atoms: C_17  and  C_18
REMARK   11  A    between atoms: C_20  and  N_21
REMARK   12  A    between atoms: C_31  and  O_32
REMARK   13  A    between atoms: C_33  and  O_34
REMARK                            x       y       z     vdW  Elec       q    Type
REMARK                         _______ _______ _______ _____ _____    ______ ____
ROOT
ATOM      1  C   UNL     1       4.499   3.989  17.656  0.00  0.00    +0.000 C 
ENDROOT
BRANCH   1   2
ATOM      2  C   UNL     1       4.168   4.133  19.165  0.00  0.00    +0.000 C 
ATOM      3  O   UNL     1       4.038   5.530  19.498  0.00  0.00    +0.000 OA
ATOM      4  C   UNL     1       2.691   5.796  19.942  0.00  0.00    +0.000 C 
ATOM      5  C   UNL     1       1.843   4.589  19.532  0.00  0.00    +0.000 C 
ATOM      6  C   UNL     1       2.860   3.462  19.575  0.00  0.00    +0.000 C 
BRANCH   4   7
ATOM      7  N   UNL     1       2.267   7.050  19.369  0.00  0.00    +0.000 N 
ATOM      8  C   UNL     1       2.416   7.436  18.063  0.00  0.00    +0.000 A 
ATOM      9  N   UNL     1       2.006   8.668  17.853  0.00  0.00    +0.000 NA
ATOM     10  C   UNL     1       1.498   9.072  19.076  0.00  0.00    +0.000 A 
ATOM     11  C   UNL     1       0.868  10.255  19.507  0.00  0.00    +0.000 A 
ATOM     12  N   UNL     1       0.595  11.324  18.666  0.00  0.00    +0.000 N 
ATOM     13  N   UNL     1       0.519  10.367  20.808  0.00  0.00    +0.000 NA
ATOM     14  C   UNL     1       0.758   9.321  21.630  0.00  0.00    +0.000 A 
ATOM     15  N   UNL     1       1.330   8.138  21.333  0.00  0.00    +0.000 NA
ATOM     16  C   UNL     1       1.672   8.084  20.036  0.00  0.00    +0.000 A 
ATOM     17  H   UNL     1       1.131  11.336  17.807  0.00  0.00    +0.000 HD
ATOM     18  H   UNL     1       0.471  12.194  19.167  0.00  0.00    +0.000 HD
ENDBRANCH   4   7
BRANCH   5  19
ATOM     19  O   UNL     1       0.755   4.343  20.417  0.00  0.00    +0.000 OA
ATOM     20  H   UNL     1       0.756   3.379  20.594  0.00  0.00    +0.000 HD
ENDBRANCH   5  19
BRANCH   6  21
ATOM     21  O   UNL     1       2.930   2.982  20.938  0.00  0.00    +0.000 OA
ATOM     22  H   UNL     1       2.443   2.140  21.007  0.00  0.00    +0.000 HD
ENDBRANCH   6  21
ENDBRANCH   1   2
BRANCH   1  23
ATOM     23  N   UNL     1       5.703   4.756  17.217  0.00  0.00    +0.000 NA
BRANCH  23  24
ATOM     24  C   UNL     1       6.484   3.912  16.282  0.00  0.00    +0.000 C 
BRANCH  24  29
ATOM     25  C   UNL     1       5.915   3.571  12.556  0.00  0.00    +0.000 A 
ATOM     26  C   UNL     1       6.967   4.344  12.047  0.00  0.00    +0.000 A 
ATOM     27  C   UNL     1       7.774   5.095  12.905  0.00  0.00    +0.000 A 
ATOM     28  C   UNL     1       7.565   5.048  14.285  0.00  0.00    +0.000 A 
ATOM     29  C   UNL     1       6.521   4.278  14.813  0.00  0.00    +0.000 A 
ATOM     30  C   UNL     1       5.669   3.583  13.934  0.00  0.00    +0.000 A 
BRANCH  25  32
ATOM     31  N   UNL     1       3.979   2.986  11.152  0.00  0.00    +0.000 N 
ATOM     32  C   UNL     1       5.215   2.638  11.628  0.00  0.00    +0.000 C 
ATOM     33  O   UNL     1       5.704   1.557  11.317  0.00  0.00    +0.000 OA
ATOM     34  H   UNL     1       3.519   2.309  10.557  0.00  0.00    +0.000 HD
ATOM     35  H   UNL     1       3.557   3.895  11.245  0.00  0.00    +0.000 HD
ENDBRANCH  25  32
ENDBRANCH  24  29
ENDBRANCH  23  24
BRANCH  23  36
ATOM     36  C   UNL     1       5.325   6.025  16.555  0.00  0.00    +0.000 C 
BRANCH  36  37
ATOM     37  C   UNL     1       5.895   7.313  17.168  0.00  0.00    +0.000 C 
BRANCH  37  38
ATOM     38  C   UNL     1       7.412   7.493  17.034  0.00  0.00    +0.000 C 
BRANCH  38  39
ATOM     39  C   UNL     1       8.057   7.332  18.390  0.00  0.00    +0.000 C 
ATOM     40  O   UNL     1       8.762   8.185  18.917  0.00  0.00    +0.000 OA
BRANCH  39  41
ATOM     41  O   UNL     1       7.806   6.146  18.999  0.00  0.00    +0.000 OA
ATOM     42  H   UNL     1       8.579   5.625  19.284  0.00  0.00    +0.000 HD
ENDBRANCH  39  41
ENDBRANCH  38  39
ENDBRANCH  37  38
ENDBRANCH  36  37
ENDBRANCH  23  36
ENDBRANCH   1  23
TORSDOF 13
ENDMDL
MODEL 3
REMARK VINA RESULT:      -8.2      1.158      1.455
REMARK  Name = 
REMARK  13 active torsions:
REMARK  status: ('A' for Active; 'I' for Inactive)
REMARK    1  A    between atoms: C_2  and  C_4
REMARK    2  A    between atoms: C_8  and  C_9
REMARK    3  A    between atoms: C_9  and  N_10
REMARK    4  A    between atoms: N_10  and  C_11
REMARK    5  A    between atoms: N_10  and  C_17
REMARK    6  A    between atoms: C_11  and  C_12
REMARK    7  A    between atoms: C_12  and  C_13
REMARK    8  A    between atoms: C_13  and  C_14
REMARK    9  A    between atoms: C_14  and  O_16
REMARK   10  A    between atoms: C_17  and  C_18
REMARK   11  A    between atoms: C_20  and  N_21
REMARK   12  A    between atoms: C_31  and  O_32
REMARK   13  A    between atoms: C_33  and  O_34
REMARK                            x       y       z     vdW  Elec       q    Type
REMARK                         _______ _______ _______ _____ _____    ______ ____
ROOT
ATOM      1  C   UNL     1       5.200   5.214  17.235  0.00  0.00    +0.000 C 
ENDROOT
BRANCH   1   2
ATOM      2  C   UNL     1       4.671   4.936  18.666  0.00  0.00    +0.000 C 
ATOM      3  O   UNL     1       4.243   6.174  19.270  0.00  0.00    +0.000 OA
ATOM      4  C   UNL     1       2.827   6.114  19.540  0.00  0.00    +0.000 C 
ATOM      5  C   UNL     1       2.274   4.926  18.747  0.00  0.00    +0.000 C 
ATOM      6  C   UNL     1       3.471   3.993  18.707  0.00  0.00    +0.000 C 
BRANCH   4   7
ATOM      7  N   UNL     1       2.247   7.389  19.193  0.00  0.00    +0.000 N 
ATOM      8  C   UNL     1       2.260   7.975  17.955  0.00  0.00    +0.000 A 
ATOM      9  N   UNL     1       1.725   9.176  17.962  0.00  0.00    +0.000 NA
ATOM     10  C   UNL     1       1.276   9.343  19.262  0.00  0.00    +0.000 A 
ATOM     11  C   UNL     1       0.575  10.380  19.907  0.00  0.00    +0.000 A 
ATOM     12  N   UNL     1       0.143  11.527  19.259  0.00  0.00    +0.000 N 
ATOM     13  N   UNL     1       0.318  10.263  21.228  0.00  0.00    +0.000 NA
ATOM     14  C   UNL     1       0.714   9.138  21.864  0.00  0.00    +0.000 A 
ATOM     15  N   UNL     1       1.367   8.076  21.355  0.00  0.00    +0.000 NA
ATOM     16  C   UNL     1       1.613   8.248  20.046  0.00  0.00    +0.000 A 
ATOM     17  H   UNL     1       0.608  11.719  18.380  0.00  0.00    +0.000 HD
ATOM     18  H   UNL     1      -0.021  12.296  19.894  0.00  0.00    +0.000 HD
ENDBRANCH   4   7
BRANCH   5  19
ATOM     19  O   UNL     1       1.153   4.309  19.372  0.00  0.00    +0.000 OA
ATOM     20  H   UNL     1       1.091   4.696  20.271  0.00  0.00    +0.000 HD
ENDBRANCH   5  19
BRANCH   6  21
ATOM     21  O   UNL     1       3.466   3.214  19.926  0.00  0.00    +0.000 OA
ATOM     22  H   UNL     1       2.836   3.610  20.556  0.00  0.00    +0.000 HD
ENDBRANCH   6  21
ENDBRANCH   1   2
BRANCH   1  23
ATOM     23  N   UNL     1       6.689   5.284  17.135  0.00  0.00    +0.000 NA
BRANCH  23  24
ATOM     24  C   UNL     1       7.143   4.275  16.149  0.00  0.00    +0.000 C 
BRANCH  24  29
ATOM     25  C   UNL     1       6.115   3.685  12.555  0.00  0.00    +0.000 A 
ATOM     26  C   UNL     1       7.043   4.482  11.871  0.00  0.00    +0.000 A 
ATOM     27  C   UNL     1       7.907   5.325  12.574  0.00  0.00    +0.000 A 
ATOM     28  C   UNL     1       7.883   5.348  13.970  0.00  0.00    +0.000 A 
ATOM     29  C   UNL     1       6.966   4.555  14.672  0.00  0.00    +0.000 A 
ATOM     30  C   UNL     1       6.050   3.765  13.951  0.00  0.00    +0.000 A 
BRANCH  25  32
ATOM     31  N   UNL     1       5.959   1.460  11.514  0.00  0.00    +0.000 N 
ATOM     32  C   UNL     1       5.359   2.662  11.778  0.00  0.00    +0.000 C 
ATOM     33  O   UNL     1       4.236   2.889  11.341  0.00  0.00    +0.000 OA
ATOM     34  H   UNL     1       5.430   0.807  10.950  0.00  0.00    +0.000 HD
ATOM     35  H   UNL     1       6.815   1.134  11.933  0.00  0.00    +0.000 HD
ENDBRANCH  25  32
ENDBRANCH  24  29
ENDBRANCH  23  24
BRANCH  23  36
ATOM     36  C   UNL     1       7.140   6.632  16.721  0.00  0.00    +0.000 C 
BRANCH  36  37
ATOM     37  C   UNL     1       7.760   7.512  17.817  0.00  0.00    +0.000 C 
BRANCH  37  38
ATOM     38  C   UNL     1       7.656   9.024  17.587  0.00  0.00    +0.000 C 
BRANCH  38  39
ATOM     39  C   UNL     1       8.737   9.726  18.375  0.00  0.00    +0.000 C 
ATOM     40  O   UNL     1       9.261  10.778  18.029  0.00  0.00    +0.000 OA
BRANCH  39  41
ATOM     41  O   UNL     1       9.105   9.093  19.517  0.00  0.00    +0.000 OA
ATOM     42  H   UNL     1       8.452   9.076  20.241  0.00  0.00    +0.000 HD
ENDBRANCH  39  41
ENDBRANCH  38  39
ENDBRANCH  37  38
ENDBRANCH  36  37
ENDBRANCH  23  36
ENDBRANCH   1  23
TORSDOF 13
ENDMDL
MODEL 4
REMARK VINA RESULT:      -7.7      3.131      6.243
REMARK  Name = 
REMARK  13 active torsions:
REMARK  status: ('A' for Active; 'I' for Inactive)
REMARK    1  A    between atoms: C_2  and  C_4
REMARK    2  A    between atoms: C_8  and  C_9
REMARK    3  A    between atoms: C_9  and  N_10
REMARK    4  A    between atoms: N_10  and  C_11
REMARK    5  A    between atoms: N_10  and  C_17
REMARK    6  A    between atoms: C_11  and  C_12
REMARK    7  A    between atoms: C_12  and  C_13
REMARK    8  A    between atoms: C_13  and  C_14
REMARK    9  A    between atoms: C_14  and  O_16
REMARK   10  A    between atoms: C_17  and  C_18
REMARK   11  A    between atoms: C_20  and  N_21
REMARK   12  A    between atoms: C_31  and  O_32
REMARK   13  A    between atoms: C_33  and  O_34
REMARK                            x       y       z     vdW  Elec       q    Type
REMARK                         _______ _______ _______ _____ _____    ______ ____
ROOT
ATOM      1  C   UNL     1       1.651   8.509  18.782  0.00  0.00    +0.000 C 
ENDROOT
BRANCH   1   2
ATOM      2  C   UNL     1       1.760   9.349  20.081  0.00  0.00    +0.000 C 
ATOM      3  O   UNL     1       1.050  10.594  19.911  0.00  0.00    +0.000 OA
ATOM      4  C   UNL     1      -0.044  10.656  20.850  0.00  0.00    +0.000 C 
ATOM      5  C   UNL     1      -0.247   9.238  21.390  0.00  0.00    +0.000 C 
ATOM      6  C   UNL     1       1.158   8.668  21.307  0.00  0.00    +0.000 C 
BRANCH   4   7
ATOM      7  N   UNL     1      -1.190  11.209  20.169  0.00  0.00    +0.000 N 
ATOM      8  C   UNL     1      -2.034  12.172  20.656  0.00  0.00    +0.000 A 
ATOM      9  N   UNL     1      -3.038  12.418  19.844  0.00  0.00    +0.000 NA
ATOM     10  C   UNL     1      -2.786  11.622  18.739  0.00  0.00    +0.000 A 
ATOM     11  C   UNL     1      -3.448  11.458  17.506  0.00  0.00    +0.000 A 
ATOM     12  N   UNL     1      -4.578  12.175  17.145  0.00  0.00    +0.000 N 
ATOM     13  N   UNL     1      -2.969  10.546  16.631  0.00  0.00    +0.000 NA
ATOM     14  C   UNL     1      -1.854   9.859  16.963  0.00  0.00    +0.000 A 
ATOM     15  N   UNL     1      -1.126   9.942  18.094  0.00  0.00    +0.000 NA
ATOM     16  C   UNL     1      -1.651  10.847  18.934  0.00  0.00    +0.000 A 
ATOM     17  H   UNL     1      -5.074  12.603  17.917  0.00  0.00    +0.000 HD
ATOM     18  H   UNL     1      -5.116  11.719  16.422  0.00  0.00    +0.000 HD
ENDBRANCH   4   7
BRANCH   5  19
ATOM     19  O   UNL     1      -0.742   9.213  22.724  0.00  0.00    +0.000 OA
ATOM     20  H   UNL     1      -1.620   8.777  22.684  0.00  0.00    +0.000 HD
ENDBRANCH   5  19
BRANCH   6  21
ATOM     21  O   UNL     1       1.863   9.053  22.511  0.00  0.00    +0.000 OA
ATOM     22  H   UNL     1       1.242   9.500  23.116  0.00  0.00    +0.000 HD
ENDBRANCH   6  21
ENDBRANCH   1   2
BRANCH   1  23
ATOM     23  N   UNL     1       2.683   7.436  18.657  0.00  0.00    +0.000 NA
BRANCH  23  24
ATOM     24  C   UNL     1       1.993   6.129  18.551  0.00  0.00    +0.000 C 
BRANCH  24  29
ATOM     25  C   UNL     1       3.300   2.875  19.975  0.00  0.00    +0.000 A 
ATOM     26  C   UNL     1       2.416   2.670  21.043  0.00  0.00    +0.000 A 
ATOM     27  C   UNL     1       1.490   3.654  21.395  0.00  0.00    +0.000 A 
ATOM     28  C   UNL     1       1.407   4.836  20.656  0.00  0.00    +0.000 A 
ATOM     29  C   UNL     1       2.278   5.058  19.582  0.00  0.00    +0.000 A 
ATOM     30  C   UNL     1       3.257   4.091  19.282  0.00  0.00    +0.000 A 
BRANCH  25  32
ATOM     31  N   UNL     1       5.227   1.368  20.249  0.00  0.00    +0.000 N 
ATOM     32  C   UNL     1       4.127   1.724  19.515  0.00  0.00    +0.000 C 
ATOM     33  O   UNL     1       3.866   1.120  18.480  0.00  0.00    +0.000 OA
ATOM     34  H   UNL     1       5.786   0.608  19.883  0.00  0.00    +0.000 HD
ATOM     35  H   UNL     1       5.447   1.714  21.168  0.00  0.00    +0.000 HD
ENDBRANCH  25  32
ENDBRANCH  24  29
ENDBRANCH  23  24
BRANCH  23  36
ATOM     36  C   UNL     1       3.545   7.650  17.472  0.00  0.00    +0.000 C 
BRANCH  36  37
ATOM     37  C   UNL     1       4.432   6.468  17.051  0.00  0.00    +0.000 C 
BRANCH  37  38
ATOM     38  C   UNL     1       5.206   6.658  15.740  0.00  0.00    +0.000 C 
BRANCH  38  39
ATOM     39  C   UNL     1       6.107   5.468  15.514  0.00  0.00    +0.000 C 
ATOM     40  O   UNL     1       5.708   4.368  15.153  0.00  0.00    +0.000 OA
BRANCH  39  41
ATOM     41  O   UNL     1       7.422   5.701  15.753  0.00  0.00    +0.000 OA
ATOM     42  H   UNL     1       7.986   4.922  15.908  0.00  0.00    +0.000 HD
ENDBRANCH  39  41
ENDBRANCH  38  39
ENDBRANCH  37  38
ENDBRANCH  36  37
ENDBRANCH  23  36
ENDBRANCH   1  23
TORSDOF 13
ENDMDL
MODEL 5
REMARK VINA RESULT:      -7.6      3.399      6.509
REMARK  Name = 
REMARK  13 active torsions:
REMARK  status: ('A' for Active; 'I' for Inactive)
REMARK    1  A    between atoms: C_2  and  C_4
REMARK    2  A    between atoms: C_8  and  C_9
REMARK    3  A    between atoms: C_9  and  N_10
REMARK    4  A    between atoms: N_10  and  C_11
REMARK    5  A    between atoms: N_10  and  C_17
REMARK    6  A    between atoms: C_11  and  C_12
REMARK    7  A    between atoms: C_12  and  C_13
REMARK    8  A    between atoms: C_13  and  C_14
REMARK    9  A    between atoms: C_14  and  O_16
REMARK   10  A    between atoms: C_17  and  C_18
REMARK   11  A    between atoms: C_20  and  N_21
REMARK   12  A    between atoms: C_31  and  O_32
REMARK   13  A    between atoms: C_33  and  O_34
REMARK                            x       y       z     vdW  Elec       q    Type
REMARK                         _______ _______ _______ _____ _____    ______ ____
ROOT
ATOM      1  C   UNL     1       1.529   8.162  19.586  0.00  0.00    +0.000 C 
ENDROOT
BRANCH   1   2
ATOM      2  C   UNL     1       1.763   9.200  20.714  0.00  0.00    +0.000 C 
ATOM      3  O   UNL     1       1.138  10.450  20.356  0.00  0.00    +0.000 OA
ATOM      4  C   UNL     1       0.099  10.759  21.308  0.00  0.00    +0.000 C 
ATOM      5  C   UNL     1      -0.180   9.475  22.093  0.00  0.00    +0.000 C 
ATOM      6  C   UNL     1       1.174   8.789  22.061  0.00  0.00    +0.000 C 
BRANCH   4   7
ATOM      7  N   UNL     1      -1.036  11.279  20.583  0.00  0.00    +0.000 N 
ATOM      8  C   UNL     1      -1.234  11.207  19.230  0.00  0.00    +0.000 A 
ATOM      9  N   UNL     1      -2.321  11.841  18.847  0.00  0.00    +0.000 NA
ATOM     10  C   UNL     1      -2.893  12.283  20.028  0.00  0.00    +0.000 A 
ATOM     11  C   UNL     1      -4.084  12.976  20.314  0.00  0.00    +0.000 A 
ATOM     12  N   UNL     1      -5.003  13.348  19.343  0.00  0.00    +0.000 N 
ATOM     13  N   UNL     1      -4.347  13.312  21.597  0.00  0.00    +0.000 NA
ATOM     14  C   UNL     1      -3.470  12.934  22.553  0.00  0.00    +0.000 A 
ATOM     15  N   UNL     1      -2.316  12.253  22.407  0.00  0.00    +0.000 NA
ATOM     16  C   UNL     1      -2.094  11.959  21.116  0.00  0.00    +0.000 A 
ATOM     17  H   UNL     1      -4.640  13.360  18.398  0.00  0.00    +0.000 HD
ATOM     18  H   UNL     1      -5.599  14.109  19.640  0.00  0.00    +0.000 HD
ENDBRANCH   4   7
BRANCH   5  19
ATOM     19  O   UNL     1      -0.610   9.718  23.429  0.00  0.00    +0.000 OA
ATOM     20  H   UNL     1      -0.420  10.662  23.612  0.00  0.00    +0.000 HD
ENDBRANCH   5  19
BRANCH   6  21
ATOM     21  O   UNL     1       1.963   9.316  23.153  0.00  0.00    +0.000 OA
ATOM     22  H   UNL     1       2.209  10.239  22.955  0.00  0.00    +0.000 HD
ENDBRANCH   6  21
ENDBRANCH   1   2
BRANCH   1  23
ATOM     23  N   UNL     1       2.418   6.963  19.662  0.00  0.00    +0.000 NA
BRANCH  23  24
ATOM     24  C   UNL     1       1.923   6.079  20.743  0.00  0.00    +0.000 C 
BRANCH  24  29
ATOM     25  C   UNL     1       2.981   2.543  19.903  0.00  0.00    +0.000 A 
ATOM     26  C   UNL     1       1.801   2.031  19.346  0.00  0.00    +0.000 A 
ATOM     27  C   UNL     1       0.621   2.777  19.374  0.00  0.00    +0.000 A 
ATOM     28  C   UNL     1       0.617   4.062  19.920  0.00  0.00    +0.000 A 
ATOM     29  C   UNL     1       1.787   4.594  20.478  0.00  0.00    +0.000 A 
ATOM     30  C   UNL     1       2.952   3.804  20.510  0.00  0.00    +0.000 A 
BRANCH  25  32
ATOM     31  N   UNL     1       4.334   0.961  18.590  0.00  0.00    +0.000 N 
ATOM     32  C   UNL     1       4.250   1.798  19.671  0.00  0.00    +0.000 C 
ATOM     33  O   UNL     1       5.198   1.889  20.443  0.00  0.00    +0.000 OA
ATOM     34  H   UNL     1       5.197   0.442  18.488  0.00  0.00    +0.000 HD
ATOM     35  H   UNL     1       3.668   0.918  17.837  0.00  0.00    +0.000 HD
ENDBRANCH  25  32
ENDBRANCH  24  29
ENDBRANCH  23  24
BRANCH  23  36
ATOM     36  C   UNL     1       2.442   6.226  18.379  0.00  0.00    +0.000 C 
BRANCH  36  37
ATOM     37  C   UNL     1       3.810   6.095  17.692  0.00  0.00    +0.000 C 
BRANCH  37  38
ATOM     38  C   UNL     1       4.017   4.816  16.870  0.00  0.00    +0.000 C 
BRANCH  38  39
ATOM     39  C   UNL     1       5.332   4.182  17.254  0.00  0.00    +0.000 C 
ATOM     40  O   UNL     1       6.004   4.530  18.217  0.00  0.00    +0.000 OA
BRANCH  39  41
ATOM     41  O   UNL     1       5.737   3.179  16.434  0.00  0.00    +0.000 OA
ATOM     42  H   UNL     1       5.520   2.270  16.710  0.00  0.00    +0.000 HD
ENDBRANCH  39  41
ENDBRANCH  38  39
ENDBRANCH  37  38
ENDBRANCH  36  37
ENDBRANCH  23  36
ENDBRANCH   1  23
TORSDOF 13
ENDMDL
MODEL 6
REMARK VINA RESULT:      -7.6      3.691      6.737
REMARK  Name = 
REMARK  13 active torsions:
REMARK  status: ('A' for Active; 'I' for Inactive)
REMARK    1  A    between atoms: C_2  and  C_4
REMARK    2  A    between atoms: C_8  and  C_9
REMARK    3  A    between atoms: C_9  and  N_10
REMARK    4  A    between atoms: N_10  and  C_11
REMARK    5  A    between atoms: N_10  and  C_17
REMARK    6  A    between atoms: C_11  and  C_12
REMARK    7  A    between atoms: C_12  and  C_13
REMARK    8  A    between atoms: C_13  and  C_14
REMARK    9  A    between atoms: C_14  and  O_16
REMARK   10  A    between atoms: C_17  and  C_18
REMARK   11  A    between atoms: C_20  and  N_21
REMARK   12  A    between atoms: C_31  and  O_32
REMARK   13  A    between atoms: C_33  and  O_34
REMARK                            x       y       z     vdW  Elec       q    Type
REMARK                         _______ _______ _______ _____ _____    ______ ____
ROOT
ATOM      1  C   UNL     1       1.511   9.178  19.258  0.00  0.00    +0.000 C 
ENDROOT
BRANCH   1   2
ATOM      2  C   UNL     1       0.012   9.419  18.942  0.00  0.00    +0.000 C 
ATOM      3  O   UNL     1      -0.631  10.016  20.088  0.00  0.00    +0.000 OA
ATOM      4  C   UNL     1      -1.114  11.330  19.739  0.00  0.00    +0.000 C 
ATOM      5  C   UNL     1      -0.435  11.718  18.423  0.00  0.00    +0.000 C 
ATOM      6  C   UNL     1      -0.227  10.364  17.768  0.00  0.00    +0.000 C 
BRANCH   4   7
ATOM      7  N   UNL     1      -0.840  12.219  20.842  0.00  0.00    +0.000 N 
ATOM      8  C   UNL     1       0.383  12.730  21.185  0.00  0.00    +0.000 A 
ATOM      9  N   UNL     1       0.337  13.447  22.286  0.00  0.00    +0.000 NA
ATOM     10  C   UNL     1      -1.004  13.457  22.632  0.00  0.00    +0.000 A 
ATOM     11  C   UNL     1      -1.720  14.083  23.670  0.00  0.00    +0.000 A 
ATOM     12  N   UNL     1      -1.131  14.913  24.612  0.00  0.00    +0.000 N 
ATOM     13  N   UNL     1      -3.049  13.856  23.768  0.00  0.00    +0.000 NA
ATOM     14  C   UNL     1      -3.637  13.068  22.841  0.00  0.00    +0.000 A 
ATOM     15  N   UNL     1      -3.067  12.437  21.797  0.00  0.00    +0.000 NA
ATOM     16  C   UNL     1      -1.747  12.680  21.754  0.00  0.00    +0.000 A 
ATOM     17  H   UNL     1      -0.127  14.813  24.696  0.00  0.00    +0.000 HD
ATOM     18  H   UNL     1      -1.678  14.996  25.457  0.00  0.00    +0.000 HD
ENDBRANCH   4   7
BRANCH   5  19
ATOM     19  O   UNL     1      -1.233  12.573  17.611  0.00  0.00    +0.000 OA
ATOM     20  H   UNL     1      -2.118  12.154  17.557  0.00  0.00    +0.000 HD
ENDBRANCH   5  19
BRANCH   6  21
ATOM     21  O   UNL     1      -1.445  10.020  17.066  0.00  0.00    +0.000 OA
ATOM     22  H   UNL     1      -1.825   9.214  17.462  0.00  0.00    +0.000 HD
ENDBRANCH   6  21
ENDBRANCH   1   2
BRANCH   1  23
ATOM     23  N   UNL     1       1.948   7.757  19.107  0.00  0.00    +0.000 NA
BRANCH  23  24
ATOM     24  C   UNL     1       3.262   7.739  18.421  0.00  0.00    +0.000 C 
BRANCH  24  29
ATOM     25  C   UNL     1       3.524   4.139  17.281  0.00  0.00    +0.000 A 
ATOM     26  C   UNL     1       4.648   4.198  16.447  0.00  0.00    +0.000 A 
ATOM     27  C   UNL     1       5.236   5.427  16.136  0.00  0.00    +0.000 A 
ATOM     28  C   UNL     1       4.733   6.606  16.689  0.00  0.00    +0.000 A 
ATOM     29  C   UNL     1       3.612   6.567  17.529  0.00  0.00    +0.000 A 
ATOM     30  C   UNL     1       2.983   5.332  17.777  0.00  0.00    +0.000 A 
BRANCH  25  32
ATOM     31  N   UNL     1       3.983   1.913  18.225  0.00  0.00    +0.000 N 
ATOM     32  C   UNL     1       3.059   2.800  17.741  0.00  0.00    +0.000 C 
ATOM     33  O   UNL     1       1.881   2.468  17.659  0.00  0.00    +0.000 OA
ATOM     34  H   UNL     1       3.635   1.000  18.490  0.00  0.00    +0.000 HD
ATOM     35  H   UNL     1       4.938   2.135  18.449  0.00  0.00    +0.000 HD
ENDBRANCH  25  32
ENDBRANCH  24  29
ENDBRANCH  23  24
BRANCH  23  36
ATOM     36  C   UNL     1       2.055   7.082  20.420  0.00  0.00    +0.000 C 
BRANCH  36  37
ATOM     37  C   UNL     1       1.392   5.700  20.534  0.00  0.00    +0.000 C 
BRANCH  37  38
ATOM     38  C   UNL     1       2.286   4.582  21.084  0.00  0.00    +0.000 C 
BRANCH  38  39
ATOM     39  C   UNL     1       1.467   3.325  21.256  0.00  0.00    +0.000 C 
ATOM     40  O   UNL     1       1.629   2.523  22.167  0.00  0.00    +0.000 OA
BRANCH  39  41
ATOM     41  O   UNL     1       0.521   3.133  20.303  0.00  0.00    +0.000 OA
ATOM     42  H   UNL     1       0.071   2.268  20.297  0.00  0.00    +0.000 HD
ENDBRANCH  39  41
ENDBRANCH  38  39
ENDBRANCH  37  38
ENDBRANCH  36  37
ENDBRANCH  23  36
ENDBRANCH   1  23
TORSDOF 13
ENDMDL
MODEL 7
REMARK VINA RESULT:      -7.6      3.297      5.883
REMARK  Name = 
REMARK  13 active torsions:
REMARK  status: ('A' for Active; 'I' for Inactive)
REMARK    1  A    between atoms: C_2  and  C_4
REMARK    2  A    between atoms: C_8  and  C_9
REMARK    3  A    between atoms: C_9  and  N_10
REMARK    4  A    between atoms: N_10  and  C_11
REMARK    5  A    between atoms: N_10  and  C_17
REMARK    6  A    between atoms: C_11  and  C_12
REMARK    7  A    between atoms: C_12  and  C_13
REMARK    8  A    between atoms: C_13  and  C_14
REMARK    9  A    between atoms: C_14  and  O_16
REMARK   10  A    between atoms: C_17  and  C_18
REMARK   11  A    between atoms: C_20  and  N_21
REMARK   12  A    between atoms: C_31  and  O_32
REMARK   13  A    between atoms: C_33  and  O_34
REMARK                            x       y       z     vdW  Elec       q    Type
REMARK                         _______ _______ _______ _____ _____    ______ ____
ROOT
ATOM      1  C   UNL     1       0.812   6.522  20.822  0.00  0.00    +0.000 C 
ENDROOT
BRANCH   1   2
ATOM      2  C   UNL     1       1.622   7.840  20.919  0.00  0.00    +0.000 C 
ATOM      3  O   UNL     1       1.346   8.661  19.765  0.00  0.00    +0.000 OA
ATOM      4  C   UNL     1       0.717   9.889  20.187  0.00  0.00    +0.000 C 
ATOM      5  C   UNL     1       0.256   9.679  21.632  0.00  0.00    +0.000 C 
ATOM      6  C   UNL     1       1.282   8.683  22.145  0.00  0.00    +0.000 C 
BRANCH   4   7
ATOM      7  N   UNL     1      -0.343  10.196  19.256  0.00  0.00    +0.000 N 
ATOM      8  C   UNL     1      -0.473   9.702  17.986  0.00  0.00    +0.000 A 
ATOM      9  N   UNL     1      -1.495  10.224  17.345  0.00  0.00    +0.000 NA
ATOM     10  C   UNL     1      -2.101  11.046  18.282  0.00  0.00    +0.000 A 
ATOM     11  C   UNL     1      -3.260  11.844  18.247  0.00  0.00    +0.000 A 
ATOM     12  N   UNL     1      -4.100  11.923  17.147  0.00  0.00    +0.000 N 
ATOM     13  N   UNL     1      -3.569  12.585  19.335  0.00  0.00    +0.000 NA
ATOM     14  C   UNL     1      -2.770  12.497  20.421  0.00  0.00    +0.000 A 
ATOM     15  N   UNL     1      -1.655  11.758  20.581  0.00  0.00    +0.000 NA
ATOM     16  C   UNL     1      -1.383  11.056  19.470  0.00  0.00    +0.000 A 
ATOM     17  H   UNL     1      -3.688  11.616  16.275  0.00  0.00    +0.000 HD
ATOM     18  H   UNL     1      -4.662  12.763  17.143  0.00  0.00    +0.000 HD
ENDBRANCH   4   7
BRANCH   5  19
ATOM     19  O   UNL     1       0.261  10.877  22.401  0.00  0.00    +0.000 OA
ATOM     20  H   UNL     1      -0.281  11.525  21.904  0.00  0.00    +0.000 HD
ENDBRANCH   5  19
BRANCH   6  21
ATOM     21  O   UNL     1       2.436   9.431  22.595  0.00  0.00    +0.000 OA
ATOM     22  H   UNL     1       2.147  10.114  23.229  0.00  0.00    +0.000 HD
ENDBRANCH   6  21
ENDBRANCH   1   2
BRANCH   1  23
ATOM     23  N   UNL     1       1.524   5.415  20.113  0.00  0.00    +0.000 NA
BRANCH  23  24
ATOM     24  C   UNL     1       2.984   5.628  20.256  0.00  0.00    +0.000 C 
BRANCH  24  29
ATOM     25  C   UNL     1       6.115   5.752  18.134  0.00  0.00    +0.000 A 
ATOM     26  C   UNL     1       5.689   6.551  17.065  0.00  0.00    +0.000 A 
ATOM     27  C   UNL     1       4.349   6.929  16.953  0.00  0.00    +0.000 A 
ATOM     28  C   UNL     1       3.429   6.550  17.932  0.00  0.00    +0.000 A 
ATOM     29  C   UNL     1       3.836   5.755  19.011  0.00  0.00    +0.000 A 
ATOM     30  C   UNL     1       5.173   5.319  19.075  0.00  0.00    +0.000 A 
BRANCH  25  32
ATOM     31  N   UNL     1       8.121   4.334  17.975  0.00  0.00    +0.000 N 
ATOM     32  C   UNL     1       7.580   5.544  18.317  0.00  0.00    +0.000 C 
ATOM     33  O   UNL     1       8.295   6.415  18.799  0.00  0.00    +0.000 OA
ATOM     34  H   UNL     1       9.110   4.217  18.151  0.00  0.00    +0.000 HD
ATOM     35  H   UNL     1       7.646   3.611  17.459  0.00  0.00    +0.000 HD
ENDBRANCH  25  32
ENDBRANCH  24  29
ENDBRANCH  23  24
BRANCH  23  36
ATOM     36  C   UNL     1       1.151   4.093  20.662  0.00  0.00    +0.000 C 
BRANCH  36  37
ATOM     37  C   UNL     1       2.212   2.986  20.558  0.00  0.00    +0.000 C 
BRANCH  37  38
ATOM     38  C   UNL     1       2.162   2.142  19.279  0.00  0.00    +0.000 C 
BRANCH  38  39
ATOM     39  C   UNL     1       3.551   2.036  18.695  0.00  0.00    +0.000 C 
ATOM     40  O   UNL     1       3.791   2.065  17.494  0.00  0.00    +0.000 OA
BRANCH  39  41
ATOM     41  O   UNL     1       4.540   1.895  19.612  0.00  0.00    +0.000 OA
ATOM     42  H   UNL     1       4.545   2.525  20.355  0.00  0.00    +0.000 HD
ENDBRANCH  39  41
ENDBRANCH  38  39
ENDBRANCH  37  38
ENDBRANCH  36  37
ENDBRANCH  23  36
ENDBRANCH   1  23
TORSDOF 13
ENDMDL
MODEL 8
REMARK VINA RESULT:      -7.6      3.972      6.653
REMARK  Name = 
REMARK  13 active torsions:
REMARK  status: ('A' for Active; 'I' for Inactive)
REMARK    1  A    between atoms: C_2  and  C_4
REMARK    2  A    between atoms: C_8  and  C_9
REMARK    3  A    between atoms: C_9  and  N_10
REMARK    4  A    between atoms: N_10  and  C_11
REMARK    5  A    between atoms: N_10  and  C_17
REMARK    6  A    between atoms: C_11  and  C_12
REMARK    7  A    between atoms: C_12  and  C_13
REMARK    8  A    between atoms: C_13  and  C_14
REMARK    9  A    between atoms: C_14  and  O_16
REMARK   10  A    between atoms: C_17  and  C_18
REMARK   11  A    between atoms: C_20  and  N_21
REMARK   12  A    between atoms: C_31  and  O_32
REMARK   13  A    between atoms: C_33  and  O_34
REMARK                            x       y       z     vdW  Elec       q    Type
REMARK                         _______ _______ _______ _____ _____    ______ ____
ROOT
ATOM      1  C   UNL     1       1.572   9.202  18.460  0.00  0.00    +0.000 C 
ENDROOT
BRANCH   1   2
ATOM      2  C   UNL     1       0.148   9.504  18.994  0.00  0.00    +0.000 C 
ATOM      3  O   UNL     1       0.241  10.324  20.178  0.00  0.00    +0.000 OA
ATOM      4  C   UNL     1      -0.389  11.598  19.932  0.00  0.00    +0.000 C 
ATOM      5  C   UNL     1      -0.573  11.718  18.417  0.00  0.00    +0.000 C 
ATOM      6  C   UNL     1      -0.733  10.264  18.006  0.00  0.00    +0.000 C 
BRANCH   4   7
ATOM      7  N   UNL     1       0.433  12.628  20.520  0.00  0.00    +0.000 N 
ATOM      8  C   UNL     1       0.221  13.243  21.726  0.00  0.00    +0.000 A 
ATOM      9  N   UNL     1       1.091  14.201  21.962  0.00  0.00    +0.000 NA
ATOM     10  C   UNL     1       1.954  14.151  20.880  0.00  0.00    +0.000 A 
ATOM     11  C   UNL     1       3.120  14.870  20.552  0.00  0.00    +0.000 A 
ATOM     12  N   UNL     1       3.673  15.842  21.373  0.00  0.00    +0.000 N 
ATOM     13  N   UNL     1       3.728  14.615  19.373  0.00  0.00    +0.000 NA
ATOM     14  C   UNL     1       3.210  13.654  18.577  0.00  0.00    +0.000 A 
ATOM     15  N   UNL     1       2.121  12.889  18.790  0.00  0.00    +0.000 NA
ATOM     16  C   UNL     1       1.546  13.192  19.964  0.00  0.00    +0.000 A 
ATOM     17  H   UNL     1       3.044  16.216  22.072  0.00  0.00    +0.000 HD
ATOM     18  H   UNL     1       4.270  16.484  20.870  0.00  0.00    +0.000 HD
ENDBRANCH   4   7
BRANCH   5  19
ATOM     19  O   UNL     1      -1.711  12.491  18.051  0.00  0.00    +0.000 OA
ATOM     20  H   UNL     1      -1.379  13.390  17.843  0.00  0.00    +0.000 HD
ENDBRANCH   5  19
BRANCH   6  21
ATOM     21  O   UNL     1      -2.125   9.908  18.173  0.00  0.00    +0.000 OA
ATOM     22  H   UNL     1      -2.652  10.345  17.478  0.00  0.00    +0.000 HD
ENDBRANCH   6  21
ENDBRANCH   1   2
BRANCH   1  23
ATOM     23  N   UNL     1       1.968   7.764  18.550  0.00  0.00    +0.000 NA
BRANCH  23  24
ATOM     24  C   UNL     1       3.195   7.562  17.744  0.00  0.00    +0.000 C 
BRANCH  24  29
ATOM     25  C   UNL     1       3.604   3.806  17.947  0.00  0.00    +0.000 A 
ATOM     26  C   UNL     1       4.874   3.700  18.530  0.00  0.00    +0.000 A 
ATOM     27  C   UNL     1       5.661   4.838  18.724  0.00  0.00    +0.000 A 
ATOM     28  C   UNL     1       5.171   6.098  18.377  0.00  0.00    +0.000 A 
ATOM     29  C   UNL     1       3.902   6.224  17.797  0.00  0.00    +0.000 A 
ATOM     30  C   UNL     1       3.147   5.064  17.539  0.00  0.00    +0.000 A 
BRANCH  25  32
ATOM     31  N   UNL     1       3.307   1.366  18.082  0.00  0.00    +0.000 N 
ATOM     32  C   UNL     1       2.729   2.600  17.946  0.00  0.00    +0.000 C 
ATOM     33  O   UNL     1       1.516   2.688  17.787  0.00  0.00    +0.000 OA
ATOM     34  H   UNL     1       2.685   0.569  18.036  0.00  0.00    +0.000 HD
ATOM     35  H   UNL     1       4.265   1.200  18.344  0.00  0.00    +0.000 HD
ENDBRANCH  25  32
ENDBRANCH  24  29
ENDBRANCH  23  24
BRANCH  23  36
ATOM     36  C   UNL     1       2.213   7.357  19.951  0.00  0.00    +0.000 C 
BRANCH  36  37
ATOM     37  C   UNL     1       1.488   6.090  20.432  0.00  0.00    +0.000 C 
BRANCH  37  38
ATOM     38  C   UNL     1       2.372   5.047  21.126  0.00  0.00    +0.000 C 
BRANCH  38  39
ATOM     39  C   UNL     1       1.621   3.740  21.226  0.00  0.00    +0.000 C 
ATOM     40  O   UNL     1       1.962   2.809  21.944  0.00  0.00    +0.000 OA
BRANCH  39  41
ATOM     41  O   UNL     1       0.519   3.661  20.438  0.00  0.00    +0.000 OA
ATOM     42  H   UNL     1       0.525   4.189  19.619  0.00  0.00    +0.000 HD
ENDBRANCH  39  41
ENDBRANCH  38  39
ENDBRANCH  37  38
ENDBRANCH  36  37
ENDBRANCH  23  36
ENDBRANCH   1  23
TORSDOF 13
ENDMDL
MODEL 9
REMARK VINA RESULT:      -7.6      3.590      6.806
REMARK  Name = 
REMARK  13 active torsions:
REMARK  status: ('A' for Active; 'I' for Inactive)
REMARK    1  A    between atoms: C_2  and  C_4
REMARK    2  A    between atoms: C_8  and  C_9
REMARK    3  A    between atoms: C_9  and  N_10
REMARK    4  A    between atoms: N_10  and  C_11
REMARK    5  A    between atoms: N_10  and  C_17
REMARK    6  A    between atoms: C_11  and  C_12
REMARK    7  A    between atoms: C_12  and  C_13
REMARK    8  A    between atoms: C_13  and  C_14
REMARK    9  A    between atoms: C_14  and  O_16
REMARK   10  A    between atoms: C_17  and  C_18
REMARK   11  A    between atoms: C_20  and  N_21
REMARK   12  A    between atoms: C_31  and  O_32
REMARK   13  A    between atoms: C_33  and  O_34
REMARK                            x       y       z     vdW  Elec       q    Type
REMARK                         _______ _______ _______ _____ _____    ______ ____
ROOT
ATOM      1  C   UNL     1       1.315   9.159  19.707  0.00  0.00    +0.000 C 
ENDROOT
BRANCH   1   2
ATOM      2  C   UNL     1       1.143  10.146  18.524  0.00  0.00    +0.000 C 
ATOM      3  O   UNL     1      -0.250  10.498  18.390  0.00  0.00    +0.000 OA
ATOM      4  C   UNL     1      -0.413  11.913  18.621  0.00  0.00    +0.000 C 
ATOM      5  C   UNL     1       0.879  12.408  19.277  0.00  0.00    +0.000 C 
ATOM      6  C   UNL     1       1.909  11.455  18.697  0.00  0.00    +0.000 C 
BRANCH   4   7
ATOM      7  N   UNL     1      -1.602  12.106  19.415  0.00  0.00    +0.000 N 
ATOM      8  C   UNL     1      -2.858  12.377  18.940  0.00  0.00    +0.000 A 
ATOM      9  N   UNL     1      -3.727  12.583  19.906  0.00  0.00    +0.000 NA
ATOM     10  C   UNL     1      -3.006  12.359  21.067  0.00  0.00    +0.000 A 
ATOM     11  C   UNL     1      -3.361  12.367  22.430  0.00  0.00    +0.000 A 
ATOM     12  N   UNL     1      -4.651  12.599  22.882  0.00  0.00    +0.000 N 
ATOM     13  N   UNL     1      -2.396  12.151  23.351  0.00  0.00    +0.000 NA
ATOM     14  C   UNL     1      -1.140  11.900  22.921  0.00  0.00    +0.000 A 
ATOM     15  N   UNL     1      -0.686  11.845  21.653  0.00  0.00    +0.000 NA
ATOM     16  C   UNL     1      -1.677  12.082  20.780  0.00  0.00    +0.000 A 
ATOM     17  H   UNL     1      -5.261  13.052  22.212  0.00  0.00    +0.000 HD
ATOM     18  H   UNL     1      -4.679  12.910  23.843  0.00  0.00    +0.000 HD
ENDBRANCH   4   7
BRANCH   5  19
ATOM     19  O   UNL     1       1.184  13.762  18.961  0.00  0.00    +0.000 OA
ATOM     20  H   UNL     1       0.346  14.262  19.050  0.00  0.00    +0.000 HD
ENDBRANCH   5  19
BRANCH   6  21
ATOM     21  O   UNL     1       2.327  11.982  17.416  0.00  0.00    +0.000 OA
ATOM     22  H   UNL     1       2.782  11.281  16.914  0.00  0.00    +0.000 HD
ENDBRANCH   6  21
ENDBRANCH   1   2
BRANCH   1  23
ATOM     23  N   UNL     1       1.685   7.770  19.298  0.00  0.00    +0.000 NA
BRANCH  23  24
ATOM     24  C   UNL     1       2.724   7.851  18.244  0.00  0.00    +0.000 C 
BRANCH  24  29
ATOM     25  C   UNL     1       3.027   4.147  17.528  0.00  0.00    +0.000 A 
ATOM     26  C   UNL     1       4.400   4.030  17.276  0.00  0.00    +0.000 A 
ATOM     27  C   UNL     1       5.206   5.167  17.192  0.00  0.00    +0.000 A 
ATOM     28  C   UNL     1       4.656   6.433  17.403  0.00  0.00    +0.000 A 
ATOM     29  C   UNL     1       3.286   6.572  17.661  0.00  0.00    +0.000 A 
ATOM     30  C   UNL     1       2.471   5.424  17.670  0.00  0.00    +0.000 A 
BRANCH  25  32
ATOM     31  N   UNL     1       2.922   1.710  17.853  0.00  0.00    +0.000 N 
ATOM     32  C   UNL     1       2.253   2.904  17.805  0.00  0.00    +0.000 C 
ATOM     33  O   UNL     1       1.036   2.926  17.951  0.00  0.00    +0.000 OA
ATOM     34  H   UNL     1       2.357   0.883  18.003  0.00  0.00    +0.000 HD
ATOM     35  H   UNL     1       3.923   1.606  17.874  0.00  0.00    +0.000 HD
ENDBRANCH  25  32
ENDBRANCH  24  29
ENDBRANCH  23  24
BRANCH  23  36
ATOM     36  C   UNL     1       2.192   6.985  20.445  0.00  0.00    +0.000 C 
BRANCH  36  37
ATOM     37  C   UNL     1       1.506   5.635  20.705  0.00  0.00    +0.000 C 
BRANCH  37  38
ATOM     38  C   UNL     1       2.422   4.517  21.219  0.00  0.00    +0.000 C 
BRANCH  38  39
ATOM     39  C   UNL     1       1.614   3.255  21.410  0.00  0.00    +0.000 C 
ATOM     40  O   UNL     1       1.944   2.338  22.151  0.00  0.00    +0.000 OA
BRANCH  39  41
ATOM     41  O   UNL     1       0.472   3.200  20.680  0.00  0.00    +0.000 OA
ATOM     42  H   UNL     1       0.127   4.045  20.337  0.00  0.00    +0.000 HD
ENDBRANCH  39  41
ENDBRANCH  38  39
ENDBRANCH  37  38
ENDBRANCH  36  37
ENDBRANCH  23  36
ENDBRANCH   1  23
TORSDOF 13
ENDMDL
