MODEL 1
REMARK VINA RESULT:      -8.0      0.000      0.000
REMARK  Name = 
REMARK  6 active torsions:
REMARK  status: ('A' for Active; 'I' for Inactive)
REMARK    1  A    between atoms: N_1  and  C_2
REMARK    2  A    between atoms: C_8  and  O_9
REMARK    3  A    between atoms: O_9  and  C_10
REMARK    4  A    between atoms: C_12  and  O_13
REMARK    5  A    between atoms: O_13  and  C_14
REMARK    6  A    between atoms: N_22  and  C_23
REMARK                            x       y       z     vdW  Elec       q    Type
REMARK                         _______ _______ _______ _____ _____    ______ ____
ROOT
ATOM      1  C   UNL     1       1.580   3.442  19.313  0.00  0.00    +0.000 A 
ATOM      2  N   UNL     1       1.626   2.273  18.645  0.00  0.00    +0.000 NA
ATOM      3  C   UNL     1       2.603   2.087  17.736  0.00  0.00    +0.000 A 
ATOM      4  N   UNL     1       3.581   2.942  17.379  0.00  0.00    +0.000 NA
ATOM      5  C   UNL     1       3.499   4.096  18.069  0.00  0.00    +0.000 A 
ATOM      6  C   UNL     1       2.542   4.409  19.020  0.00  0.00    +0.000 A 
ATOM      7  C   UNL     1       2.874   5.709  19.430  0.00  0.00    +0.000 A 
ATOM      8  N   UNL     1       4.011   6.164  18.896  0.00  0.00    +0.000 NA
ATOM      9  N   UNL     1       4.333   5.192  18.014  0.00  0.00    +0.000 N 
ENDROOT
BRANCH   1  10
ATOM     10  N   UNL     1       0.585   3.607  20.263  0.00  0.00    +0.000 N 
ATOM     11  H   UNL     1       0.932   4.061  21.101  0.00  0.00    +0.000 HD
ATOM     12  H   UNL     1      -0.044   2.826  20.394  0.00  0.00    +0.000 HD
ENDBRANCH   1  10
BRANCH   9  13
ATOM     13  C   UNL     1       5.485   5.300  17.139  0.00  0.00    +0.000 C 
ATOM     14  C   UNL     1       5.376   5.930  15.756  0.00  0.00    +0.000 C 
ATOM     15  C   UNL     1       6.103   6.657  16.830  0.00  0.00    +0.000 C 
ENDBRANCH   9  13
BRANCH   7  16
ATOM     16  O   UNL     1       2.231   6.415  20.382  0.00  0.00    +0.000 OA
BRANCH  16  17
ATOM     17  C   UNL     1       1.814   7.713  20.148  0.00  0.00    +0.000 A 
ATOM     18  C   UNL     1       1.409   8.431  21.259  0.00  0.00    +0.000 A 
ATOM     19  C   UNL     1       0.923   9.724  21.072  0.00  0.00    +0.000 A 
ATOM     20  C   UNL     1       0.919  10.258  19.792  0.00  0.00    +0.000 A 
ATOM     21  C   UNL     1       1.303   9.444  18.736  0.00  0.00    +0.000 A 
ATOM     22  N   UNL     1       1.714   8.169  18.883  0.00  0.00    +0.000 NA
BRANCH  19  23
ATOM     23  O   UNL     1       0.545  10.356  22.216  0.00  0.00    +0.000 OA
BRANCH  23  24
ATOM     24  C   UNL     1      -0.395   9.744  23.089  0.00  0.00    +0.000 C 
ATOM     25  F   UNL     1      -1.044   8.688  22.556  0.00  0.00    +0.000 F 
ATOM     26  F   UNL     1       0.261   9.312  24.189  0.00  0.00    +0.000 F 
ATOM     27  F   UNL     1      -1.305  10.664  23.473  0.00  0.00    +0.000 F 
ENDBRANCH  23  24
ENDBRANCH  19  23
ENDBRANCH  16  17
ENDBRANCH   7  16
TORSDOF 6
ENDMDL
MODEL 2
REMARK VINA RESULT:      -7.9      5.048      7.929
REMARK  Name = 
REMARK  6 active torsions:
REMARK  status: ('A' for Active; 'I' for Inactive)
REMARK    1  A    between atoms: N_1  and  C_2
REMARK    2  A    between atoms: C_8  and  O_9
REMARK    3  A    between atoms: O_9  and  C_10
REMARK    4  A    between atoms: C_12  and  O_13
REMARK    5  A    between atoms: O_13  and  C_14
REMARK    6  A    between atoms: N_22  and  C_23
REMARK                            x       y       z     vdW  Elec       q    Type
REMARK                         _______ _______ _______ _____ _____    ______ ____
ROOT
ATOM      1  C   UNL     1       2.028   8.526  18.939  0.00  0.00    +0.000 A 
ATOM      2  N   UNL     1       1.282   9.124  19.889  0.00  0.00    +0.000 NA
ATOM      3  C   UNL     1       0.914   8.404  20.968  0.00  0.00    +0.000 A 
ATOM      4  N   UNL     1       1.194   7.116  21.244  0.00  0.00    +0.000 NA
ATOM      5  C   UNL     1       1.940   6.557  20.271  0.00  0.00    +0.000 A 
ATOM      6  C   UNL     1       2.373   7.186  19.116  0.00  0.00    +0.000 A 
ATOM      7  C   UNL     1       3.091   6.194  18.431  0.00  0.00    +0.000 A 
ATOM      8  N   UNL     1       3.227   5.059  19.121  0.00  0.00    +0.000 NA
ATOM      9  N   UNL     1       2.454   5.279  20.207  0.00  0.00    +0.000 N 
ENDROOT
BRANCH   1  10
ATOM     10  N   UNL     1       2.419   9.287  17.850  0.00  0.00    +0.000 N 
ATOM     11  H   UNL     1       1.945  10.183  17.822  0.00  0.00    +0.000 HD
ATOM     12  H   UNL     1       2.519   8.795  16.972  0.00  0.00    +0.000 HD
ENDBRANCH   1  10
BRANCH   9  13
ATOM     13  C   UNL     1       2.245   4.263  21.220  0.00  0.00    +0.000 C 
ATOM     14  C   UNL     1       1.245   3.131  21.016  0.00  0.00    +0.000 C 
ATOM     15  C   UNL     1       2.701   2.828  20.989  0.00  0.00    +0.000 C 
ENDBRANCH   9  13
BRANCH   7  16
ATOM     16  O   UNL     1       3.733   6.366  17.257  0.00  0.00    +0.000 OA
BRANCH  16  17
ATOM     17  C   UNL     1       4.992   5.831  17.048  0.00  0.00    +0.000 A 
ATOM     18  C   UNL     1       5.094   4.900  16.031  0.00  0.00    +0.000 A 
ATOM     19  C   UNL     1       6.327   4.285  15.816  0.00  0.00    +0.000 A 
ATOM     20  C   UNL     1       7.411   4.672  16.589  0.00  0.00    +0.000 A 
ATOM     21  C   UNL     1       7.198   5.582  17.614  0.00  0.00    +0.000 A 
ATOM     22  N   UNL     1       6.003   6.142  17.885  0.00  0.00    +0.000 NA
BRANCH  19  23
ATOM     23  O   UNL     1       6.338   3.381  14.798  0.00  0.00    +0.000 OA
BRANCH  23  24
ATOM     24  C   UNL     1       6.214   3.825  13.453  0.00  0.00    +0.000 C 
ATOM     25  F   UNL     1       6.579   2.911  12.531  0.00  0.00    +0.000 F 
ATOM     26  F   UNL     1       4.920   4.146  13.226  0.00  0.00    +0.000 F 
ATOM     27  F   UNL     1       6.962   4.936  13.285  0.00  0.00    +0.000 F 
ENDBRANCH  23  24
ENDBRANCH  19  23
ENDBRANCH  16  17
ENDBRANCH   7  16
TORSDOF 6
ENDMDL
MODEL 3
REMARK VINA RESULT:      -7.9      5.835      8.051
REMARK  Name = 
REMARK  6 active torsions:
REMARK  status: ('A' for Active; 'I' for Inactive)
REMARK    1  A    between atoms: N_1  and  C_2
REMARK    2  A    between atoms: C_8  and  O_9
REMARK    3  A    between atoms: O_9  and  C_10
REMARK    4  A    between atoms: C_12  and  O_13
REMARK    5  A    between atoms: O_13  and  C_14
REMARK    6  A    between atoms: N_22  and  C_23
REMARK                            x       y       z     vdW  Elec       q    Type
REMARK                         _______ _______ _______ _____ _____    ______ ____
ROOT
ATOM      1  C   UNL     1       3.979   2.880  20.118  0.00  0.00    +0.000 A 
ATOM      2  N   UNL     1       2.971   2.658  20.985  0.00  0.00    +0.000 NA
ATOM      3  C   UNL     1       1.954   3.541  21.033  0.00  0.00    +0.000 A 
ATOM      4  N   UNL     1       1.794   4.666  20.310  0.00  0.00    +0.000 NA
ATOM      5  C   UNL     1       2.821   4.851  19.457  0.00  0.00    +0.000 A 
ATOM      6  C   UNL     1       3.923   4.023  19.320  0.00  0.00    +0.000 A 
ATOM      7  C   UNL     1       4.700   4.644  18.331  0.00  0.00    +0.000 A 
ATOM      8  N   UNL     1       4.112   5.709  17.779  0.00  0.00    +0.000 NA
ATOM      9  N   UNL     1       3.002   5.858  18.534  0.00  0.00    +0.000 N 
ENDROOT
BRANCH   1  10
ATOM     10  N   UNL     1       5.003   1.949  20.063  0.00  0.00    +0.000 N 
ATOM     11  H   UNL     1       5.673   2.165  19.333  0.00  0.00    +0.000 HD
ATOM     12  H   UNL     1       4.734   0.980  20.165  0.00  0.00    +0.000 HD
ENDBRANCH   1  10
BRANCH   9  13
ATOM     13  C   UNL     1       2.078   6.958  18.333  0.00  0.00    +0.000 C 
ATOM     14  C   UNL     1       2.081   8.176  19.248  0.00  0.00    +0.000 C 
ATOM     15  C   UNL     1       2.576   8.315  17.853  0.00  0.00    +0.000 C 
ENDBRANCH   9  13
BRANCH   7  16
ATOM     16  O   UNL     1       5.862   4.168  17.839  0.00  0.00    +0.000 OA
BRANCH  16  17
ATOM     17  C   UNL     1       6.249   4.436  16.538  0.00  0.00    +0.000 A 
ATOM     18  C   UNL     1       5.456   3.891  15.544  0.00  0.00    +0.000 A 
ATOM     19  C   UNL     1       5.834   4.080  14.216  0.00  0.00    +0.000 A 
ATOM     20  C   UNL     1       6.953   4.854  13.942  0.00  0.00    +0.000 A 
ATOM     21  C   UNL     1       7.708   5.320  15.009  0.00  0.00    +0.000 A 
ATOM     22  N   UNL     1       7.401   5.096  16.301  0.00  0.00    +0.000 NA
BRANCH  19  23
ATOM     23  O   UNL     1       5.001   3.509  13.304  0.00  0.00    +0.000 OA
BRANCH  23  24
ATOM     24  C   UNL     1       5.471   3.224  11.993  0.00  0.00    +0.000 C 
ATOM     25  F   UNL     1       6.717   3.675  11.739  0.00  0.00    +0.000 F 
ATOM     26  F   UNL     1       5.475   1.882  11.823  0.00  0.00    +0.000 F 
ATOM     27  F   UNL     1       4.622   3.762  11.093  0.00  0.00    +0.000 F 
ENDBRANCH  23  24
ENDBRANCH  19  23
ENDBRANCH  16  17
ENDBRANCH   7  16
TORSDOF 6
ENDMDL
MODEL 4
REMARK VINA RESULT:      -7.8      1.588      1.808
REMARK  Name = 
REMARK  6 active torsions:
REMARK  status: ('A' for Active; 'I' for Inactive)
REMARK    1  A    between atoms: N_1  and  C_2
REMARK    2  A    between atoms: C_8  and  O_9
REMARK    3  A    between atoms: O_9  and  C_10
REMARK    4  A    between atoms: C_12  and  O_13
REMARK    5  A    between atoms: O_13  and  C_14
REMARK    6  A    between atoms: N_22  and  C_23
REMARK                            x       y       z     vdW  Elec       q    Type
REMARK                         _______ _______ _______ _____ _____    ______ ____
ROOT
ATOM      1  C   UNL     1       2.325   3.633  19.563  0.00  0.00    +0.000 A 
ATOM      2  N   UNL     1       2.752   2.535  20.218  0.00  0.00    +0.000 NA
ATOM      3  C   UNL     1       4.078   2.331  20.339  0.00  0.00    +0.000 A 
ATOM      4  N   UNL     1       5.085   3.098  19.876  0.00  0.00    +0.000 NA
ATOM      5  C   UNL     1       4.615   4.184  19.230  0.00  0.00    +0.000 A 
ATOM      6  C   UNL     1       3.281   4.500  19.034  0.00  0.00    +0.000 A 
ATOM      7  C   UNL     1       3.314   5.699  18.307  0.00  0.00    +0.000 A 
ATOM      8  N   UNL     1       4.544   6.194  18.146  0.00  0.00    +0.000 NA
ATOM      9  N   UNL     1       5.325   5.215  18.653  0.00  0.00    +0.000 N 
ENDROOT
BRANCH   1  10
ATOM     10  N   UNL     1       0.959   3.841  19.471  0.00  0.00    +0.000 N 
ATOM     11  H   UNL     1       0.522   3.905  20.384  0.00  0.00    +0.000 HD
ATOM     12  H   UNL     1       0.470   3.305  18.767  0.00  0.00    +0.000 HD
ENDBRANCH   1  10
BRANCH   9  13
ATOM     13  C   UNL     1       6.773   5.294  18.624  0.00  0.00    +0.000 C 
ATOM     14  C   UNL     1       7.578   4.711  17.468  0.00  0.00    +0.000 C 
ATOM     15  C   UNL     1       7.483   6.188  17.616  0.00  0.00    +0.000 C 
ENDBRANCH   9  13
BRANCH   7  16
ATOM     16  O   UNL     1       2.232   6.405  17.918  0.00  0.00    +0.000 OA
BRANCH  16  17
ATOM     17  C   UNL     1       1.995   7.675  18.412  0.00  0.00    +0.000 A 
ATOM     18  C   UNL     1       1.744   7.762  19.769  0.00  0.00    +0.000 A 
ATOM     19  C   UNL     1       1.440   9.011  20.309  0.00  0.00    +0.000 A 
ATOM     20  C   UNL     1       1.458  10.121  19.478  0.00  0.00    +0.000 A 
ATOM     21  C   UNL     1       1.678   9.926  18.122  0.00  0.00    +0.000 A 
ATOM     22  N   UNL     1       1.909   8.721  17.564  0.00  0.00    +0.000 NA
BRANCH  19  23
ATOM     23  O   UNL     1       1.204   9.006  21.649  0.00  0.00    +0.000 OA
BRANCH  23  24
ATOM     24  C   UNL     1      -0.125   9.131  22.137  0.00  0.00    +0.000 C 
ATOM     25  F   UNL     1      -0.776  10.229  21.702  0.00  0.00    +0.000 F 
ATOM     26  F   UNL     1      -0.831   8.048  21.739  0.00  0.00    +0.000 F 
ATOM     27  F   UNL     1      -0.100   9.146  23.486  0.00  0.00    +0.000 F 
ENDBRANCH  23  24
ENDBRANCH  19  23
ENDBRANCH  16  17
ENDBRANCH   7  16
TORSDOF 6
ENDMDL
MODEL 5
REMARK VINA RESULT:      -7.8      5.812      8.804
REMARK  Name = 
REMARK  6 active torsions:
REMARK  status: ('A' for Active; 'I' for Inactive)
REMARK    1  A    between atoms: N_1  and  C_2
REMARK    2  A    between atoms: C_8  and  O_9
REMARK    3  A    between atoms: O_9  and  C_10
REMARK    4  A    between atoms: C_12  and  O_13
REMARK    5  A    between atoms: O_13  and  C_14
REMARK    6  A    between atoms: N_22  and  C_23
REMARK                            x       y       z     vdW  Elec       q    Type
REMARK                         _______ _______ _______ _____ _____    ______ ____
ROOT
ATOM      1  C   UNL     1       4.820   6.705  17.153  0.00  0.00    +0.000 A 
ATOM      2  N   UNL     1       3.870   7.537  17.624  0.00  0.00    +0.000 NA
ATOM      3  C   UNL     1       2.702   7.012  18.044  0.00  0.00    +0.000 A 
ATOM      4  N   UNL     1       2.329   5.717  18.058  0.00  0.00    +0.000 NA
ATOM      5  C   UNL     1       3.306   4.921  17.580  0.00  0.00    +0.000 A 
ATOM      6  C   UNL     1       4.541   5.339  17.114  0.00  0.00    +0.000 A 
ATOM      7  C   UNL     1       5.181   4.154  16.721  0.00  0.00    +0.000 A 
ATOM      8  N   UNL     1       4.489   3.050  17.014  0.00  0.00    +0.000 NA
ATOM      9  N   UNL     1       3.318   3.547  17.470  0.00  0.00    +0.000 N 
ENDROOT
BRANCH   1  10
ATOM     10  N   UNL     1       6.024   7.259  16.750  0.00  0.00    +0.000 N 
ATOM     11  H   UNL     1       6.130   8.214  17.075  0.00  0.00    +0.000 HD
ATOM     12  H   UNL     1       6.312   7.064  15.802  0.00  0.00    +0.000 HD
ENDBRANCH   1  10
BRANCH   9  13
ATOM     13  C   UNL     1       2.213   2.686  17.846  0.00  0.00    +0.000 C 
ATOM     14  C   UNL     1       2.145   2.037  19.223  0.00  0.00    +0.000 C 
ATOM     15  C   UNL     1       1.199   3.135  18.890  0.00  0.00    +0.000 C 
ENDBRANCH   9  13
BRANCH   7  16
ATOM     16  O   UNL     1       6.436   4.070  16.233  0.00  0.00    +0.000 OA
BRANCH  16  17
ATOM     17  C   UNL     1       6.701   4.328  14.901  0.00  0.00    +0.000 A 
ATOM     18  C   UNL     1       6.070   3.506  13.985  0.00  0.00    +0.000 A 
ATOM     19  C   UNL     1       6.349   3.685  12.631  0.00  0.00    +0.000 A 
ATOM     20  C   UNL     1       7.200   4.713  12.253  0.00  0.00    +0.000 A 
ATOM     21  C   UNL     1       7.819   5.455  13.248  0.00  0.00    +0.000 A 
ATOM     22  N   UNL     1       7.618   5.260  14.566  0.00  0.00    +0.000 NA
BRANCH  19  23
ATOM     23  O   UNL     1       5.687   2.833  11.801  0.00  0.00    +0.000 OA
BRANCH  23  24
ATOM     24  C   UNL     1       4.361   3.134  11.385  0.00  0.00    +0.000 C 
ATOM     25  F   UNL     1       4.239   4.298  10.715  0.00  0.00    +0.000 F 
ATOM     26  F   UNL     1       3.933   2.142  10.572  0.00  0.00    +0.000 F 
ATOM     27  F   UNL     1       3.557   3.169  12.468  0.00  0.00    +0.000 F 
ENDBRANCH  23  24
ENDBRANCH  19  23
ENDBRANCH  16  17
ENDBRANCH   7  16
TORSDOF 6
ENDMDL
MODEL 6
REMARK VINA RESULT:      -7.8      6.699      9.432
REMARK  Name = 
REMARK  6 active torsions:
REMARK  status: ('A' for Active; 'I' for Inactive)
REMARK    1  A    between atoms: N_1  and  C_2
REMARK    2  A    between atoms: C_8  and  O_9
REMARK    3  A    between atoms: O_9  and  C_10
REMARK    4  A    between atoms: C_12  and  O_13
REMARK    5  A    between atoms: O_13  and  C_14
REMARK    6  A    between atoms: N_22  and  C_23
REMARK                            x       y       z     vdW  Elec       q    Type
REMARK                         _______ _______ _______ _____ _____    ______ ____
ROOT
ATOM      1  C   UNL     1       5.030   6.766  17.027  0.00  0.00    +0.000 A 
ATOM      2  N   UNL     1       4.193   7.712  17.498  0.00  0.00    +0.000 NA
ATOM      3  C   UNL     1       2.988   7.331  17.967  0.00  0.00    +0.000 A 
ATOM      4  N   UNL     1       2.476   6.087  18.033  0.00  0.00    +0.000 NA
ATOM      5  C   UNL     1       3.343   5.174  17.554  0.00  0.00    +0.000 A 
ATOM      6  C   UNL     1       4.602   5.439  17.040  0.00  0.00    +0.000 A 
ATOM      7  C   UNL     1       5.095   4.179  16.668  0.00  0.00    +0.000 A 
ATOM      8  N   UNL     1       4.295   3.168  17.016  0.00  0.00    +0.000 NA
ATOM      9  N   UNL     1       3.201   3.804  17.487  0.00  0.00    +0.000 N 
ENDROOT
BRANCH   1  10
ATOM     10  N   UNL     1       6.274   7.171  16.573  0.00  0.00    +0.000 N 
ATOM     11  H   UNL     1       6.694   6.487  15.953  0.00  0.00    +0.000 HD
ATOM     12  H   UNL     1       6.882   7.603  17.256  0.00  0.00    +0.000 HD
ENDBRANCH   1  10
BRANCH   9  13
ATOM     13  C   UNL     1       2.020   3.083  17.923  0.00  0.00    +0.000 C 
ATOM     14  C   UNL     1       2.119   1.895  18.872  0.00  0.00    +0.000 C 
ATOM     15  C   UNL     1       1.541   3.173  19.365  0.00  0.00    +0.000 C 
ENDBRANCH   9  13
BRANCH   7  16
ATOM     16  O   UNL     1       6.317   3.943  16.148  0.00  0.00    +0.000 OA
BRANCH  16  17
ATOM     17  C   UNL     1       6.578   4.172  14.809  0.00  0.00    +0.000 A 
ATOM     18  C   UNL     1       5.993   3.293  13.916  0.00  0.00    +0.000 A 
ATOM     19  C   UNL     1       6.272   3.443  12.559  0.00  0.00    +0.000 A 
ATOM     20  C   UNL     1       7.075   4.498  12.153  0.00  0.00    +0.000 A 
ATOM     21  C   UNL     1       7.652   5.300  13.128  0.00  0.00    +0.000 A 
ATOM     22  N   UNL     1       7.451   5.136  14.450  0.00  0.00    +0.000 NA
BRANCH  19  23
ATOM     23  O   UNL     1       5.657   2.535  11.752  0.00  0.00    +0.000 OA
BRANCH  23  24
ATOM     24  C   UNL     1       6.413   1.491  11.153  0.00  0.00    +0.000 C 
ATOM     25  F   UNL     1       6.433   1.522   9.804  0.00  0.00    +0.000 F 
ATOM     26  F   UNL     1       7.690   1.584  11.587  0.00  0.00    +0.000 F 
ATOM     27  F   UNL     1       5.915   0.302  11.553  0.00  0.00    +0.000 F 
ENDBRANCH  23  24
ENDBRANCH  19  23
ENDBRANCH  16  17
ENDBRANCH   7  16
TORSDOF 6
ENDMDL
MODEL 7
REMARK VINA RESULT:      -7.7      4.064      6.920
REMARK  Name = 
REMARK  6 active torsions:
REMARK  status: ('A' for Active; 'I' for Inactive)
REMARK    1  A    between atoms: N_1  and  C_2
REMARK    2  A    between atoms: C_8  and  O_9
REMARK    3  A    between atoms: O_9  and  C_10
REMARK    4  A    between atoms: C_12  and  O_13
REMARK    5  A    between atoms: O_13  and  C_14
REMARK    6  A    between atoms: N_22  and  C_23
REMARK                            x       y       z     vdW  Elec       q    Type
REMARK                         _______ _______ _______ _____ _____    ______ ____
ROOT
ATOM      1  C   UNL     1       2.061   8.144  18.786  0.00  0.00    +0.000 A 
ATOM      2  N   UNL     1       1.512   8.883  19.771  0.00  0.00    +0.000 NA
ATOM      3  C   UNL     1       1.244   8.288  20.950  0.00  0.00    +0.000 A 
ATOM      4  N   UNL     1       1.452   7.004  21.302  0.00  0.00    +0.000 NA
ATOM      5  C   UNL     1       2.002   6.303  20.291  0.00  0.00    +0.000 A 
ATOM      6  C   UNL     1       2.316   6.795  19.035  0.00  0.00    +0.000 A 
ATOM      7  C   UNL     1       2.843   5.689  18.352  0.00  0.00    +0.000 A 
ATOM      8  N   UNL     1       2.980   4.604  19.118  0.00  0.00    +0.000 NA
ATOM      9  N   UNL     1       2.392   4.981  20.274  0.00  0.00    +0.000 N 
ENDROOT
BRANCH   1  10
ATOM     10  N   UNL     1       2.355   8.777  17.589  0.00  0.00    +0.000 N 
ATOM     11  H   UNL     1       3.287   8.551  17.260  0.00  0.00    +0.000 HD
ATOM     12  H   UNL     1       2.062   9.741  17.508  0.00  0.00    +0.000 HD
ENDBRANCH   1  10
BRANCH   9  13
ATOM     13  C   UNL     1       2.246   4.071  21.395  0.00  0.00    +0.000 C 
ATOM     14  C   UNL     1       1.265   2.906  21.350  0.00  0.00    +0.000 C 
ATOM     15  C   UNL     1       2.725   2.629  21.294  0.00  0.00    +0.000 C 
ENDBRANCH   9  13
BRANCH   7  16
ATOM     16  O   UNL     1       3.322   5.707  17.092  0.00  0.00    +0.000 OA
BRANCH  16  17
ATOM     17  C   UNL     1       4.623   5.325  16.819  0.00  0.00    +0.000 A 
ATOM     18  C   UNL     1       5.569   6.335  16.833  0.00  0.00    +0.000 A 
ATOM     19  C   UNL     1       6.885   6.016  16.507  0.00  0.00    +0.000 A 
ATOM     20  C   UNL     1       7.206   4.693  16.238  0.00  0.00    +0.000 A 
ATOM     21  C   UNL     1       6.180   3.760  16.204  0.00  0.00    +0.000 A 
ATOM     22  N   UNL     1       4.889   4.055  16.452  0.00  0.00    +0.000 NA
BRANCH  19  23
ATOM     23  O   UNL     1       7.748   7.068  16.543  0.00  0.00    +0.000 OA
BRANCH  23  24
ATOM     24  C   UNL     1       7.826   7.881  17.706  0.00  0.00    +0.000 C 
ATOM     25  F   UNL     1       8.203   7.222  18.822  0.00  0.00    +0.000 F 
ATOM     26  F   UNL     1       8.730   8.862  17.482  0.00  0.00    +0.000 F 
ATOM     27  F   UNL     1       6.625   8.455  17.925  0.00  0.00    +0.000 F 
ENDBRANCH  23  24
ENDBRANCH  19  23
ENDBRANCH  16  17
ENDBRANCH   7  16
TORSDOF 6
ENDMDL
MODEL 8
REMARK VINA RESULT:      -7.6      4.949      7.031
REMARK  Name = 
REMARK  6 active torsions:
REMARK  status: ('A' for Active; 'I' for Inactive)
REMARK    1  A    between atoms: N_1  and  C_2
REMARK    2  A    between atoms: C_8  and  O_9
REMARK    3  A    between atoms: O_9  and  C_10
REMARK    4  A    between atoms: C_12  and  O_13
REMARK    5  A    between atoms: O_13  and  C_14
REMARK    6  A    between atoms: N_22  and  C_23
REMARK                            x       y       z     vdW  Elec       q    Type
REMARK                         _______ _______ _______ _____ _____    ______ ____
ROOT
ATOM      1  C   UNL     1       2.951   2.233  19.103  0.00  0.00    +0.000 A 
ATOM      2  N   UNL     1       1.722   1.684  19.039  0.00  0.00    +0.000 NA
ATOM      3  C   UNL     1       0.656   2.453  19.332  0.00  0.00    +0.000 A 
ATOM      4  N   UNL     1       0.640   3.750  19.699  0.00  0.00    +0.000 NA
ATOM      5  C   UNL     1       1.886   4.260  19.749  0.00  0.00    +0.000 A 
ATOM      6  C   UNL     1       3.058   3.572  19.479  0.00  0.00    +0.000 A 
ATOM      7  C   UNL     1       4.070   4.522  19.681  0.00  0.00    +0.000 A 
ATOM      8  N   UNL     1       3.608   5.750  19.936  0.00  0.00    +0.000 NA
ATOM      9  N   UNL     1       2.277   5.548  20.046  0.00  0.00    +0.000 N 
ENDROOT
BRANCH   1  10
ATOM     10  N   UNL     1       4.035   1.436  18.773  0.00  0.00    +0.000 N 
ATOM     11  H   UNL     1       3.793   0.734  18.082  0.00  0.00    +0.000 HD
ATOM     12  H   UNL     1       4.623   1.140  19.540  0.00  0.00    +0.000 HD
ENDBRANCH   1  10
BRANCH   9  13
ATOM     13  C   UNL     1       1.364   6.619  20.395  0.00  0.00    +0.000 C 
ATOM     14  C   UNL     1       1.761   7.714  21.378  0.00  0.00    +0.000 C 
ATOM     15  C   UNL     1       1.627   8.047  19.935  0.00  0.00    +0.000 C 
ENDBRANCH   9  13
BRANCH   7  16
ATOM     16  O   UNL     1       5.389   4.308  19.496  0.00  0.00    +0.000 OA
BRANCH  16  17
ATOM     17  C   UNL     1       6.145   5.157  18.707  0.00  0.00    +0.000 A 
ATOM     18  C   UNL     1       5.820   5.188  17.363  0.00  0.00    +0.000 A 
ATOM     19  C   UNL     1       6.589   5.981  16.513  0.00  0.00    +0.000 A 
ATOM     20  C   UNL     1       7.608   6.749  17.055  0.00  0.00    +0.000 A 
ATOM     21  C   UNL     1       7.886   6.615  18.408  0.00  0.00    +0.000 A 
ATOM     22  N   UNL     1       7.201   5.807  19.239  0.00  0.00    +0.000 NA
BRANCH  19  23
ATOM     23  O   UNL     1       6.202   5.951  15.209  0.00  0.00    +0.000 OA
BRANCH  23  24
ATOM     24  C   UNL     1       6.511   4.822  14.402  0.00  0.00    +0.000 C 
ATOM     25  F   UNL     1       7.033   3.780  15.080  0.00  0.00    +0.000 F 
ATOM     26  F   UNL     1       5.374   4.399  13.804  0.00  0.00    +0.000 F 
ATOM     27  F   UNL     1       7.381   5.194  13.439  0.00  0.00    +0.000 F 
ENDBRANCH  23  24
ENDBRANCH  19  23
ENDBRANCH  16  17
ENDBRANCH   7  16
TORSDOF 6
ENDMDL
MODEL 9
REMARK VINA RESULT:      -7.6      0.674      1.010
REMARK  Name = 
REMARK  6 active torsions:
REMARK  status: ('A' for Active; 'I' for Inactive)
REMARK    1  A    between atoms: N_1  and  C_2
REMARK    2  A    between atoms: C_8  and  O_9
REMARK    3  A    between atoms: O_9  and  C_10
REMARK    4  A    between atoms: C_12  and  O_13
REMARK    5  A    between atoms: O_13  and  C_14
REMARK    6  A    between atoms: N_22  and  C_23
REMARK                            x       y       z     vdW  Elec       q    Type
REMARK                         _______ _______ _______ _____ _____    ______ ____
ROOT
ATOM      1  C   UNL     1       1.573   3.638  19.447  0.00  0.00    +0.000 A 
ATOM      2  N   UNL     1       1.381   2.411  18.925  0.00  0.00    +0.000 NA
ATOM      3  C   UNL     1       2.256   1.956  18.007  0.00  0.00    +0.000 A 
ATOM      4  N   UNL     1       3.341   2.581  17.510  0.00  0.00    +0.000 NA
ATOM      5  C   UNL     1       3.496   3.803  18.057  0.00  0.00    +0.000 A 
ATOM      6  C   UNL     1       2.664   4.383  19.000  0.00  0.00    +0.000 A 
ATOM      7  C   UNL     1       3.234   5.643  19.234  0.00  0.00    +0.000 A 
ATOM      8  N   UNL     1       4.397   5.830  18.604  0.00  0.00    +0.000 NA
ATOM      9  N   UNL     1       4.498   4.724  17.835  0.00  0.00    +0.000 N 
ENDROOT
BRANCH   1  10
ATOM     10  N   UNL     1       0.679   4.080  20.409  0.00  0.00    +0.000 N 
ATOM     11  H   UNL     1       0.764   5.076  20.577  0.00  0.00    +0.000 HD
ATOM     12  H   UNL     1       0.565   3.488  21.220  0.00  0.00    +0.000 HD
ENDBRANCH   1  10
BRANCH   9  13
ATOM     13  C   UNL     1       5.596   4.529  16.908  0.00  0.00    +0.000 C 
ATOM     14  C   UNL     1       5.493   4.963  15.451  0.00  0.00    +0.000 C 
ATOM     15  C   UNL     1       6.382   5.718  16.373  0.00  0.00    +0.000 C 
ENDBRANCH   9  13
BRANCH   7  16
ATOM     16  O   UNL     1       2.778   6.554  20.118  0.00  0.00    +0.000 OA
BRANCH  16  17
ATOM     17  C   UNL     1       2.124   7.696  19.692  0.00  0.00    +0.000 A 
ATOM     18  C   UNL     1       1.466   8.421  20.669  0.00  0.00    +0.000 A 
ATOM     19  C   UNL     1       0.742   9.548  20.285  0.00  0.00    +0.000 A 
ATOM     20  C   UNL     1       0.757   9.930  18.951  0.00  0.00    +0.000 A 
ATOM     21  C   UNL     1       1.409   9.113  18.039  0.00  0.00    +0.000 A 
ATOM     22  N   UNL     1       2.061   7.983  18.375  0.00  0.00    +0.000 NA
BRANCH  19  23
ATOM     23  O   UNL     1       0.125  10.199  21.308  0.00  0.00    +0.000 OA
BRANCH  23  24
ATOM     24  C   UNL     1      -0.330   9.472  22.441  0.00  0.00    +0.000 C 
ATOM     25  F   UNL     1       0.635   9.171  23.334  0.00  0.00    +0.000 F 
ATOM     26  F   UNL     1      -1.265  10.213  23.078  0.00  0.00    +0.000 F 
ATOM     27  F   UNL     1      -0.911   8.326  22.025  0.00  0.00    +0.000 F 
ENDBRANCH  23  24
ENDBRANCH  19  23
ENDBRANCH  16  17
ENDBRANCH   7  16
TORSDOF 6
ENDMDL
