MODEL 1
REMARK VINA RESULT:      -7.3      0.000      0.000
REMARK  Name = 
REMARK  5 active torsions:
REMARK  status: ('A' for Active; 'I' for Inactive)
REMARK    1  A    between atoms: C_1  and  C_2
REMARK    2  A    between atoms: C_9  and  C_10
REMARK    3  A    between atoms: C_10  and  C_11
REMARK    4  A    between atoms: C_10  and  C_12
REMARK    5  A    between atoms: C_10  and  C_13
REMARK                            x       y       z     vdW  Elec       q    Type
REMARK                         _______ _______ _______ _____ _____    ______ ____
ROOT
ATOM      1  C   UNL     1       6.290   3.976  13.484  0.00  0.00    +0.000 C 
ATOM      2  C   UNL     1       6.853   4.671  14.697  0.00  0.00    +0.000 C 
ATOM      3  O   UNL     1       7.768   5.488  14.592  0.00  0.00    +0.000 OA
ATOM      4  N   UNL     1       6.268   4.376  15.901  0.00  0.00    +0.000 N 
ATOM      5  C   UNL     1       6.638   5.110  17.106  0.00  0.00    +0.000 C 
ATOM      6  C   UNL     1       5.506   4.828  18.022  0.00  0.00    +0.000 A 
ATOM      7  C   UNL     1       5.158   5.362  19.222  0.00  0.00    +0.000 A 
ATOM      8  N   UNL     1       4.049   4.961  19.875  0.00  0.00    +0.000 NA
ATOM      9  C   UNL     1       3.288   3.990  19.304  0.00  0.00    +0.000 A 
ATOM     10  N   UNL     1       3.554   3.423  18.107  0.00  0.00    +0.000 NA
ATOM     11  C   UNL     1       4.667   3.866  17.505  0.00  0.00    +0.000 A 
ATOM     12  C   UNL     1       5.169   3.436  16.151  0.00  0.00    +0.000 C 
ENDROOT
BRANCH   9  13
ATOM     13  C   UNL     1       2.012   3.568  20.034  0.00  0.00    +0.000 C 
ATOM     14  C   UNL     1       1.153   2.717  19.084  0.00  0.00    +0.000 C 
ATOM     15  C   UNL     1       2.349   2.744  21.291  0.00  0.00    +0.000 C 
ATOM     16  C   UNL     1       1.199   4.801  20.477  0.00  0.00    +0.000 C 
ENDBRANCH   9  13
TORSDOF 1
ENDMDL
MODEL 2
REMARK VINA RESULT:      -7.2      0.075      1.060
REMARK  Name = 
REMARK  5 active torsions:
REMARK  status: ('A' for Active; 'I' for Inactive)
REMARK    1  A    between atoms: C_1  and  C_2
REMARK    2  A    between atoms: C_9  and  C_10
REMARK    3  A    between atoms: C_10  and  C_11
REMARK    4  A    between atoms: C_10  and  C_12
REMARK    5  A    between atoms: C_10  and  C_13
REMARK                            x       y       z     vdW  Elec       q    Type
REMARK                         _______ _______ _______ _____ _____    ______ ____
ROOT
ATOM      1  C   UNL     1       6.303   4.008  13.454  0.00  0.00    +0.000 C 
ATOM      2  C   UNL     1       6.880   4.676  14.675  0.00  0.00    +0.000 C 
ATOM      3  O   UNL     1       7.815   5.473  14.580  0.00  0.00    +0.000 OA
ATOM      4  N   UNL     1       6.288   4.382  15.875  0.00  0.00    +0.000 N 
ATOM      5  C   UNL     1       6.675   5.094  17.089  0.00  0.00    +0.000 C 
ATOM      6  C   UNL     1       5.535   4.829  18.001  0.00  0.00    +0.000 A 
ATOM      7  C   UNL     1       5.198   5.358  19.207  0.00  0.00    +0.000 A 
ATOM      8  N   UNL     1       4.080   4.977  19.855  0.00  0.00    +0.000 NA
ATOM      9  C   UNL     1       3.297   4.029  19.273  0.00  0.00    +0.000 A 
ATOM     10  N   UNL     1       3.550   3.469  18.070  0.00  0.00    +0.000 NA
ATOM     11  C   UNL     1       4.674   3.893  17.474  0.00  0.00    +0.000 A 
ATOM     12  C   UNL     1       5.167   3.465  16.115  0.00  0.00    +0.000 C 
ENDROOT
BRANCH   9  13
ATOM     13  C   UNL     1       2.011   3.629  19.998  0.00  0.00    +0.000 C 
ATOM     14  C   UNL     1       2.369   2.715  21.180  0.00  0.00    +0.000 C 
ATOM     15  C   UNL     1       1.270   4.874  20.522  0.00  0.00    +0.000 C 
ATOM     16  C   UNL     1       1.058   2.873  19.049  0.00  0.00    +0.000 C 
ENDBRANCH   9  13
TORSDOF 1
ENDMDL
MODEL 3
REMARK VINA RESULT:      -7.2      0.273      1.150
REMARK  Name = 
REMARK  5 active torsions:
REMARK  status: ('A' for Active; 'I' for Inactive)
REMARK    1  A    between atoms: C_1  and  C_2
REMARK    2  A    between atoms: C_9  and  C_10
REMARK    3  A    between atoms: C_10  and  C_11
REMARK    4  A    between atoms: C_10  and  C_12
REMARK    5  A    between atoms: C_10  and  C_13
REMARK                            x       y       z     vdW  Elec       q    Type
REMARK                         _______ _______ _______ _____ _____    ______ ____
ROOT
ATOM      1  C   UNL     1       6.326   3.987  13.296  0.00  0.00    +0.000 C 
ATOM      2  C   UNL     1       6.925   4.699  14.482  0.00  0.00    +0.000 C 
ATOM      3  O   UNL     1       7.848   5.502  14.340  0.00  0.00    +0.000 OA
ATOM      4  N   UNL     1       6.365   4.435  15.704  0.00  0.00    +0.000 N 
ATOM      5  C   UNL     1       6.773   5.187  16.887  0.00  0.00    +0.000 C 
ATOM      6  C   UNL     1       5.659   4.938  17.833  0.00  0.00    +0.000 A 
ATOM      7  C   UNL     1       5.346   5.500  19.030  0.00  0.00    +0.000 A 
ATOM      8  N   UNL     1       4.247   5.127  19.717  0.00  0.00    +0.000 NA
ATOM      9  C   UNL     1       3.461   4.154  19.184  0.00  0.00    +0.000 A 
ATOM     10  N   UNL     1       3.692   3.560  17.992  0.00  0.00    +0.000 NA
ATOM     11  C   UNL     1       4.796   3.977  17.356  0.00  0.00    +0.000 A 
ATOM     12  C   UNL     1       5.261   3.514  15.999  0.00  0.00    +0.000 C 
ENDROOT
BRANCH   9  13
ATOM     13  C   UNL     1       2.198   3.762  19.951  0.00  0.00    +0.000 C 
ATOM     14  C   UNL     1       1.549   5.033  20.523  0.00  0.00    +0.000 C 
ATOM     15  C   UNL     1       1.194   3.052  19.023  0.00  0.00    +0.000 C 
ATOM     16  C   UNL     1       2.535   2.804  21.111  0.00  0.00    +0.000 C 
ENDBRANCH   9  13
TORSDOF 1
ENDMDL
MODEL 4
REMARK VINA RESULT:      -6.5      1.391      2.572
REMARK  Name = 
REMARK  5 active torsions:
REMARK  status: ('A' for Active; 'I' for Inactive)
REMARK    1  A    between atoms: C_1  and  C_2
REMARK    2  A    between atoms: C_9  and  C_10
REMARK    3  A    between atoms: C_10  and  C_11
REMARK    4  A    between atoms: C_10  and  C_12
REMARK    5  A    between atoms: C_10  and  C_13
REMARK                            x       y       z     vdW  Elec       q    Type
REMARK                         _______ _______ _______ _____ _____    ______ ____
ROOT
ATOM      1  C   UNL     1       7.585   7.567  17.487  0.00  0.00    +0.000 C 
ATOM      2  C   UNL     1       7.101   6.459  16.588  0.00  0.00    +0.000 C 
ATOM      3  O   UNL     1       7.786   6.064  15.644  0.00  0.00    +0.000 OA
ATOM      4  N   UNL     1       5.892   5.896  16.902  0.00  0.00    +0.000 N 
ATOM      5  C   UNL     1       5.412   4.718  16.186  0.00  0.00    +0.000 C 
ATOM      6  C   UNL     1       4.369   4.185  17.096  0.00  0.00    +0.000 A 
ATOM      7  C   UNL     1       3.682   3.012  17.097  0.00  0.00    +0.000 A 
ATOM      8  N   UNL     1       2.781   2.725  18.058  0.00  0.00    +0.000 NA
ATOM      9  C   UNL     1       2.564   3.654  19.027  0.00  0.00    +0.000 A 
ATOM     10  N   UNL     1       3.218   4.833  19.108  0.00  0.00    +0.000 NA
ATOM     11  C   UNL     1       4.104   5.059  18.127  0.00  0.00    +0.000 A 
ATOM     12  C   UNL     1       4.994   6.268  18.002  0.00  0.00    +0.000 C 
ENDROOT
BRANCH   9  13
ATOM     13  C   UNL     1       1.567   3.305  20.133  0.00  0.00    +0.000 C 
ATOM     14  C   UNL     1       0.854   4.590  20.584  0.00  0.00    +0.000 C 
ATOM     15  C   UNL     1       0.521   2.294  19.626  0.00  0.00    +0.000 C 
ATOM     16  C   UNL     1       2.288   2.678  21.344  0.00  0.00    +0.000 C 
ENDBRANCH   9  13
TORSDOF 1
ENDMDL
MODEL 5
REMARK VINA RESULT:      -6.4      1.397      2.366
REMARK  Name = 
REMARK  5 active torsions:
REMARK  status: ('A' for Active; 'I' for Inactive)
REMARK    1  A    between atoms: C_1  and  C_2
REMARK    2  A    between atoms: C_9  and  C_10
REMARK    3  A    between atoms: C_10  and  C_11
REMARK    4  A    between atoms: C_10  and  C_12
REMARK    5  A    between atoms: C_10  and  C_13
REMARK                            x       y       z     vdW  Elec       q    Type
REMARK                         _______ _______ _______ _____ _____    ______ ____
ROOT
ATOM      1  C   UNL     1       7.590   7.628  17.560  0.00  0.00    +0.000 C 
ATOM      2  C   UNL     1       7.137   6.513  16.653  0.00  0.00    +0.000 C 
ATOM      3  O   UNL     1       7.844   6.126  15.722  0.00  0.00    +0.000 OA
ATOM      4  N   UNL     1       5.929   5.936  16.943  0.00  0.00    +0.000 N 
ATOM      5  C   UNL     1       5.478   4.752  16.219  0.00  0.00    +0.000 C 
ATOM      6  C   UNL     1       4.424   4.206  17.109  0.00  0.00    +0.000 A 
ATOM      7  C   UNL     1       3.752   3.025  17.098  0.00  0.00    +0.000 A 
ATOM      8  N   UNL     1       2.836   2.727  18.041  0.00  0.00    +0.000 NA
ATOM      9  C   UNL     1       2.588   3.654  19.005  0.00  0.00    +0.000 A 
ATOM     10  N   UNL     1       3.227   4.841  19.098  0.00  0.00    +0.000 NA
ATOM     11  C   UNL     1       4.128   5.077  18.134  0.00  0.00    +0.000 A 
ATOM     12  C   UNL     1       5.006   6.297  18.026  0.00  0.00    +0.000 C 
ENDROOT
BRANCH   9  13
ATOM     13  C   UNL     1       1.575   3.293  20.092  0.00  0.00    +0.000 C 
ATOM     14  C   UNL     1       0.567   2.283  19.518  0.00  0.00    +0.000 C 
ATOM     15  C   UNL     1       2.281   2.671  21.311  0.00  0.00    +0.000 C 
ATOM     16  C   UNL     1       0.814   4.546  20.571  0.00  0.00    +0.000 C 
ENDBRANCH   9  13
TORSDOF 1
ENDMDL
MODEL 6
REMARK VINA RESULT:      -6.4      1.156      1.461
REMARK  Name = 
REMARK  5 active torsions:
REMARK  status: ('A' for Active; 'I' for Inactive)
REMARK    1  A    between atoms: C_1  and  C_2
REMARK    2  A    between atoms: C_9  and  C_10
REMARK    3  A    between atoms: C_10  and  C_11
REMARK    4  A    between atoms: C_10  and  C_12
REMARK    5  A    between atoms: C_10  and  C_13
REMARK                            x       y       z     vdW  Elec       q    Type
REMARK                         _______ _______ _______ _____ _____    ______ ____
ROOT
ATOM      1  C   UNL     1       7.074   4.168  12.498  0.00  0.00    +0.000 C 
ATOM      2  C   UNL     1       7.517   4.909  13.732  0.00  0.00    +0.000 C 
ATOM      3  O   UNL     1       8.372   5.793  13.670  0.00  0.00    +0.000 OA
ATOM      4  N   UNL     1       6.893   4.576  14.906  0.00  0.00    +0.000 N 
ATOM      5  C   UNL     1       7.142   5.341  16.124  0.00  0.00    +0.000 C 
ATOM      6  C   UNL     1       5.987   4.978  16.980  0.00  0.00    +0.000 A 
ATOM      7  C   UNL     1       5.536   5.489  18.156  0.00  0.00    +0.000 A 
ATOM      8  N   UNL     1       4.427   5.009  18.753  0.00  0.00    +0.000 NA
ATOM      9  C   UNL     1       3.774   3.979  18.152  0.00  0.00    +0.000 A 
ATOM     10  N   UNL     1       4.145   3.429  16.974  0.00  0.00    +0.000 NA
ATOM     11  C   UNL     1       5.252   3.953  16.429  0.00  0.00    +0.000 A 
ATOM     12  C   UNL     1       5.857   3.555  15.106  0.00  0.00    +0.000 C 
ENDROOT
BRANCH   9  13
ATOM     13  C   UNL     1       2.497   3.464  18.816  0.00  0.00    +0.000 C 
ATOM     14  C   UNL     1       1.305   4.297  18.316  0.00  0.00    +0.000 C 
ATOM     15  C   UNL     1       2.262   1.981  18.473  0.00  0.00    +0.000 C 
ATOM     16  C   UNL     1       2.588   3.589  20.351  0.00  0.00    +0.000 C 
ENDBRANCH   9  13
TORSDOF 1
ENDMDL
MODEL 7
REMARK VINA RESULT:      -6.3      1.372      2.554
REMARK  Name = 
REMARK  5 active torsions:
REMARK  status: ('A' for Active; 'I' for Inactive)
REMARK    1  A    between atoms: C_1  and  C_2
REMARK    2  A    between atoms: C_9  and  C_10
REMARK    3  A    between atoms: C_10  and  C_11
REMARK    4  A    between atoms: C_10  and  C_12
REMARK    5  A    between atoms: C_10  and  C_13
REMARK                            x       y       z     vdW  Elec       q    Type
REMARK                         _______ _______ _______ _____ _____    ______ ____
ROOT
ATOM      1  C   UNL     1       7.466   7.716  17.336  0.00  0.00    +0.000 C 
ATOM      2  C   UNL     1       7.089   6.502  16.527  0.00  0.00    +0.000 C 
ATOM      3  O   UNL     1       7.836   6.067  15.649  0.00  0.00    +0.000 OA
ATOM      4  N   UNL     1       5.903   5.894  16.846  0.00  0.00    +0.000 N 
ATOM      5  C   UNL     1       5.526   4.628  16.226  0.00  0.00    +0.000 C 
ATOM      6  C   UNL     1       4.478   4.114  17.142  0.00  0.00    +0.000 A 
ATOM      7  C   UNL     1       3.864   2.905  17.227  0.00  0.00    +0.000 A 
ATOM      8  N   UNL     1       2.941   2.650  18.176  0.00  0.00    +0.000 NA
ATOM      9  C   UNL     1       2.627   3.647  19.045  0.00  0.00    +0.000 A 
ATOM     10  N   UNL     1       3.205   4.868  19.040  0.00  0.00    +0.000 NA
ATOM     11  C   UNL     1       4.117   5.059  18.076  0.00  0.00    +0.000 A 
ATOM     12  C   UNL     1       4.938   6.307  17.873  0.00  0.00    +0.000 C 
ENDROOT
BRANCH   9  13
ATOM     13  C   UNL     1       1.606   3.337  20.141  0.00  0.00    +0.000 C 
ATOM     14  C   UNL     1       2.334   2.691  21.331  0.00  0.00    +0.000 C 
ATOM     15  C   UNL     1       0.903   4.624  20.611  0.00  0.00    +0.000 C 
ATOM     16  C   UNL     1       0.525   2.365  19.626  0.00  0.00    +0.000 C 
ENDBRANCH   9  13
TORSDOF 1
ENDMDL
MODEL 8
REMARK VINA RESULT:      -5.9      1.439      2.033
REMARK  Name = 
REMARK  5 active torsions:
REMARK  status: ('A' for Active; 'I' for Inactive)
REMARK    1  A    between atoms: C_1  and  C_2
REMARK    2  A    between atoms: C_9  and  C_10
REMARK    3  A    between atoms: C_10  and  C_11
REMARK    4  A    between atoms: C_10  and  C_12
REMARK    5  A    between atoms: C_10  and  C_13
REMARK                            x       y       z     vdW  Elec       q    Type
REMARK                         _______ _______ _______ _____ _____    ______ ____
ROOT
ATOM      1  C   UNL     1       6.247   3.249  12.127  0.00  0.00    +0.000 C 
ATOM      2  C   UNL     1       6.889   4.270  13.030  0.00  0.00    +0.000 C 
ATOM      3  O   UNL     1       7.738   5.052  12.601  0.00  0.00    +0.000 OA
ATOM      4  N   UNL     1       6.450   4.306  14.328  0.00  0.00    +0.000 N 
ATOM      5  C   UNL     1       6.898   5.357  15.235  0.00  0.00    +0.000 C 
ATOM      6  C   UNL     1       5.884   5.309  16.317  0.00  0.00    +0.000 A 
ATOM      7  C   UNL     1       5.630   6.146  17.357  0.00  0.00    +0.000 A 
ATOM      8  N   UNL     1       4.620   5.912  18.219  0.00  0.00    +0.000 NA
ATOM      9  C   UNL     1       3.864   4.798  18.028  0.00  0.00    +0.000 A 
ATOM     10  N   UNL     1       4.039   3.928  17.009  0.00  0.00    +0.000 NA
ATOM     11  C   UNL     1       5.056   4.217  16.184  0.00  0.00    +0.000 A 
ATOM     12  C   UNL     1       5.441   3.441  14.951  0.00  0.00    +0.000 C 
ENDROOT
BRANCH   9  13
ATOM     13  C   UNL     1       2.698   4.559  18.988  0.00  0.00    +0.000 C 
ATOM     14  C   UNL     1       2.296   5.898  19.626  0.00  0.00    +0.000 C 
ATOM     15  C   UNL     1       1.488   3.967  18.240  0.00  0.00    +0.000 C 
ATOM     16  C   UNL     1       3.098   3.571  20.102  0.00  0.00    +0.000 C 
ENDBRANCH   9  13
TORSDOF 1
ENDMDL
MODEL 9
REMARK VINA RESULT:      -5.9      4.869      7.375
REMARK  Name = 
REMARK  5 active torsions:
REMARK  status: ('A' for Active; 'I' for Inactive)
REMARK    1  A    between atoms: C_1  and  C_2
REMARK    2  A    between atoms: C_9  and  C_10
REMARK    3  A    between atoms: C_10  and  C_11
REMARK    4  A    between atoms: C_10  and  C_12
REMARK    5  A    between atoms: C_10  and  C_13
REMARK                            x       y       z     vdW  Elec       q    Type
REMARK                         _______ _______ _______ _____ _____    ______ ____
ROOT
ATOM      1  C   UNL     1       0.003   9.617  23.412  0.00  0.00    +0.000 C 
ATOM      2  C   UNL     1      -0.010  10.193  22.020  0.00  0.00    +0.000 C 
ATOM      3  O   UNL     1      -0.393  11.345  21.814  0.00  0.00    +0.000 OA
ATOM      4  N   UNL     1       0.460   9.387  21.016  0.00  0.00    +0.000 N 
ATOM      5  C   UNL     1       0.630   9.907  19.664  0.00  0.00    +0.000 C 
ATOM      6  C   UNL     1       1.549   8.919  19.047  0.00  0.00    +0.000 A 
ATOM      7  C   UNL     1       2.234   8.930  17.873  0.00  0.00    +0.000 A 
ATOM      8  N   UNL     1       3.047   7.914  17.523  0.00  0.00    +0.000 NA
ATOM      9  C   UNL     1       3.154   6.859  18.375  0.00  0.00    +0.000 A 
ATOM     10  N   UNL     1       2.523   6.781  19.568  0.00  0.00    +0.000 NA
ATOM     11  C   UNL     1       1.733   7.824  19.861  0.00  0.00    +0.000 A 
ATOM     12  C   UNL     1       0.953   8.009  21.137  0.00  0.00    +0.000 C 
ENDROOT
BRANCH   9  13
ATOM     13  C   UNL     1       4.106   5.728  17.988  0.00  0.00    +0.000 C 
ATOM     14  C   UNL     1       4.990   6.198  16.821  0.00  0.00    +0.000 C 
ATOM     15  C   UNL     1       5.001   5.336  19.179  0.00  0.00    +0.000 C 
ATOM     16  C   UNL     1       3.321   4.474  17.551  0.00  0.00    +0.000 C 
ENDBRANCH   9  13
TORSDOF 1
ENDMDL
