MODEL 1
REMARK VINA RESULT:      -6.7      0.000      0.000
REMARK  Name = 
REMARK  9 active torsions:
REMARK  status: ('A' for Active; 'I' for Inactive)
REMARK    1  A    between atoms: C_1  and  C_2
REMARK    2  A    between atoms: C_2  and  C_3
REMARK    3  A    between atoms: C_3  and  C_4
REMARK    4  A    between atoms: C_4  and  N_5
REMARK    5  A    between atoms: C_6  and  C_8
REMARK    6  A    between atoms: C_8  and  N_9
REMARK    7  A    between atoms: C_17  and  S_18
REMARK    8  A    between atoms: S_18  and  N_21
REMARK    9  A    between atoms: C_24  and  C_25
REMARK                            x       y       z     vdW  Elec       q    Type
REMARK                         _______ _______ _______ _____ _____    ______ ____
ROOT
ATOM      1  N   UNL     1       5.161   6.172  18.336  0.00  0.00    +0.000 N 
ATOM      2  C   UNL     1       5.109   7.113  17.294  0.00  0.00    +0.000 C 
ATOM      3  O   UNL     1       6.122   7.482  16.688  0.00  0.00    +0.000 OA
ATOM      4  C   UNL     1       3.747   7.602  16.861  0.00  0.00    +0.000 C 
ATOM      5  S   UNL     1       2.862   8.250  18.285  0.00  0.00    +0.000 S 
ATOM      6  C   UNL     1       2.923   6.740  19.234  0.00  0.00    +0.000 A 
ATOM      7  C   UNL     1       1.808   6.456  20.036  0.00  0.00    +0.000 A 
ATOM      8  C   UNL     1       1.727   5.258  20.741  0.00  0.00    +0.000 A 
ATOM      9  C   UNL     1       2.777   4.340  20.667  0.00  0.00    +0.000 A 
ATOM     10  C   UNL     1       3.916   4.636  19.883  0.00  0.00    +0.000 A 
ATOM     11  C   UNL     1       4.016   5.846  19.158  0.00  0.00    +0.000 A 
ENDROOT
BRANCH   9  12
ATOM     12  S   UNL     1       2.488   2.672  21.283  0.00  0.00    +0.000 S 
ATOM     13  O   UNL     1       3.769   2.198  21.766  0.00  0.00    +0.000 OA
ATOM     14  O   UNL     1       1.353   2.762  22.179  0.00  0.00    +0.000 OA
BRANCH  12  15
ATOM     15  N   UNL     1       2.050   1.698  19.978  0.00  0.00    +0.000 NA
ATOM     16  C   UNL     1       3.050   0.985  19.174  0.00  0.00    +0.000 C 
ATOM     17  C   UNL     1       3.469   1.828  17.972  0.00  0.00    +0.000 C 
ATOM     18  C   UNL     1       2.334   2.616  17.272  0.00  0.00    +0.000 C 
ATOM     19  C   UNL     1       2.887   3.882  16.599  0.00  0.00    +0.000 C 
ATOM     20  C   UNL     1       1.134   2.999  18.159  0.00  0.00    +0.000 C 
ATOM     21  C   UNL     1       0.826   1.968  19.218  0.00  0.00    +0.000 C 
ENDBRANCH  12  15
ENDBRANCH   9  12
BRANCH   1  22
ATOM     22  C   UNL     1       6.470   5.538  18.537  0.00  0.00    +0.000 C 
BRANCH  22  24
ATOM     23  N   UNL     1       6.178   4.376  16.347  0.00  0.00    +0.000 N 
ATOM     24  C   UNL     1       7.016   4.643  17.406  0.00  0.00    +0.000 C 
ATOM     25  O   UNL     1       8.173   4.225  17.447  0.00  0.00    +0.000 OA
ATOM     26  H   UNL     1       5.192   4.583  16.450  0.00  0.00    +0.000 HD
BRANCH  23  27
ATOM     27  C   UNL     1       6.606   3.576  15.212  0.00  0.00    +0.000 C 
BRANCH  27  28
ATOM     28  C   UNL     1       6.466   4.285  13.863  0.00  0.00    +0.000 C 
BRANCH  28  30
ATOM     29  C   UNL     1       5.704   2.912  11.881  0.00  0.00    +0.000 C 
ATOM     30  C   UNL     1       5.270   3.771  13.059  0.00  0.00    +0.000 C 
ENDBRANCH  28  30
ENDBRANCH  27  28
ENDBRANCH  23  27
ENDBRANCH  22  24
ENDBRANCH   1  22
TORSDOF 7
ENDMDL
MODEL 2
REMARK VINA RESULT:      -6.5      8.678     11.209
REMARK  Name = 
REMARK  9 active torsions:
REMARK  status: ('A' for Active; 'I' for Inactive)
REMARK    1  A    between atoms: C_1  and  C_2
REMARK    2  A    between atoms: C_2  and  C_3
REMARK    3  A    between atoms: C_3  and  C_4
REMARK    4  A    between atoms: C_4  and  N_5
REMARK    5  A    between atoms: C_6  and  C_8
REMARK    6  A    between atoms: C_8  and  N_9
REMARK    7  A    between atoms: C_17  and  S_18
REMARK    8  A    between atoms: S_18  and  N_21
REMARK    9  A    between atoms: C_24  and  C_25
REMARK                            x       y       z     vdW  Elec       q    Type
REMARK                         _______ _______ _______ _____ _____    ______ ____
ROOT
ATOM      1  N   UNL     1      -2.513  11.939  18.355  0.00  0.00    +0.000 N 
ATOM      2  C   UNL     1      -2.944  11.311  17.174  0.00  0.00    +0.000 C 
ATOM      3  O   UNL     1      -2.216  11.206  16.181  0.00  0.00    +0.000 OA
ATOM      4  C   UNL     1      -4.314  10.674  17.181  0.00  0.00    +0.000 C 
ATOM      5  S   UNL     1      -5.538  11.891  17.683  0.00  0.00    +0.000 S 
ATOM      6  C   UNL     1      -4.797  12.247  19.266  0.00  0.00    +0.000 A 
ATOM      7  C   UNL     1      -5.675  12.525  20.324  0.00  0.00    +0.000 A 
ATOM      8  C   UNL     1      -5.191  12.726  21.614  0.00  0.00    +0.000 A 
ATOM      9  C   UNL     1      -3.817  12.672  21.853  0.00  0.00    +0.000 A 
ATOM     10  C   UNL     1      -2.926  12.421  20.784  0.00  0.00    +0.000 A 
ATOM     11  C   UNL     1      -3.398  12.212  19.467  0.00  0.00    +0.000 A 
ENDROOT
BRANCH   9  12
ATOM     12  S   UNL     1      -3.259  12.572  23.563  0.00  0.00    +0.000 S 
ATOM     13  O   UNL     1      -4.402  12.121  24.330  0.00  0.00    +0.000 OA
ATOM     14  O   UNL     1      -2.034  11.799  23.545  0.00  0.00    +0.000 OA
BRANCH  12  15
ATOM     15  N   UNL     1      -2.886  14.132  24.086  0.00  0.00    +0.000 NA
ATOM     16  C   UNL     1      -3.916  15.170  24.222  0.00  0.00    +0.000 C 
ATOM     17  C   UNL     1      -4.022  15.988  22.937  0.00  0.00    +0.000 C 
ATOM     18  C   UNL     1      -2.681  16.317  22.234  0.00  0.00    +0.000 C 
ATOM     19  C   UNL     1      -2.891  16.491  20.721  0.00  0.00    +0.000 C 
ATOM     20  C   UNL     1      -1.534  15.317  22.472  0.00  0.00    +0.000 C 
ATOM     21  C   UNL     1      -1.557  14.705  23.851  0.00  0.00    +0.000 C 
ENDBRANCH  12  15
ENDBRANCH   9  12
BRANCH   1  22
ATOM     22  C   UNL     1      -1.091  12.306  18.382  0.00  0.00    +0.000 C 
BRANCH  22  24
ATOM     23  N   UNL     1       0.392  10.302  18.250  0.00  0.00    +0.000 N 
ATOM     24  C   UNL     1      -0.108  11.315  19.036  0.00  0.00    +0.000 C 
ATOM     25  O   UNL     1       0.237  11.464  20.209  0.00  0.00    +0.000 OA
ATOM     26  H   UNL     1      -0.061  10.115  17.363  0.00  0.00    +0.000 HD
BRANCH  23  27
ATOM     27  C   UNL     1       1.353   9.337  18.757  0.00  0.00    +0.000 C 
BRANCH  27  28
ATOM     28  C   UNL     1       2.130   8.600  17.664  0.00  0.00    +0.000 C 
BRANCH  28  30
ATOM     29  C   UNL     1       2.399   6.975  19.582  0.00  0.00    +0.000 C 
ATOM     30  C   UNL     1       2.503   7.175  18.078  0.00  0.00    +0.000 C 
ENDBRANCH  28  30
ENDBRANCH  27  28
ENDBRANCH  23  27
ENDBRANCH  22  24
ENDBRANCH   1  22
TORSDOF 7
ENDMDL
MODEL 3
REMARK VINA RESULT:      -6.4      3.172      5.305
REMARK  Name = 
REMARK  9 active torsions:
REMARK  status: ('A' for Active; 'I' for Inactive)
REMARK    1  A    between atoms: C_1  and  C_2
REMARK    2  A    between atoms: C_2  and  C_3
REMARK    3  A    between atoms: C_3  and  C_4
REMARK    4  A    between atoms: C_4  and  N_5
REMARK    5  A    between atoms: C_6  and  C_8
REMARK    6  A    between atoms: C_8  and  N_9
REMARK    7  A    between atoms: C_17  and  S_18
REMARK    8  A    between atoms: S_18  and  N_21
REMARK    9  A    between atoms: C_24  and  C_25
REMARK                            x       y       z     vdW  Elec       q    Type
REMARK                         _______ _______ _______ _____ _____    ______ ____
ROOT
ATOM      1  N   UNL     1       4.562   5.287  18.879  0.00  0.00    +0.000 N 
ATOM      2  C   UNL     1       5.244   4.062  18.980  0.00  0.00    +0.000 C 
ATOM      3  O   UNL     1       6.294   3.840  18.365  0.00  0.00    +0.000 OA
ATOM      4  C   UNL     1       4.702   3.038  19.949  0.00  0.00    +0.000 C 
ATOM      5  S   UNL     1       2.971   2.721  19.580  0.00  0.00    +0.000 S 
ATOM      6  C   UNL     1       2.432   4.408  19.791  0.00  0.00    +0.000 A 
ATOM      7  C   UNL     1       1.157   4.598  20.342  0.00  0.00    +0.000 A 
ATOM      8  C   UNL     1       0.688   5.878  20.627  0.00  0.00    +0.000 A 
ATOM      9  C   UNL     1       1.488   6.986  20.339  0.00  0.00    +0.000 A 
ATOM     10  C   UNL     1       2.763   6.801  19.756  0.00  0.00    +0.000 A 
ATOM     11  C   UNL     1       3.257   5.509  19.462  0.00  0.00    +0.000 A 
ENDROOT
BRANCH   9  12
ATOM     12  S   UNL     1       1.015   8.575  21.043  0.00  0.00    +0.000 S 
ATOM     13  O   UNL     1      -0.410   8.494  21.291  0.00  0.00    +0.000 OA
ATOM     14  O   UNL     1       1.937   8.826  22.133  0.00  0.00    +0.000 OA
BRANCH  12  15
ATOM     15  N   UNL     1       1.256   9.762  19.870  0.00  0.00    +0.000 NA
ATOM     16  C   UNL     1       0.846  11.156  20.082  0.00  0.00    +0.000 C 
ATOM     17  C   UNL     1      -0.565  11.386  19.546  0.00  0.00    +0.000 C 
ATOM     18  C   UNL     1      -0.903  10.677  18.211  0.00  0.00    +0.000 C 
ATOM     19  C   UNL     1      -2.409  10.386  18.118  0.00  0.00    +0.000 C 
ATOM     20  C   UNL     1      -0.121   9.382  17.920  0.00  0.00    +0.000 C 
ATOM     21  C   UNL     1       1.294   9.413  18.447  0.00  0.00    +0.000 C 
ENDBRANCH  12  15
ENDBRANCH   9  12
BRANCH   1  22
ATOM     22  C   UNL     1       5.271   6.334  18.131  0.00  0.00    +0.000 C 
BRANCH  22  24
ATOM     23  N   UNL     1       5.028   4.947  16.069  0.00  0.00    +0.000 N 
ATOM     24  C   UNL     1       5.412   6.155  16.606  0.00  0.00    +0.000 C 
ATOM     25  O   UNL     1       5.818   7.082  15.906  0.00  0.00    +0.000 OA
ATOM     26  H   UNL     1       4.882   4.167  16.698  0.00  0.00    +0.000 HD
BRANCH  23  27
ATOM     27  C   UNL     1       5.085   4.688  14.640  0.00  0.00    +0.000 C 
BRANCH  27  28
ATOM     28  C   UNL     1       6.315   3.890  14.202  0.00  0.00    +0.000 C 
BRANCH  28  30
ATOM     29  C   UNL     1       4.962   3.397  12.124  0.00  0.00    +0.000 C 
ATOM     30  C   UNL     1       6.349   3.660  12.690  0.00  0.00    +0.000 C 
ENDBRANCH  28  30
ENDBRANCH  27  28
ENDBRANCH  23  27
ENDBRANCH  22  24
ENDBRANCH   1  22
TORSDOF 7
ENDMDL
MODEL 4
REMARK VINA RESULT:      -6.3      8.885     11.800
REMARK  Name = 
REMARK  9 active torsions:
REMARK  status: ('A' for Active; 'I' for Inactive)
REMARK    1  A    between atoms: C_1  and  C_2
REMARK    2  A    between atoms: C_2  and  C_3
REMARK    3  A    between atoms: C_3  and  C_4
REMARK    4  A    between atoms: C_4  and  N_5
REMARK    5  A    between atoms: C_6  and  C_8
REMARK    6  A    between atoms: C_8  and  N_9
REMARK    7  A    between atoms: C_17  and  S_18
REMARK    8  A    between atoms: S_18  and  N_21
REMARK    9  A    between atoms: C_24  and  C_25
REMARK                            x       y       z     vdW  Elec       q    Type
REMARK                         _______ _______ _______ _____ _____    ______ ____
ROOT
ATOM      1  N   UNL     1      -0.278  10.570  19.227  0.00  0.00    +0.000 N 
ATOM      2  C   UNL     1       0.673   9.602  18.862  0.00  0.00    +0.000 C 
ATOM      3  O   UNL     1       0.858   9.273  17.684  0.00  0.00    +0.000 OA
ATOM      4  C   UNL     1       1.545   9.030  19.954  0.00  0.00    +0.000 C 
ATOM      5  S   UNL     1       0.507   8.371  21.266  0.00  0.00    +0.000 S 
ATOM      6  C   UNL     1      -0.335   9.904  21.614  0.00  0.00    +0.000 A 
ATOM      7  C   UNL     1      -0.671  10.148  22.953  0.00  0.00    +0.000 A 
ATOM      8  C   UNL     1      -1.249  11.358  23.332  0.00  0.00    +0.000 A 
ATOM      9  C   UNL     1      -1.519  12.328  22.365  0.00  0.00    +0.000 A 
ATOM     10  C   UNL     1      -1.209  12.074  21.009  0.00  0.00    +0.000 A 
ATOM     11  C   UNL     1      -0.620  10.853  20.604  0.00  0.00    +0.000 A 
ENDROOT
BRANCH   9  12
ATOM     12  S   UNL     1      -1.920  13.992  22.925  0.00  0.00    +0.000 S 
ATOM     13  O   UNL     1      -0.732  14.485  23.593  0.00  0.00    +0.000 OA
ATOM     14  O   UNL     1      -2.457  14.688  21.774  0.00  0.00    +0.000 OA
BRANCH  12  15
ATOM     15  N   UNL     1      -3.138  13.877  24.085  0.00  0.00    +0.000 NA
ATOM     16  C   UNL     1      -4.426  13.236  23.795  0.00  0.00    +0.000 C 
ATOM     17  C   UNL     1      -5.442  14.271  23.317  0.00  0.00    +0.000 C 
ATOM     18  C   UNL     1      -5.407  15.638  24.045  0.00  0.00    +0.000 C 
ATOM     19  C   UNL     1      -5.904  16.758  23.118  0.00  0.00    +0.000 C 
ATOM     20  C   UNL     1      -4.048  16.045  24.644  0.00  0.00    +0.000 C 
ATOM     21  C   UNL     1      -3.249  14.871  25.157  0.00  0.00    +0.000 C 
ENDBRANCH  12  15
ENDBRANCH   9  12
BRANCH   1  22
ATOM     22  C   UNL     1      -0.909  11.277  18.106  0.00  0.00    +0.000 C 
BRANCH  22  24
ATOM     23  N   UNL     1      -3.138  11.800  17.110  0.00  0.00    +0.000 N 
ATOM     24  C   UNL     1      -2.335  10.852  17.701  0.00  0.00    +0.000 C 
ATOM     25  O   UNL     1      -2.710   9.692  17.874  0.00  0.00    +0.000 OA
ATOM     26  H   UNL     1      -2.854  12.771  17.163  0.00  0.00    +0.000 HD
BRANCH  23  27
ATOM     27  C   UNL     1      -4.485  11.493  16.657  0.00  0.00    +0.000 C 
BRANCH  27  28
ATOM     28  C   UNL     1      -5.583  12.232  17.425  0.00  0.00    +0.000 C 
BRANCH  28  30
ATOM     29  C   UNL     1      -6.744  10.452  18.793  0.00  0.00    +0.000 C 
ATOM     30  C   UNL     1      -5.807  11.650  18.821  0.00  0.00    +0.000 C 
ENDBRANCH  28  30
ENDBRANCH  27  28
ENDBRANCH  23  27
ENDBRANCH  22  24
ENDBRANCH   1  22
TORSDOF 7
ENDMDL
MODEL 5
REMARK VINA RESULT:      -6.3      8.845     11.332
REMARK  Name = 
REMARK  9 active torsions:
REMARK  status: ('A' for Active; 'I' for Inactive)
REMARK    1  A    between atoms: C_1  and  C_2
REMARK    2  A    between atoms: C_2  and  C_3
REMARK    3  A    between atoms: C_3  and  C_4
REMARK    4  A    between atoms: C_4  and  N_5
REMARK    5  A    between atoms: C_6  and  C_8
REMARK    6  A    between atoms: C_8  and  N_9
REMARK    7  A    between atoms: C_17  and  S_18
REMARK    8  A    between atoms: S_18  and  N_21
REMARK    9  A    between atoms: C_24  and  C_25
REMARK                            x       y       z     vdW  Elec       q    Type
REMARK                         _______ _______ _______ _____ _____    ______ ____
ROOT
ATOM      1  N   UNL     1      -0.589  11.363  19.308  0.00  0.00    +0.000 N 
ATOM      2  C   UNL     1       0.270  10.287  19.027  0.00  0.00    +0.000 C 
ATOM      3  O   UNL     1       0.472   9.890  17.873  0.00  0.00    +0.000 OA
ATOM      4  C   UNL     1       1.027   9.676  20.182  0.00  0.00    +0.000 C 
ATOM      5  S   UNL     1      -0.133   9.184  21.465  0.00  0.00    +0.000 S 
ATOM      6  C   UNL     1      -0.824  10.810  21.712  0.00  0.00    +0.000 A 
ATOM      7  C   UNL     1      -1.192  11.145  23.023  0.00  0.00    +0.000 A 
ATOM      8  C   UNL     1      -1.656  12.423  23.327  0.00  0.00    +0.000 A 
ATOM      9  C   UNL     1      -1.778  13.373  22.311  0.00  0.00    +0.000 A 
ATOM     10  C   UNL     1      -1.436  13.030  20.982  0.00  0.00    +0.000 A 
ATOM     11  C   UNL     1      -0.961  11.739  20.654  0.00  0.00    +0.000 A 
ENDROOT
BRANCH   9  12
ATOM     12  S   UNL     1      -2.026  15.093  22.787  0.00  0.00    +0.000 S 
ATOM     13  O   UNL     1      -1.543  15.203  24.148  0.00  0.00    +0.000 OA
ATOM     14  O   UNL     1      -1.440  15.893  21.732  0.00  0.00    +0.000 OA
BRANCH  12  15
ATOM     15  N   UNL     1      -3.685  15.396  22.815  0.00  0.00    +0.000 NA
ATOM     16  C   UNL     1      -4.589  14.672  23.717  0.00  0.00    +0.000 C 
ATOM     17  C   UNL     1      -5.166  13.442  23.021  0.00  0.00    +0.000 C 
ATOM     18  C   UNL     1      -5.546  13.626  21.530  0.00  0.00    +0.000 C 
ATOM     19  C   UNL     1      -5.443  12.292  20.775  0.00  0.00    +0.000 C 
ATOM     20  C   UNL     1      -4.756  14.702  20.762  0.00  0.00    +0.000 C 
ATOM     21  C   UNL     1      -4.378  15.886  21.620  0.00  0.00    +0.000 C 
ENDBRANCH  12  15
ENDBRANCH   9  12
BRANCH   1  22
ATOM     22  C   UNL     1      -1.091  12.083  18.130  0.00  0.00    +0.000 C 
BRANCH  22  24
ATOM     23  N   UNL     1      -2.133  10.685  16.343  0.00  0.00    +0.000 N 
ATOM     24  C   UNL     1      -2.337  11.516  17.421  0.00  0.00    +0.000 C 
ATOM     25  O   UNL     1      -3.465  11.777  17.842  0.00  0.00    +0.000 OA
ATOM     26  H   UNL     1      -1.210  10.655  15.929  0.00  0.00    +0.000 HD
BRANCH  23  27
ATOM     27  C   UNL     1      -3.238  10.068  15.628  0.00  0.00    +0.000 C 
BRANCH  27  28
ATOM     28  C   UNL     1      -3.115  10.149  14.105  0.00  0.00    +0.000 C 
BRANCH  28  30
ATOM     29  C   UNL     1      -4.269   9.801  11.883  0.00  0.00    +0.000 C 
ATOM     30  C   UNL     1      -4.392   9.699  13.395  0.00  0.00    +0.000 C 
ENDBRANCH  28  30
ENDBRANCH  27  28
ENDBRANCH  23  27
ENDBRANCH  22  24
ENDBRANCH   1  22
TORSDOF 7
ENDMDL
MODEL 6
REMARK VINA RESULT:      -6.2      9.397     12.328
REMARK  Name = 
REMARK  9 active torsions:
REMARK  status: ('A' for Active; 'I' for Inactive)
REMARK    1  A    between atoms: C_1  and  C_2
REMARK    2  A    between atoms: C_2  and  C_3
REMARK    3  A    between atoms: C_3  and  C_4
REMARK    4  A    between atoms: C_4  and  N_5
REMARK    5  A    between atoms: C_6  and  C_8
REMARK    6  A    between atoms: C_8  and  N_9
REMARK    7  A    between atoms: C_17  and  S_18
REMARK    8  A    between atoms: S_18  and  N_21
REMARK    9  A    between atoms: C_24  and  C_25
REMARK                            x       y       z     vdW  Elec       q    Type
REMARK                         _______ _______ _______ _____ _____    ______ ____
ROOT
ATOM      1  N   UNL     1      -0.505  10.845  19.242  0.00  0.00    +0.000 N 
ATOM      2  C   UNL     1       0.487   9.884  18.985  0.00  0.00    +0.000 C 
ATOM      3  O   UNL     1       0.724   9.471  17.844  0.00  0.00    +0.000 OA
ATOM      4  C   UNL     1       1.338   9.429  20.147  0.00  0.00    +0.000 C 
ATOM      5  S   UNL     1       0.276   8.839  21.472  0.00  0.00    +0.000 S 
ATOM      6  C   UNL     1      -0.626  10.366  21.670  0.00  0.00    +0.000 A 
ATOM      7  C   UNL     1      -1.016  10.702  22.975  0.00  0.00    +0.000 A 
ATOM      8  C   UNL     1      -1.644  11.916  23.238  0.00  0.00    +0.000 A 
ATOM      9  C   UNL     1      -1.910  12.799  22.189  0.00  0.00    +0.000 A 
ATOM     10  C   UNL     1      -1.545  12.450  20.867  0.00  0.00    +0.000 A 
ATOM     11  C   UNL     1      -0.904  11.223  20.580  0.00  0.00    +0.000 A 
ENDROOT
BRANCH   9  12
ATOM     12  S   UNL     1      -2.382  14.487  22.602  0.00  0.00    +0.000 S 
ATOM     13  O   UNL     1      -1.163  15.152  23.014  0.00  0.00    +0.000 OA
ATOM     14  O   UNL     1      -3.144  14.982  21.474  0.00  0.00    +0.000 OA
BRANCH  12  15
ATOM     15  N   UNL     1      -3.403  14.434  23.943  0.00  0.00    +0.000 NA
ATOM     16  C   UNL     1      -4.857  14.282  23.804  0.00  0.00    +0.000 C 
ATOM     17  C   UNL     1      -5.535  15.649  23.762  0.00  0.00    +0.000 C 
ATOM     18  C   UNL     1      -4.959  16.718  24.724  0.00  0.00    +0.000 C 
ATOM     19  C   UNL     1      -5.185  18.130  24.162  0.00  0.00    +0.000 C 
ATOM     20  C   UNL     1      -3.474  16.556  25.097  0.00  0.00    +0.000 C 
ATOM     21  C   UNL     1      -3.039  15.113  25.190  0.00  0.00    +0.000 C 
ENDBRANCH  12  15
ENDBRANCH   9  12
BRANCH   1  22
ATOM     22  C   UNL     1      -1.119  11.441  18.048  0.00  0.00    +0.000 C 
BRANCH  22  24
ATOM     23  N   UNL     1      -3.481  11.839  17.344  0.00  0.00    +0.000 N 
ATOM     24  C   UNL     1      -2.500  10.911  17.611  0.00  0.00    +0.000 C 
ATOM     25  O   UNL     1      -2.687   9.702  17.475  0.00  0.00    +0.000 OA
ATOM     26  H   UNL     1      -3.335  12.793  17.649  0.00  0.00    +0.000 HD
BRANCH  23  27
ATOM     27  C   UNL     1      -4.805  11.448  16.890  0.00  0.00    +0.000 C 
BRANCH  27  28
ATOM     28  C   UNL     1      -5.805  11.208  18.023  0.00  0.00    +0.000 C 
BRANCH  28  30
ATOM     29  C   UNL     1      -6.802  13.280  16.972  0.00  0.00    +0.000 C 
ATOM     30  C   UNL     1      -7.039  12.104  17.907  0.00  0.00    +0.000 C 
ENDBRANCH  28  30
ENDBRANCH  27  28
ENDBRANCH  23  27
ENDBRANCH  22  24
ENDBRANCH   1  22
TORSDOF 7
ENDMDL
MODEL 7
REMARK VINA RESULT:      -6.1      5.449      7.739
REMARK  Name = 
REMARK  9 active torsions:
REMARK  status: ('A' for Active; 'I' for Inactive)
REMARK    1  A    between atoms: C_1  and  C_2
REMARK    2  A    between atoms: C_2  and  C_3
REMARK    3  A    between atoms: C_3  and  C_4
REMARK    4  A    between atoms: C_4  and  N_5
REMARK    5  A    between atoms: C_6  and  C_8
REMARK    6  A    between atoms: C_8  and  N_9
REMARK    7  A    between atoms: C_17  and  S_18
REMARK    8  A    between atoms: S_18  and  N_21
REMARK    9  A    between atoms: C_24  and  C_25
REMARK                            x       y       z     vdW  Elec       q    Type
REMARK                         _______ _______ _______ _____ _____    ______ ____
ROOT
ATOM      1  N   UNL     1       0.726  11.617  19.058  0.00  0.00    +0.000 N 
ATOM      2  C   UNL     1      -0.382  12.398  19.429  0.00  0.00    +0.000 C 
ATOM      3  O   UNL     1      -0.517  13.568  19.054  0.00  0.00    +0.000 OA
ATOM      4  C   UNL     1      -1.470  11.730  20.236  0.00  0.00    +0.000 C 
ATOM      5  S   UNL     1      -0.754  10.986  21.707  0.00  0.00    +0.000 S 
ATOM      6  C   UNL     1       0.383   9.923  20.834  0.00  0.00    +0.000 A 
ATOM      7  C   UNL     1       0.627   8.663  21.399  0.00  0.00    +0.000 A 
ATOM      8  C   UNL     1       1.429   7.733  20.742  0.00  0.00    +0.000 A 
ATOM      9  C   UNL     1       2.014   8.067  19.519  0.00  0.00    +0.000 A 
ATOM     10  C   UNL     1       1.794   9.347  18.960  0.00  0.00    +0.000 A 
ATOM     11  C   UNL     1       0.982  10.304  19.611  0.00  0.00    +0.000 A 
ENDROOT
BRANCH   9  12
ATOM     12  S   UNL     1       2.732   6.740  18.535  0.00  0.00    +0.000 S 
ATOM     13  O   UNL     1       1.614   6.002  17.984  0.00  0.00    +0.000 OA
ATOM     14  O   UNL     1       3.702   7.365  17.659  0.00  0.00    +0.000 OA
BRANCH  12  15
ATOM     15  N   UNL     1       3.558   5.701  19.576  0.00  0.00    +0.000 NA
ATOM     16  C   UNL     1       4.917   5.230  19.283  0.00  0.00    +0.000 C 
ATOM     17  C   UNL     1       4.873   3.902  18.533  0.00  0.00    +0.000 C 
ATOM     18  C   UNL     1       3.792   2.896  19.004  0.00  0.00    +0.000 C 
ATOM     19  C   UNL     1       3.367   1.977  17.849  0.00  0.00    +0.000 C 
ATOM     20  C   UNL     1       2.536   3.512  19.648  0.00  0.00    +0.000 C 
ATOM     21  C   UNL     1       2.827   4.766  20.437  0.00  0.00    +0.000 C 
ENDBRANCH  12  15
ENDBRANCH   9  12
BRANCH   1  22
ATOM     22  C   UNL     1       1.616  12.231  18.064  0.00  0.00    +0.000 C 
BRANCH  22  24
ATOM     23  N   UNL     1       3.286  14.034  17.627  0.00  0.00    +0.000 N 
ATOM     24  C   UNL     1       2.657  13.250  18.567  0.00  0.00    +0.000 C 
ATOM     25  O   UNL     1       2.875  13.372  19.773  0.00  0.00    +0.000 OA
ATOM     26  H   UNL     1       3.211  13.768  16.652  0.00  0.00    +0.000 HD
BRANCH  23  27
ATOM     27  C   UNL     1       4.256  15.051  17.998  0.00  0.00    +0.000 C 
BRANCH  27  28
ATOM     28  C   UNL     1       3.643  16.429  18.259  0.00  0.00    +0.000 C 
BRANCH  28  30
ATOM     29  C   UNL     1       1.562  17.641  17.489  0.00  0.00    +0.000 C 
ATOM     30  C   UNL     1       2.844  16.945  17.061  0.00  0.00    +0.000 C 
ENDBRANCH  28  30
ENDBRANCH  27  28
ENDBRANCH  23  27
ENDBRANCH  22  24
ENDBRANCH   1  22
TORSDOF 7
ENDMDL
MODEL 8
REMARK VINA RESULT:      -6.1      9.012     11.929
REMARK  Name = 
REMARK  9 active torsions:
REMARK  status: ('A' for Active; 'I' for Inactive)
REMARK    1  A    between atoms: C_1  and  C_2
REMARK    2  A    between atoms: C_2  and  C_3
REMARK    3  A    between atoms: C_3  and  C_4
REMARK    4  A    between atoms: C_4  and  N_5
REMARK    5  A    between atoms: C_6  and  C_8
REMARK    6  A    between atoms: C_8  and  N_9
REMARK    7  A    between atoms: C_17  and  S_18
REMARK    8  A    between atoms: S_18  and  N_21
REMARK    9  A    between atoms: C_24  and  C_25
REMARK                            x       y       z     vdW  Elec       q    Type
REMARK                         _______ _______ _______ _____ _____    ______ ____
ROOT
ATOM      1  N   UNL     1       6.189  14.951  20.999  0.00  0.00    +0.000 N 
ATOM      2  C   UNL     1       5.389  14.305  21.957  0.00  0.00    +0.000 C 
ATOM      3  O   UNL     1       4.164  14.469  22.011  0.00  0.00    +0.000 OA
ATOM      4  C   UNL     1       6.062  13.315  22.877  0.00  0.00    +0.000 C 
ATOM      5  S   UNL     1       7.446  14.112  23.704  0.00  0.00    +0.000 S 
ATOM      6  C   UNL     1       8.314  14.556  22.210  0.00  0.00    +0.000 A 
ATOM      7  C   UNL     1       9.715  14.513  22.259  0.00  0.00    +0.000 A 
ATOM      8  C   UNL     1      10.474  14.756  21.117  0.00  0.00    +0.000 A 
ATOM      9  C   UNL     1       9.834  15.069  19.916  0.00  0.00    +0.000 A 
ATOM     10  C   UNL     1       8.423  15.143  19.870  0.00  0.00    +0.000 A 
ATOM     11  C   UNL     1       7.634  14.897  21.018  0.00  0.00    +0.000 A 
ENDROOT
BRANCH   9  12
ATOM     12  S   UNL     1      10.807  15.018  18.401  0.00  0.00    +0.000 S 
ATOM     13  O   UNL     1      10.042  15.749  17.412  0.00  0.00    +0.000 OA
ATOM     14  O   UNL     1      12.142  15.449  18.763  0.00  0.00    +0.000 OA
BRANCH  12  15
ATOM     15  N   UNL     1      10.894  13.415  17.886  0.00  0.00    +0.000 NA
ATOM     16  C   UNL     1       9.709  12.686  17.419  0.00  0.00    +0.000 C 
ATOM     17  C   UNL     1       9.058  11.928  18.573  0.00  0.00    +0.000 C 
ATOM     18  C   UNL     1      10.031  11.258  19.574  0.00  0.00    +0.000 C 
ATOM     19  C   UNL     1       9.387  11.149  20.966  0.00  0.00    +0.000 C 
ATOM     20  C   UNL     1      11.416  11.917  19.710  0.00  0.00    +0.000 C 
ATOM     21  C   UNL     1      11.920  12.511  18.417  0.00  0.00    +0.000 C 
ENDBRANCH  12  15
ENDBRANCH   9  12
BRANCH   1  22
ATOM     22  C   UNL     1       5.450  15.694  19.969  0.00  0.00    +0.000 C 
BRANCH  22  24
ATOM     23  N   UNL     1       3.380  14.657  19.035  0.00  0.00    +0.000 N 
ATOM     24  C   UNL     1       4.729  14.880  18.877  0.00  0.00    +0.000 C 
ATOM     25  O   UNL     1       5.345  14.485  17.887  0.00  0.00    +0.000 OA
ATOM     26  H   UNL     1       2.967  14.836  19.943  0.00  0.00    +0.000 HD
BRANCH  23  27
ATOM     27  C   UNL     1       2.598  13.934  18.046  0.00  0.00    +0.000 C 
BRANCH  27  28
ATOM     28  C   UNL     1       2.387  12.456  18.380  0.00  0.00    +0.000 C 
BRANCH  28  30
ATOM     29  C   UNL     1       0.867  10.994  19.775  0.00  0.00    +0.000 C 
ATOM     30  C   UNL     1       0.946  12.155  18.795  0.00  0.00    +0.000 C 
ENDBRANCH  28  30
ENDBRANCH  27  28
ENDBRANCH  23  27
ENDBRANCH  22  24
ENDBRANCH   1  22
TORSDOF 7
ENDMDL
MODEL 9
REMARK VINA RESULT:      -6.1      8.715     11.594
REMARK  Name = 
REMARK  9 active torsions:
REMARK  status: ('A' for Active; 'I' for Inactive)
REMARK    1  A    between atoms: C_1  and  C_2
REMARK    2  A    between atoms: C_2  and  C_3
REMARK    3  A    between atoms: C_3  and  C_4
REMARK    4  A    between atoms: C_4  and  N_5
REMARK    5  A    between atoms: C_6  and  C_8
REMARK    6  A    between atoms: C_8  and  N_9
REMARK    7  A    between atoms: C_17  and  S_18
REMARK    8  A    between atoms: S_18  and  N_21
REMARK    9  A    between atoms: C_24  and  C_25
REMARK                            x       y       z     vdW  Elec       q    Type
REMARK                         _______ _______ _______ _____ _____    ______ ____
ROOT
ATOM      1  N   UNL     1      -0.289  10.603  19.216  0.00  0.00    +0.000 N 
ATOM      2  C   UNL     1       0.670   9.645  18.845  0.00  0.00    +0.000 C 
ATOM      3  O   UNL     1       0.850   9.317  17.666  0.00  0.00    +0.000 OA
ATOM      4  C   UNL     1       1.556   9.085  19.932  0.00  0.00    +0.000 C 
ATOM      5  S   UNL     1       0.534   8.416  21.252  0.00  0.00    +0.000 S 
ATOM      6  C   UNL     1      -0.323   9.941  21.603  0.00  0.00    +0.000 A 
ATOM      7  C   UNL     1      -0.652  10.183  22.945  0.00  0.00    +0.000 A 
ATOM      8  C   UNL     1      -1.240  11.387  23.326  0.00  0.00    +0.000 A 
ATOM      9  C   UNL     1      -1.527  12.352  22.359  0.00  0.00    +0.000 A 
ATOM     10  C   UNL     1      -1.224  12.100  21.001  0.00  0.00    +0.000 A 
ATOM     11  C   UNL     1      -0.624  10.885  20.595  0.00  0.00    +0.000 A 
ENDROOT
BRANCH   9  12
ATOM     12  S   UNL     1      -1.942  14.013  22.920  0.00  0.00    +0.000 S 
ATOM     13  O   UNL     1      -1.121  14.256  24.089  0.00  0.00    +0.000 OA
ATOM     14  O   UNL     1      -1.837  14.871  21.758  0.00  0.00    +0.000 OA
BRANCH  12  15
ATOM     15  N   UNL     1      -3.551  14.010  23.427  0.00  0.00    +0.000 NA
ATOM     16  C   UNL     1      -4.455  12.893  23.128  0.00  0.00    +0.000 C 
ATOM     17  C   UNL     1      -5.215  13.154  21.830  0.00  0.00    +0.000 C 
ATOM     18  C   UNL     1      -5.688  14.612  21.606  0.00  0.00    +0.000 C 
ATOM     19  C   UNL     1      -5.790  14.925  20.105  0.00  0.00    +0.000 C 
ATOM     20  C   UNL     1      -4.848  15.705  22.293  0.00  0.00    +0.000 C 
ATOM     21  C   UNL     1      -4.278  15.268  23.621  0.00  0.00    +0.000 C 
ENDBRANCH  12  15
ENDBRANCH   9  12
BRANCH   1  22
ATOM     22  C   UNL     1      -0.936  11.302  18.098  0.00  0.00    +0.000 C 
BRANCH  22  24
ATOM     23  N   UNL     1      -3.429  11.420  18.153  0.00  0.00    +0.000 N 
ATOM     24  C   UNL     1      -2.317  10.794  17.638  0.00  0.00    +0.000 C 
ATOM     25  O   UNL     1      -2.402   9.887  16.810  0.00  0.00    +0.000 OA
ATOM     26  H   UNL     1      -3.311  12.022  18.959  0.00  0.00    +0.000 HD
BRANCH  23  27
ATOM     27  C   UNL     1      -4.776  11.044  17.757  0.00  0.00    +0.000 C 
BRANCH  27  28
ATOM     28  C   UNL     1      -5.598  12.196  17.174  0.00  0.00    +0.000 C 
BRANCH  28  30
ATOM     29  C   UNL     1      -7.119  11.464  19.056  0.00  0.00    +0.000 C 
ATOM     30  C   UNL     1      -7.006  12.262  17.766  0.00  0.00    +0.000 C 
ENDBRANCH  28  30
ENDBRANCH  27  28
ENDBRANCH  23  27
ENDBRANCH  22  24
ENDBRANCH   1  22
TORSDOF 7
ENDMDL
