MODEL 1
REMARK VINA RESULT:      -7.9      0.000      0.000
REMARK  Name = 
REMARK  7 active torsions:
REMARK  status: ('A' for Active; 'I' for Inactive)
REMARK    1  A    between atoms: C_2  and  C_3
REMARK    2  A    between atoms: C_3  and  O_4
REMARK    3  A    between atoms: O_4  and  C_5
REMARK    4  A    between atoms: C_5  and  C_7
REMARK    5  A    between atoms: N_14  and  C_15
REMARK    6  A    between atoms: C_18  and  N_19
REMARK    7  A    between atoms: C_23  and  C_24
REMARK                            x       y       z     vdW  Elec       q    Type
REMARK                         _______ _______ _______ _____ _____    ______ ____
ROOT
ATOM      1  O   UNL     1       7.863   6.751  18.683  0.00  0.00    +0.000 OA
ATOM      2  C   UNL     1       7.536   7.429  17.714  0.00  0.00    +0.000 C 
ATOM      3  N   UNL     1       6.407   7.226  16.923  0.00  0.00    +0.000 N 
ATOM      4  H   UNL     1       6.381   7.765  16.060  0.00  0.00    +0.000 HD
ENDROOT
BRANCH   3   5
ATOM      5  C   UNL     1       5.371   6.285  17.158  0.00  0.00    +0.000 A 
ATOM      6  C   UNL     1       4.256   6.628  17.939  0.00  0.00    +0.000 A 
ATOM      7  C   UNL     1       3.197   5.742  18.153  0.00  0.00    +0.000 A 
ATOM      8  C   UNL     1       3.224   4.489  17.550  0.00  0.00    +0.000 A 
ATOM      9  C   UNL     1       4.319   4.116  16.761  0.00  0.00    +0.000 A 
ATOM     10  C   UNL     1       5.412   5.001  16.573  0.00  0.00    +0.000 A 
BRANCH  10  11
ATOM     11  C   UNL     1       6.592   4.461  15.802  0.00  0.00    +0.000 C 
ATOM     12  F   UNL     1       7.012   5.265  14.783  0.00  0.00    +0.000 F 
ATOM     13  F   UNL     1       7.681   4.268  16.596  0.00  0.00    +0.000 F 
ATOM     14  F   UNL     1       6.331   3.254  15.229  0.00  0.00    +0.000 F 
ENDBRANCH  10  11
BRANCH   8  15
ATOM     15  N   UNL     1       2.106   3.562  17.753  0.00  0.00    +0.000 N 
ATOM     16  O   UNL     1       2.223   2.407  17.322  0.00  0.00    +0.000 OA
ATOM     17  O   UNL     1       1.108   3.992  18.351  0.00  0.00    +0.000 OA
ENDBRANCH   8  15
ENDBRANCH   3   5
BRANCH   2  18
ATOM     18  C   UNL     1       8.352   8.658  17.336  0.00  0.00    +0.000 C 
BRANCH  18  19
ATOM     19  O   UNL     1       8.015   9.835  18.072  0.00  0.00    +0.000 OA
BRANCH  19  20
ATOM     20  C   UNL     1       9.008  10.278  18.883  0.00  0.00    +0.000 C 
ATOM     21  O   UNL     1       9.382   9.757  19.920  0.00  0.00    +0.000 OA
BRANCH  20  22
ATOM     22  C   UNL     1       9.569  11.539  18.348  0.00  0.00    +0.000 A 
ATOM     23  C   UNL     1       8.788  12.683  18.175  0.00  0.00    +0.000 A 
ATOM     24  C   UNL     1       9.371  13.832  17.639  0.00  0.00    +0.000 A 
ATOM     25  N   UNL     1      10.708  13.867  17.277  0.00  0.00    +0.000 N 
ATOM     26  O   UNL     1      11.216  14.917  16.789  0.00  0.00    +0.000 OA
ATOM     27  C   UNL     1      11.470  12.727  17.461  0.00  0.00    +0.000 A 
ATOM     28  C   UNL     1      10.918  11.560  17.990  0.00  0.00    +0.000 A 
ENDBRANCH  20  22
ENDBRANCH  19  20
ENDBRANCH  18  19
ENDBRANCH   2  18
TORSDOF 7
ENDMDL
MODEL 2
REMARK VINA RESULT:      -7.9      5.270      7.728
REMARK  Name = 
REMARK  7 active torsions:
REMARK  status: ('A' for Active; 'I' for Inactive)
REMARK    1  A    between atoms: C_2  and  C_3
REMARK    2  A    between atoms: C_3  and  O_4
REMARK    3  A    between atoms: O_4  and  C_5
REMARK    4  A    between atoms: C_5  and  C_7
REMARK    5  A    between atoms: N_14  and  C_15
REMARK    6  A    between atoms: C_18  and  N_19
REMARK    7  A    between atoms: C_23  and  C_24
REMARK                            x       y       z     vdW  Elec       q    Type
REMARK                         _______ _______ _______ _____ _____    ______ ____
ROOT
ATOM      1  O   UNL     1       0.746   4.438  20.034  0.00  0.00    +0.000 OA
ATOM      2  C   UNL     1       1.886   4.639  20.438  0.00  0.00    +0.000 C 
ATOM      3  N   UNL     1       2.491   5.885  20.582  0.00  0.00    +0.000 N 
ATOM      4  H   UNL     1       3.493   5.863  20.758  0.00  0.00    +0.000 HD
ENDROOT
BRANCH   3   5
ATOM      5  C   UNL     1       1.869   7.149  20.407  0.00  0.00    +0.000 A 
ATOM      6  C   UNL     1       1.109   7.722  21.439  0.00  0.00    +0.000 A 
ATOM      7  C   UNL     1       0.521   8.984  21.317  0.00  0.00    +0.000 A 
ATOM      8  C   UNL     1       0.717   9.717  20.152  0.00  0.00    +0.000 A 
ATOM      9  C   UNL     1       1.472   9.178  19.104  0.00  0.00    +0.000 A 
ATOM     10  C   UNL     1       2.039   7.881  19.212  0.00  0.00    +0.000 A 
BRANCH  10  11
ATOM     11  C   UNL     1       2.738   7.347  17.986  0.00  0.00    +0.000 C 
ATOM     12  F   UNL     1       4.071   7.109  18.157  0.00  0.00    +0.000 F 
ATOM     13  F   UNL     1       2.202   6.169  17.561  0.00  0.00    +0.000 F 
ATOM     14  F   UNL     1       2.653   8.197  16.926  0.00  0.00    +0.000 F 
ENDBRANCH  10  11
BRANCH   8  15
ATOM     15  N   UNL     1       0.120  11.051  20.025  0.00  0.00    +0.000 N 
ATOM     16  O   UNL     1      -0.722  11.393  20.867  0.00  0.00    +0.000 OA
ATOM     17  O   UNL     1       0.501  11.761  19.082  0.00  0.00    +0.000 OA
ENDBRANCH   8  15
ENDBRANCH   3   5
BRANCH   2  18
ATOM     18  C   UNL     1       2.742   3.470  20.910  0.00  0.00    +0.000 C 
BRANCH  18  19
ATOM     19  O   UNL     1       3.959   3.303  20.181  0.00  0.00    +0.000 OA
BRANCH  19  20
ATOM     20  C   UNL     1       3.777   3.009  18.869  0.00  0.00    +0.000 C 
ATOM     21  O   UNL     1       3.002   2.186  18.414  0.00  0.00    +0.000 OA
BRANCH  20  22
ATOM     22  C   UNL     1       4.702   3.814  18.040  0.00  0.00    +0.000 A 
ATOM     23  C   UNL     1       4.501   3.998  16.671  0.00  0.00    +0.000 A 
ATOM     24  C   UNL     1       5.426   4.744  15.940  0.00  0.00    +0.000 A 
ATOM     25  N   UNL     1       6.539   5.311  16.541  0.00  0.00    +0.000 N 
ATOM     26  O   UNL     1       7.368   5.981  15.860  0.00  0.00    +0.000 OA
ATOM     27  C   UNL     1       6.719   5.125  17.900  0.00  0.00    +0.000 A 
ATOM     28  C   UNL     1       5.817   4.380  18.660  0.00  0.00    +0.000 A 
ENDBRANCH  20  22
ENDBRANCH  19  20
ENDBRANCH  18  19
ENDBRANCH   2  18
TORSDOF 7
ENDMDL
MODEL 3
REMARK VINA RESULT:      -7.9      5.516      8.374
REMARK  Name = 
REMARK  7 active torsions:
REMARK  status: ('A' for Active; 'I' for Inactive)
REMARK    1  A    between atoms: C_2  and  C_3
REMARK    2  A    between atoms: C_3  and  O_4
REMARK    3  A    between atoms: O_4  and  C_5
REMARK    4  A    between atoms: C_5  and  C_7
REMARK    5  A    between atoms: N_14  and  C_15
REMARK    6  A    between atoms: C_18  and  N_19
REMARK    7  A    between atoms: C_23  and  C_24
REMARK                            x       y       z     vdW  Elec       q    Type
REMARK                         _______ _______ _______ _____ _____    ______ ____
ROOT
ATOM      1  O   UNL     1       2.282   8.994  17.274  0.00  0.00    +0.000 OA
ATOM      2  C   UNL     1       2.111   8.370  18.316  0.00  0.00    +0.000 C 
ATOM      3  N   UNL     1       2.671   7.132  18.625  0.00  0.00    +0.000 N 
ATOM      4  H   UNL     1       2.286   6.677  19.450  0.00  0.00    +0.000 HD
ENDROOT
BRANCH   3   5
ATOM      5  C   UNL     1       3.629   6.425  17.853  0.00  0.00    +0.000 A 
ATOM      6  C   UNL     1       4.808   7.055  17.424  0.00  0.00    +0.000 A 
ATOM      7  C   UNL     1       5.794   6.376  16.702  0.00  0.00    +0.000 A 
ATOM      8  C   UNL     1       5.625   5.024  16.424  0.00  0.00    +0.000 A 
ATOM      9  C   UNL     1       4.464   4.364  16.842  0.00  0.00    +0.000 A 
ATOM     10  C   UNL     1       3.445   5.060  17.542  0.00  0.00    +0.000 A 
BRANCH  10  11
ATOM     11  C   UNL     1       2.186   4.287  17.846  0.00  0.00    +0.000 C 
ATOM     12  F   UNL     1       2.190   3.002  17.386  0.00  0.00    +0.000 F 
ATOM     13  F   UNL     1       1.944   4.201  19.184  0.00  0.00    +0.000 F 
ATOM     14  F   UNL     1       1.078   4.863  17.304  0.00  0.00    +0.000 F 
ENDBRANCH  10  11
BRANCH   8  15
ATOM     15  N   UNL     1       6.665   4.301  15.686  0.00  0.00    +0.000 N 
ATOM     16  O   UNL     1       6.329   3.671  14.674  0.00  0.00    +0.000 OA
ATOM     17  O   UNL     1       7.826   4.367  16.119  0.00  0.00    +0.000 OA
ENDBRANCH   8  15
ENDBRANCH   3   5
BRANCH   2  18
ATOM     18  C   UNL     1       1.285   8.981  19.441  0.00  0.00    +0.000 C 
BRANCH  18  19
ATOM     19  O   UNL     1       0.764  10.278  19.148  0.00  0.00    +0.000 OA
BRANCH  19  20
ATOM     20  C   UNL     1      -0.429  10.537  19.742  0.00  0.00    +0.000 C 
ATOM     21  O   UNL     1      -0.639  10.607  20.940  0.00  0.00    +0.000 OA
BRANCH  20  22
ATOM     22  C   UNL     1      -1.481  10.689  18.712  0.00  0.00    +0.000 A 
ATOM     23  C   UNL     1      -2.600  11.500  18.910  0.00  0.00    +0.000 A 
ATOM     24  C   UNL     1      -3.571  11.577  17.911  0.00  0.00    +0.000 A 
ATOM     25  N   UNL     1      -3.450  10.872  16.724  0.00  0.00    +0.000 N 
ATOM     26  O   UNL     1      -4.344  10.953  15.832  0.00  0.00    +0.000 OA
ATOM     27  C   UNL     1      -2.332  10.079  16.541  0.00  0.00    +0.000 A 
ATOM     28  C   UNL     1      -1.344   9.974  17.521  0.00  0.00    +0.000 A 
ENDBRANCH  20  22
ENDBRANCH  19  20
ENDBRANCH  18  19
ENDBRANCH   2  18
TORSDOF 7
ENDMDL
MODEL 4
REMARK VINA RESULT:      -7.8      5.111      7.205
REMARK  Name = 
REMARK  7 active torsions:
REMARK  status: ('A' for Active; 'I' for Inactive)
REMARK    1  A    between atoms: C_2  and  C_3
REMARK    2  A    between atoms: C_3  and  O_4
REMARK    3  A    between atoms: O_4  and  C_5
REMARK    4  A    between atoms: C_5  and  C_7
REMARK    5  A    between atoms: N_14  and  C_15
REMARK    6  A    between atoms: C_18  and  N_19
REMARK    7  A    between atoms: C_23  and  C_24
REMARK                            x       y       z     vdW  Elec       q    Type
REMARK                         _______ _______ _______ _____ _____    ______ ____
ROOT
ATOM      1  O   UNL     1       3.045   3.518  16.988  0.00  0.00    +0.000 OA
ATOM      2  C   UNL     1       3.847   3.532  17.916  0.00  0.00    +0.000 C 
ATOM      3  N   UNL     1       5.219   3.744  17.803  0.00  0.00    +0.000 N 
ATOM      4  H   UNL     1       5.758   3.547  18.643  0.00  0.00    +0.000 HD
ENDROOT
BRANCH   3   5
ATOM      5  C   UNL     1       5.922   4.100  16.622  0.00  0.00    +0.000 A 
ATOM      6  C   UNL     1       5.671   3.435  15.411  0.00  0.00    +0.000 A 
ATOM      7  C   UNL     1       6.311   3.791  14.221  0.00  0.00    +0.000 A 
ATOM      8  C   UNL     1       7.204   4.857  14.219  0.00  0.00    +0.000 A 
ATOM      9  C   UNL     1       7.474   5.545  15.408  0.00  0.00    +0.000 A 
ATOM     10  C   UNL     1       6.852   5.162  16.625  0.00  0.00    +0.000 A 
BRANCH  10  11
ATOM     11  C   UNL     1       7.297   5.892  17.869  0.00  0.00    +0.000 C 
ATOM     12  F   UNL     1       6.276   6.301  18.676  0.00  0.00    +0.000 F 
ATOM     13  F   UNL     1       8.107   5.127  18.652  0.00  0.00    +0.000 F 
ATOM     14  F   UNL     1       8.010   7.017  17.585  0.00  0.00    +0.000 F 
ENDBRANCH  10  11
BRANCH   8  15
ATOM     15  N   UNL     1       7.863   5.249  12.970  0.00  0.00    +0.000 N 
ATOM     16  O   UNL     1       7.456   4.744  11.915  0.00  0.00    +0.000 OA
ATOM     17  O   UNL     1       8.790   6.070  13.045  0.00  0.00    +0.000 OA
ENDBRANCH   8  15
ENDBRANCH   3   5
BRANCH   2  18
ATOM     18  C   UNL     1       3.353   3.385  19.349  0.00  0.00    +0.000 C 
BRANCH  18  19
ATOM     19  O   UNL     1       3.367   4.599  20.102  0.00  0.00    +0.000 OA
BRANCH  19  20
ATOM     20  C   UNL     1       2.132   5.101  20.356  0.00  0.00    +0.000 C 
ATOM     21  O   UNL     1       1.208   4.512  20.890  0.00  0.00    +0.000 OA
BRANCH  20  22
ATOM     22  C   UNL     1       2.039   6.488  19.849  0.00  0.00    +0.000 A 
ATOM     23  C   UNL     1       1.482   7.520  20.608  0.00  0.00    +0.000 A 
ATOM     24  C   UNL     1       1.397   8.800  20.060  0.00  0.00    +0.000 A 
ATOM     25  N   UNL     1       1.855   9.075  18.782  0.00  0.00    +0.000 N 
ATOM     26  O   UNL     1       1.766  10.242  18.302  0.00  0.00    +0.000 OA
ATOM     27  C   UNL     1       2.411   8.044  18.046  0.00  0.00    +0.000 A 
ATOM     28  C   UNL     1       2.507   6.750  18.560  0.00  0.00    +0.000 A 
ENDBRANCH  20  22
ENDBRANCH  19  20
ENDBRANCH  18  19
ENDBRANCH   2  18
TORSDOF 7
ENDMDL
MODEL 5
REMARK VINA RESULT:      -7.7      5.411      8.213
REMARK  Name = 
REMARK  7 active torsions:
REMARK  status: ('A' for Active; 'I' for Inactive)
REMARK    1  A    between atoms: C_2  and  C_3
REMARK    2  A    between atoms: C_3  and  O_4
REMARK    3  A    between atoms: O_4  and  C_5
REMARK    4  A    between atoms: C_5  and  C_7
REMARK    5  A    between atoms: N_14  and  C_15
REMARK    6  A    between atoms: C_18  and  N_19
REMARK    7  A    between atoms: C_23  and  C_24
REMARK                            x       y       z     vdW  Elec       q    Type
REMARK                         _______ _______ _______ _____ _____    ______ ____
ROOT
ATOM      1  O   UNL     1       0.849   5.143  20.641  0.00  0.00    +0.000 OA
ATOM      2  C   UNL     1       1.974   5.500  20.310  0.00  0.00    +0.000 C 
ATOM      3  N   UNL     1       2.408   6.819  20.191  0.00  0.00    +0.000 N 
ATOM      4  H   UNL     1       3.310   6.938  19.736  0.00  0.00    +0.000 HD
ENDROOT
BRANCH   3   5
ATOM      5  C   UNL     1       1.675   7.981  20.546  0.00  0.00    +0.000 A 
ATOM      6  C   UNL     1       1.214   8.164  21.860  0.00  0.00    +0.000 A 
ATOM      7  C   UNL     1       0.531   9.317  22.254  0.00  0.00    +0.000 A 
ATOM      8  C   UNL     1       0.323  10.336  21.331  0.00  0.00    +0.000 A 
ATOM      9  C   UNL     1       0.773  10.188  20.014  0.00  0.00    +0.000 A 
ATOM     10  C   UNL     1       1.435   9.003  19.602  0.00  0.00    +0.000 A 
BRANCH  10  11
ATOM     11  C   UNL     1       1.777   8.896  18.136  0.00  0.00    +0.000 C 
ATOM     12  F   UNL     1       1.336   7.751  17.538  0.00  0.00    +0.000 F 
ATOM     13  F   UNL     1       1.252   9.921  17.409  0.00  0.00    +0.000 F 
ATOM     14  F   UNL     1       3.119   8.930  17.911  0.00  0.00    +0.000 F 
ENDBRANCH  10  11
BRANCH   8  15
ATOM     15  N   UNL     1      -0.375  11.557  21.744  0.00  0.00    +0.000 N 
ATOM     16  O   UNL     1       0.283  12.603  21.830  0.00  0.00    +0.000 OA
ATOM     17  O   UNL     1      -1.591  11.470  21.978  0.00  0.00    +0.000 OA
ENDBRANCH   8  15
ENDBRANCH   3   5
BRANCH   2  18
ATOM     18  C   UNL     1       3.060   4.460  20.063  0.00  0.00    +0.000 C 
BRANCH  18  19
ATOM     19  O   UNL     1       2.760   3.537  19.015  0.00  0.00    +0.000 OA
BRANCH  19  20
ATOM     20  C   UNL     1       2.550   4.125  17.810  0.00  0.00    +0.000 C 
ATOM     21  O   UNL     1       1.476   4.262  17.250  0.00  0.00    +0.000 OA
BRANCH  20  22
ATOM     22  C   UNL     1       3.841   4.554  17.227  0.00  0.00    +0.000 A 
ATOM     23  C   UNL     1       4.777   3.638  16.743  0.00  0.00    +0.000 A 
ATOM     24  C   UNL     1       5.988   4.106  16.232  0.00  0.00    +0.000 A 
ATOM     25  N   UNL     1       6.284   5.459  16.190  0.00  0.00    +0.000 N 
ATOM     26  O   UNL     1       7.390   5.863  15.727  0.00  0.00    +0.000 OA
ATOM     27  C   UNL     1       5.343   6.354  16.667  0.00  0.00    +0.000 A 
ATOM     28  C   UNL     1       4.124   5.920  17.189  0.00  0.00    +0.000 A 
ENDBRANCH  20  22
ENDBRANCH  19  20
ENDBRANCH  18  19
ENDBRANCH   2  18
TORSDOF 7
ENDMDL
MODEL 6
REMARK VINA RESULT:      -7.6      5.628      7.881
REMARK  Name = 
REMARK  7 active torsions:
REMARK  status: ('A' for Active; 'I' for Inactive)
REMARK    1  A    between atoms: C_2  and  C_3
REMARK    2  A    between atoms: C_3  and  O_4
REMARK    3  A    between atoms: O_4  and  C_5
REMARK    4  A    between atoms: C_5  and  C_7
REMARK    5  A    between atoms: N_14  and  C_15
REMARK    6  A    between atoms: C_18  and  N_19
REMARK    7  A    between atoms: C_23  and  C_24
REMARK                            x       y       z     vdW  Elec       q    Type
REMARK                         _______ _______ _______ _____ _____    ______ ____
ROOT
ATOM      1  O   UNL     1       1.945   8.261  18.056  0.00  0.00    +0.000 OA
ATOM      2  C   UNL     1       2.236   7.577  19.032  0.00  0.00    +0.000 C 
ATOM      3  N   UNL     1       3.108   6.489  19.032  0.00  0.00    +0.000 N 
ATOM      4  H   UNL     1       3.099   5.928  19.881  0.00  0.00    +0.000 HD
ENDROOT
BRANCH   3   5
ATOM      5  C   UNL     1       3.907   6.050  17.945  0.00  0.00    +0.000 A 
ATOM      6  C   UNL     1       4.986   6.825  17.491  0.00  0.00    +0.000 A 
ATOM      7  C   UNL     1       5.821   6.401  16.453  0.00  0.00    +0.000 A 
ATOM      8  C   UNL     1       5.604   5.158  15.867  0.00  0.00    +0.000 A 
ATOM      9  C   UNL     1       4.539   4.358  16.299  0.00  0.00    +0.000 A 
ATOM     10  C   UNL     1       3.668   4.803  17.327  0.00  0.00    +0.000 A 
BRANCH  10  11
ATOM     11  C   UNL     1       2.486   3.918  17.639  0.00  0.00    +0.000 C 
ATOM     12  F   UNL     1       2.427   3.496  18.935  0.00  0.00    +0.000 F 
ATOM     13  F   UNL     1       1.299   4.541  17.397  0.00  0.00    +0.000 F 
ATOM     14  F   UNL     1       2.471   2.785  16.886  0.00  0.00    +0.000 F 
ENDBRANCH  10  11
BRANCH   8  15
ATOM     15  N   UNL     1       6.489   4.698  14.793  0.00  0.00    +0.000 N 
ATOM     16  O   UNL     1       6.077   3.802  14.044  0.00  0.00    +0.000 OA
ATOM     17  O   UNL     1       7.601   5.242  14.696  0.00  0.00    +0.000 OA
ENDBRANCH   8  15
ENDBRANCH   3   5
BRANCH   2  18
ATOM     18  C   UNL     1       1.689   7.940  20.406  0.00  0.00    +0.000 C 
BRANCH  18  19
ATOM     19  O   UNL     1       0.884   9.119  20.423  0.00  0.00    +0.000 OA
BRANCH  19  20
ATOM     20  C   UNL     1      -0.095   9.102  21.363  0.00  0.00    +0.000 C 
ATOM     21  O   UNL     1      -0.684   8.117  21.775  0.00  0.00    +0.000 OA
BRANCH  20  22
ATOM     22  C   UNL     1      -0.391  10.482  21.807  0.00  0.00    +0.000 A 
ATOM     23  C   UNL     1      -1.152  10.747  22.947  0.00  0.00    +0.000 A 
ATOM     24  C   UNL     1      -1.420  12.072  23.295  0.00  0.00    +0.000 A 
ATOM     25  N   UNL     1      -0.944  13.132  22.540  0.00  0.00    +0.000 N 
ATOM     26  O   UNL     1      -1.200  14.325  22.871  0.00  0.00    +0.000 OA
ATOM     27  C   UNL     1      -0.184  12.852  21.418  0.00  0.00    +0.000 A 
ATOM     28  C   UNL     1       0.098  11.539  21.038  0.00  0.00    +0.000 A 
ENDBRANCH  20  22
ENDBRANCH  19  20
ENDBRANCH  18  19
ENDBRANCH   2  18
TORSDOF 7
ENDMDL
MODEL 7
REMARK VINA RESULT:      -7.6      5.619      8.054
REMARK  Name = 
REMARK  7 active torsions:
REMARK  status: ('A' for Active; 'I' for Inactive)
REMARK    1  A    between atoms: C_2  and  C_3
REMARK    2  A    between atoms: C_3  and  O_4
REMARK    3  A    between atoms: O_4  and  C_5
REMARK    4  A    between atoms: C_5  and  C_7
REMARK    5  A    between atoms: N_14  and  C_15
REMARK    6  A    between atoms: C_18  and  N_19
REMARK    7  A    between atoms: C_23  and  C_24
REMARK                            x       y       z     vdW  Elec       q    Type
REMARK                         _______ _______ _______ _____ _____    ______ ____
ROOT
ATOM      1  O   UNL     1       2.173   8.238  18.560  0.00  0.00    +0.000 OA
ATOM      2  C   UNL     1       2.260   7.368  19.420  0.00  0.00    +0.000 C 
ATOM      3  N   UNL     1       2.938   6.158  19.289  0.00  0.00    +0.000 N 
ATOM      4  H   UNL     1       2.762   5.481  20.027  0.00  0.00    +0.000 HD
ENDROOT
BRANCH   3   5
ATOM      5  C   UNL     1       3.748   5.762  18.193  0.00  0.00    +0.000 A 
ATOM      6  C   UNL     1       4.827   6.558  17.775  0.00  0.00    +0.000 A 
ATOM      7  C   UNL     1       5.673   6.175  16.730  0.00  0.00    +0.000 A 
ATOM      8  C   UNL     1       5.466   4.953  16.099  0.00  0.00    +0.000 A 
ATOM      9  C   UNL     1       4.403   4.133  16.494  0.00  0.00    +0.000 A 
ATOM     10  C   UNL     1       3.522   4.536  17.530  0.00  0.00    +0.000 A 
BRANCH  10  11
ATOM     11  C   UNL     1       2.342   3.635  17.801  0.00  0.00    +0.000 C 
ATOM     12  F   UNL     1       1.127   4.219  17.585  0.00  0.00    +0.000 F 
ATOM     13  F   UNL     1       2.359   2.517  17.023  0.00  0.00    +0.000 F 
ATOM     14  F   UNL     1       2.310   3.192  19.088  0.00  0.00    +0.000 F 
ENDBRANCH  10  11
BRANCH   8  15
ATOM     15  N   UNL     1       6.363   4.537  15.016  0.00  0.00    +0.000 N 
ATOM     16  O   UNL     1       7.568   4.802  15.124  0.00  0.00    +0.000 OA
ATOM     17  O   UNL     1       5.858   3.936  14.055  0.00  0.00    +0.000 OA
ENDBRANCH   8  15
ENDBRANCH   3   5
BRANCH   2  18
ATOM     18  C   UNL     1       1.659   7.601  20.800  0.00  0.00    +0.000 C 
BRANCH  18  19
ATOM     19  O   UNL     1       0.718   8.674  20.856  0.00  0.00    +0.000 OA
BRANCH  19  20
ATOM     20  C   UNL     1       0.884   9.494  21.925  0.00  0.00    +0.000 C 
ATOM     21  O   UNL     1       1.768   9.421  22.761  0.00  0.00    +0.000 OA
BRANCH  20  22
ATOM     22  C   UNL     1      -0.205  10.495  21.964  0.00  0.00    +0.000 A 
ATOM     23  C   UNL     1      -1.007  10.674  23.093  0.00  0.00    +0.000 A 
ATOM     24  C   UNL     1      -2.036  11.615  23.056  0.00  0.00    +0.000 A 
ATOM     25  N   UNL     1      -2.280  12.381  21.927  0.00  0.00    +0.000 N 
ATOM     26  O   UNL     1      -3.221  13.227  21.913  0.00  0.00    +0.000 OA
ATOM     27  C   UNL     1      -1.471  12.197  20.820  0.00  0.00    +0.000 A 
ATOM     28  C   UNL     1      -0.436  11.261  20.820  0.00  0.00    +0.000 A 
ENDBRANCH  20  22
ENDBRANCH  19  20
ENDBRANCH  18  19
ENDBRANCH   2  18
TORSDOF 7
ENDMDL
MODEL 8
REMARK VINA RESULT:      -7.6      5.641      8.115
REMARK  Name = 
REMARK  7 active torsions:
REMARK  status: ('A' for Active; 'I' for Inactive)
REMARK    1  A    between atoms: C_2  and  C_3
REMARK    2  A    between atoms: C_3  and  O_4
REMARK    3  A    between atoms: O_4  and  C_5
REMARK    4  A    between atoms: C_5  and  C_7
REMARK    5  A    between atoms: N_14  and  C_15
REMARK    6  A    between atoms: C_18  and  N_19
REMARK    7  A    between atoms: C_23  and  C_24
REMARK                            x       y       z     vdW  Elec       q    Type
REMARK                         _______ _______ _______ _____ _____    ______ ____
ROOT
ATOM      1  O   UNL     1       2.078   8.259  18.439  0.00  0.00    +0.000 OA
ATOM      2  C   UNL     1       2.247   7.431  19.327  0.00  0.00    +0.000 C 
ATOM      3  N   UNL     1       2.981   6.252  19.212  0.00  0.00    +0.000 N 
ATOM      4  H   UNL     1       2.872   5.597  19.983  0.00  0.00    +0.000 HD
ENDROOT
BRANCH   3   5
ATOM      5  C   UNL     1       3.763   5.852  18.097  0.00  0.00    +0.000 A 
ATOM      6  C   UNL     1       4.805   6.667  17.625  0.00  0.00    +0.000 A 
ATOM      7  C   UNL     1       5.624   6.283  16.559  0.00  0.00    +0.000 A 
ATOM      8  C   UNL     1       5.428   5.042  15.961  0.00  0.00    +0.000 A 
ATOM      9  C   UNL     1       4.401   4.204  16.410  0.00  0.00    +0.000 A 
ATOM     10  C   UNL     1       3.545   4.607  17.468  0.00  0.00    +0.000 A 
BRANCH  10  11
ATOM     11  C   UNL     1       2.399   3.683  17.798  0.00  0.00    +0.000 C 
ATOM     12  F   UNL     1       2.398   3.227  19.085  0.00  0.00    +0.000 F 
ATOM     13  F   UNL     1       1.188   4.277  17.614  0.00  0.00    +0.000 F 
ATOM     14  F   UNL     1       2.389   2.567  17.018  0.00  0.00    +0.000 F 
ENDBRANCH  10  11
BRANCH   8  15
ATOM     15  N   UNL     1       6.297   4.625  14.857  0.00  0.00    +0.000 N 
ATOM     16  O   UNL     1       5.768   4.098  13.868  0.00  0.00    +0.000 OA
ATOM     17  O   UNL     1       7.515   4.831  14.977  0.00  0.00    +0.000 OA
ENDBRANCH   8  15
ENDBRANCH   3   5
BRANCH   2  18
ATOM     18  C   UNL     1       1.694   7.689  20.723  0.00  0.00    +0.000 C 
BRANCH  18  19
ATOM     19  O   UNL     1       0.688   8.700  20.777  0.00  0.00    +0.000 OA
BRANCH  19  20
ATOM     20  C   UNL     1       0.804   9.533  21.842  0.00  0.00    +0.000 C 
ATOM     21  O   UNL     1       1.671   9.496  22.698  0.00  0.00    +0.000 OA
BRANCH  20  22
ATOM     22  C   UNL     1      -0.319  10.497  21.852  0.00  0.00    +0.000 A 
ATOM     23  C   UNL     1      -0.725  11.174  20.700  0.00  0.00    +0.000 A 
ATOM     24  C   UNL     1      -1.772  12.092  20.782  0.00  0.00    +0.000 A 
ATOM     25  N   UNL     1      -2.423  12.347  21.978  0.00  0.00    +0.000 N 
ATOM     26  O   UNL     1      -3.368  13.186  22.032  0.00  0.00    +0.000 OA
ATOM     27  C   UNL     1      -2.014  11.663  23.109  0.00  0.00    +0.000 A 
ATOM     28  C   UNL     1      -0.967  10.741  23.064  0.00  0.00    +0.000 A 
ENDBRANCH  20  22
ENDBRANCH  19  20
ENDBRANCH  18  19
ENDBRANCH   2  18
TORSDOF 7
ENDMDL
MODEL 9
REMARK VINA RESULT:      -7.6      5.558      7.937
REMARK  Name = 
REMARK  7 active torsions:
REMARK  status: ('A' for Active; 'I' for Inactive)
REMARK    1  A    between atoms: C_2  and  C_3
REMARK    2  A    between atoms: C_3  and  O_4
REMARK    3  A    between atoms: O_4  and  C_5
REMARK    4  A    between atoms: C_5  and  C_7
REMARK    5  A    between atoms: N_14  and  C_15
REMARK    6  A    between atoms: C_18  and  N_19
REMARK    7  A    between atoms: C_23  and  C_24
REMARK                            x       y       z     vdW  Elec       q    Type
REMARK                         _______ _______ _______ _____ _____    ______ ____
ROOT
ATOM      1  O   UNL     1       0.867   4.923  20.599  0.00  0.00    +0.000 OA
ATOM      2  C   UNL     1       2.018   5.273  20.359  0.00  0.00    +0.000 C 
ATOM      3  N   UNL     1       2.458   6.588  20.222  0.00  0.00    +0.000 N 
ATOM      4  H   UNL     1       3.399   6.693  19.850  0.00  0.00    +0.000 HD
ENDROOT
BRANCH   3   5
ATOM      5  C   UNL     1       1.692   7.760  20.453  0.00  0.00    +0.000 A 
ATOM      6  C   UNL     1       1.104   7.996  21.707  0.00  0.00    +0.000 A 
ATOM      7  C   UNL     1       0.383   9.161  21.982  0.00  0.00    +0.000 A 
ATOM      8  C   UNL     1       0.265  10.138  21.000  0.00  0.00    +0.000 A 
ATOM      9  C   UNL     1       0.843   9.937  19.740  0.00  0.00    +0.000 A 
ATOM     10  C   UNL     1       1.544   8.739  19.447  0.00  0.00    +0.000 A 
BRANCH  10  11
ATOM     11  C   UNL     1       2.028   8.572  18.028  0.00  0.00    +0.000 C 
ATOM     12  F   UNL     1       1.504   7.491  17.379  0.00  0.00    +0.000 F 
ATOM     13  F   UNL     1       1.731   9.650  17.251  0.00  0.00    +0.000 F 
ATOM     14  F   UNL     1       3.379   8.421  17.953  0.00  0.00    +0.000 F 
ENDBRANCH  10  11
BRANCH   8  15
ATOM     15  N   UNL     1      -0.472  11.372  21.289  0.00  0.00    +0.000 N 
ATOM     16  O   UNL     1      -1.394  11.691  20.526  0.00  0.00    +0.000 OA
ATOM     17  O   UNL     1      -0.129  12.022  22.289  0.00  0.00    +0.000 OA
ENDBRANCH   8  15
ENDBRANCH   3   5
BRANCH   2  18
ATOM     18  C   UNL     1       3.124   4.230  20.263  0.00  0.00    +0.000 C 
BRANCH  18  19
ATOM     19  O   UNL     1       4.141   4.541  19.309  0.00  0.00    +0.000 OA
BRANCH  19  20
ATOM     20  C   UNL     1       4.080   3.791  18.180  0.00  0.00    +0.000 C 
ATOM     21  O   UNL     1       3.310   2.871  17.963  0.00  0.00    +0.000 OA
BRANCH  20  22
ATOM     22  C   UNL     1       5.131   4.224  17.232  0.00  0.00    +0.000 A 
ATOM     23  C   UNL     1       6.313   4.830  17.661  0.00  0.00    +0.000 A 
ATOM     24  C   UNL     1       7.252   5.242  16.714  0.00  0.00    +0.000 A 
ATOM     25  N   UNL     1       7.041   5.060  15.357  0.00  0.00    +0.000 N 
ATOM     26  O   UNL     1       7.903   5.443  14.514  0.00  0.00    +0.000 OA
ATOM     27  C   UNL     1       5.868   4.451  14.948  0.00  0.00    +0.000 A 
ATOM     28  C   UNL     1       4.906   4.032  15.867  0.00  0.00    +0.000 A 
ENDBRANCH  20  22
ENDBRANCH  19  20
ENDBRANCH  18  19
ENDBRANCH   2  18
TORSDOF 7
ENDMDL
