MODEL 1
REMARK VINA RESULT:      -6.9      0.000      0.000
REMARK  Name = 
REMARK  1 active torsions:
REMARK  status: ('A' for Active; 'I' for Inactive)
REMARK    1  A    between atoms: C_1  and  N_2
REMARK                            x       y       z     vdW  Elec       q    Type
REMARK                         _______ _______ _______ _____ _____    ______ ____
ROOT
ATOM      1  C   UNL     1       7.368   5.508  19.836  0.00  0.00    +0.000 C 
ATOM      2  N   UNL     1       6.533   5.406  18.626  0.00  0.00    +0.000 N 
ATOM      3  C   UNL     1       7.182   4.677  17.619  0.00  0.00    +0.000 C 
ATOM      4  O   UNL     1       8.338   4.255  17.717  0.00  0.00    +0.000 OA
ATOM      5  C   UNL     1       6.579   4.438  16.308  0.00  0.00    +0.000 A 
ATOM      6  C   UNL     1       7.330   4.831  15.184  0.00  0.00    +0.000 A 
ATOM      7  C   UNL     1       6.810   4.708  13.901  0.00  0.00    +0.000 A 
ATOM      8  C   UNL     1       5.546   4.168  13.734  0.00  0.00    +0.000 A 
ATOM      9  C   UNL     1       4.861   3.654  14.843  0.00  0.00    +0.000 A 
ATOM     10  C   UNL     1       5.395   3.735  16.137  0.00  0.00    +0.000 A 
ATOM     11  C   UNL     1       4.734   3.007  17.278  0.00  0.00    +0.000 C 
ATOM     12  N   UNL     1       3.813   3.747  18.144  0.00  0.00    +0.000 NA
ATOM     13  C   UNL     1       4.461   4.265  19.367  0.00  0.00    +0.000 C 
ATOM     14  C   UNL     1       5.077   5.605  18.950  0.00  0.00    +0.000 C 
ATOM     15  C   UNL     1       3.924   6.112  18.070  0.00  0.00    +0.000 C 
ATOM     16  C   UNL     1       2.923   6.960  18.895  0.00  0.00    +0.000 C 
ATOM     17  C   UNL     1       3.531   7.537  17.672  0.00  0.00    +0.000 C 
ATOM     18  C   UNL     1       3.209   4.906  17.477  0.00  0.00    +0.000 C 
ENDROOT
TORSDOF 0
ENDMDL
MODEL 2
REMARK VINA RESULT:      -6.6      2.122      3.339
REMARK  Name = 
REMARK  1 active torsions:
REMARK  status: ('A' for Active; 'I' for Inactive)
REMARK    1  A    between atoms: C_1  and  N_2
REMARK                            x       y       z     vdW  Elec       q    Type
REMARK                         _______ _______ _______ _____ _____    ______ ____
ROOT
ATOM      1  C   UNL     1       2.112   7.085  18.803  0.00  0.00    +0.000 C 
ATOM      2  N   UNL     1       2.980   6.050  18.215  0.00  0.00    +0.000 N 
ATOM      3  C   UNL     1       4.026   6.623  17.476  0.00  0.00    +0.000 C 
ATOM      4  O   UNL     1       4.141   7.836  17.281  0.00  0.00    +0.000 OA
ATOM      5  C   UNL     1       5.025   5.818  16.775  0.00  0.00    +0.000 A 
ATOM      6  C   UNL     1       5.191   6.069  15.400  0.00  0.00    +0.000 A 
ATOM      7  C   UNL     1       6.067   5.307  14.636  0.00  0.00    +0.000 A 
ATOM      8  C   UNL     1       6.800   4.305  15.248  0.00  0.00    +0.000 A 
ATOM      9  C   UNL     1       6.733   4.150  16.640  0.00  0.00    +0.000 A 
ATOM     10  C   UNL     1       5.883   4.942  17.426  0.00  0.00    +0.000 A 
ATOM     11  C   UNL     1       5.971   4.890  18.929  0.00  0.00    +0.000 C 
ATOM     12  N   UNL     1       5.035   4.032  19.658  0.00  0.00    +0.000 NA
ATOM     13  C   UNL     1       3.845   4.760  20.146  0.00  0.00    +0.000 C 
ATOM     14  C   UNL     1       2.867   4.752  18.967  0.00  0.00    +0.000 C 
ATOM     15  C   UNL     1       3.102   3.308  18.496  0.00  0.00    +0.000 C 
ATOM     16  C   UNL     1       2.110   2.331  19.176  0.00  0.00    +0.000 C 
ATOM     17  C   UNL     1       2.200   2.365  17.697  0.00  0.00    +0.000 C 
ATOM     18  C   UNL     1       4.531   2.918  18.847  0.00  0.00    +0.000 C 
ENDROOT
TORSDOF 0
ENDMDL
MODEL 3
REMARK VINA RESULT:      -6.5      2.415      4.498
REMARK  Name = 
REMARK  1 active torsions:
REMARK  status: ('A' for Active; 'I' for Inactive)
REMARK    1  A    between atoms: C_1  and  N_2
REMARK                            x       y       z     vdW  Elec       q    Type
REMARK                         _______ _______ _______ _____ _____    ______ ____
ROOT
ATOM      1  C   UNL     1       3.192   8.012  17.774  0.00  0.00    +0.000 C 
ATOM      2  N   UNL     1       3.734   6.657  17.978  0.00  0.00    +0.000 N 
ATOM      3  C   UNL     1       2.715   5.694  17.973  0.00  0.00    +0.000 C 
ATOM      4  O   UNL     1       1.514   5.969  17.892  0.00  0.00    +0.000 OA
ATOM      5  C   UNL     1       2.979   4.269  18.168  0.00  0.00    +0.000 A 
ATOM      6  C   UNL     1       2.269   3.629  19.203  0.00  0.00    +0.000 A 
ATOM      7  C   UNL     1       2.505   2.294  19.509  0.00  0.00    +0.000 A 
ATOM      8  C   UNL     1       3.434   1.585  18.767  0.00  0.00    +0.000 A 
ATOM      9  C   UNL     1       4.035   2.187  17.653  0.00  0.00    +0.000 A 
ATOM     10  C   UNL     1       3.773   3.521  17.310  0.00  0.00    +0.000 A 
ATOM     11  C   UNL     1       4.277   4.083  16.006  0.00  0.00    +0.000 C 
ATOM     12  N   UNL     1       5.527   4.846  16.007  0.00  0.00    +0.000 NA
ATOM     13  C   UNL     1       5.314   6.305  16.100  0.00  0.00    +0.000 C 
ATOM     14  C   UNL     1       5.190   6.590  17.601  0.00  0.00    +0.000 C 
ATOM     15  C   UNL     1       6.301   5.651  18.096  0.00  0.00    +0.000 C 
ATOM     16  C   UNL     1       7.659   6.393  18.184  0.00  0.00    +0.000 C 
ATOM     17  C   UNL     1       7.134   5.689  19.379  0.00  0.00    +0.000 C 
ATOM     18  C   UNL     1       6.414   4.488  17.120  0.00  0.00    +0.000 C 
ENDROOT
TORSDOF 0
ENDMDL
MODEL 4
REMARK VINA RESULT:      -6.5      2.711      4.429
REMARK  Name = 
REMARK  1 active torsions:
REMARK  status: ('A' for Active; 'I' for Inactive)
REMARK    1  A    between atoms: C_1  and  N_2
REMARK                            x       y       z     vdW  Elec       q    Type
REMARK                         _______ _______ _______ _____ _____    ______ ____
ROOT
ATOM      1  C   UNL     1       4.210   1.061  18.257  0.00  0.00    +0.000 C 
ATOM      2  N   UNL     1       3.695   2.397  18.602  0.00  0.00    +0.000 N 
ATOM      3  C   UNL     1       4.062   3.348  17.637  0.00  0.00    +0.000 C 
ATOM      4  O   UNL     1       4.793   3.099  16.674  0.00  0.00    +0.000 OA
ATOM      5  C   UNL     1       3.690   4.759  17.743  0.00  0.00    +0.000 A 
ATOM      6  C   UNL     1       4.739   5.696  17.682  0.00  0.00    +0.000 A 
ATOM      7  C   UNL     1       4.492   7.054  17.844  0.00  0.00    +0.000 A 
ATOM      8  C   UNL     1       3.191   7.484  18.043  0.00  0.00    +0.000 A 
ATOM      9  C   UNL     1       2.137   6.562  17.966  0.00  0.00    +0.000 A 
ATOM     10  C   UNL     1       2.373   5.196  17.761  0.00  0.00    +0.000 A 
ATOM     11  C   UNL     1       1.224   4.259  17.489  0.00  0.00    +0.000 C 
ATOM     12  N   UNL     1       0.665   3.492  18.604  0.00  0.00    +0.000 NA
ATOM     13  C   UNL     1       1.233   2.132  18.712  0.00  0.00    +0.000 C 
ATOM     14  C   UNL     1       2.516   2.305  19.532  0.00  0.00    +0.000 C 
ATOM     15  C   UNL     1       1.984   3.313  20.564  0.00  0.00    +0.000 C 
ATOM     16  C   UNL     1       1.421   2.587  21.812  0.00  0.00    +0.000 C 
ATOM     17  C   UNL     1       2.463   3.628  21.982  0.00  0.00    +0.000 C 
ATOM     18  C   UNL     1       0.884   4.133  19.906  0.00  0.00    +0.000 C 
ENDROOT
TORSDOF 0
ENDMDL
MODEL 5
REMARK VINA RESULT:      -6.4      1.736      4.086
REMARK  Name = 
REMARK  1 active torsions:
REMARK  status: ('A' for Active; 'I' for Inactive)
REMARK    1  A    between atoms: C_1  and  N_2
REMARK                            x       y       z     vdW  Elec       q    Type
REMARK                         _______ _______ _______ _____ _____    ______ ____
ROOT
ATOM      1  C   UNL     1       8.155   5.124  18.803  0.00  0.00    +0.000 C 
ATOM      2  N   UNL     1       6.887   4.811  18.121  0.00  0.00    +0.000 N 
ATOM      3  C   UNL     1       5.863   4.548  19.045  0.00  0.00    +0.000 C 
ATOM      4  O   UNL     1       6.039   4.505  20.266  0.00  0.00    +0.000 OA
ATOM      5  C   UNL     1       4.505   4.196  18.634  0.00  0.00    +0.000 A 
ATOM      6  C   UNL     1       3.976   2.999  19.152  0.00  0.00    +0.000 A 
ATOM      7  C   UNL     1       2.721   2.547  18.764  0.00  0.00    +0.000 A 
ATOM      8  C   UNL     1       1.977   3.302  17.874  0.00  0.00    +0.000 A 
ATOM      9  C   UNL     1       2.450   4.559  17.468  0.00  0.00    +0.000 A 
ATOM     10  C   UNL     1       3.697   5.042  17.887  0.00  0.00    +0.000 A 
ATOM     11  C   UNL     1       4.095   6.466  17.598  0.00  0.00    +0.000 C 
ATOM     12  N   UNL     1       4.936   6.737  16.429  0.00  0.00    +0.000 NA
ATOM     13  C   UNL     1       6.374   6.817  16.758  0.00  0.00    +0.000 C 
ATOM     14  C   UNL     1       6.867   5.366  16.723  0.00  0.00    +0.000 C 
ATOM     15  C   UNL     1       6.092   4.900  15.481  0.00  0.00    +0.000 C 
ATOM     16  C   UNL     1       6.932   5.096  14.193  0.00  0.00    +0.000 C 
ATOM     17  C   UNL     1       6.376   3.757  14.503  0.00  0.00    +0.000 C 
ATOM     18  C   UNL     1       4.809   5.714  15.386  0.00  0.00    +0.000 C 
ENDROOT
TORSDOF 0
ENDMDL
MODEL 6
REMARK VINA RESULT:      -6.4      2.561      5.051
REMARK  Name = 
REMARK  1 active torsions:
REMARK  status: ('A' for Active; 'I' for Inactive)
REMARK    1  A    between atoms: C_1  and  N_2
REMARK                            x       y       z     vdW  Elec       q    Type
REMARK                         _______ _______ _______ _____ _____    ______ ____
ROOT
ATOM      1  C   UNL     1       3.350   8.021  17.592  0.00  0.00    +0.000 C 
ATOM      2  N   UNL     1       3.716   6.756  18.253  0.00  0.00    +0.000 N 
ATOM      3  C   UNL     1       2.588   6.120  18.793  0.00  0.00    +0.000 C 
ATOM      4  O   UNL     1       1.455   6.611  18.781  0.00  0.00    +0.000 OA
ATOM      5  C   UNL     1       2.671   4.852  19.516  0.00  0.00    +0.000 A 
ATOM      6  C   UNL     1       2.124   4.824  20.813  0.00  0.00    +0.000 A 
ATOM      7  C   UNL     1       2.219   3.685  21.603  0.00  0.00    +0.000 A 
ATOM      8  C   UNL     1       2.840   2.559  21.091  0.00  0.00    +0.000 A 
ATOM      9  C   UNL     1       3.260   2.547  19.753  0.00  0.00    +0.000 A 
ATOM     10  C   UNL     1       3.131   3.678  18.935  0.00  0.00    +0.000 A 
ATOM     11  C   UNL     1       3.409   3.581  17.457  0.00  0.00    +0.000 C 
ATOM     12  N   UNL     1       4.728   3.983  16.962  0.00  0.00    +0.000 NA
ATOM     13  C   UNL     1       4.762   5.378  16.478  0.00  0.00    +0.000 C 
ATOM     14  C   UNL     1       5.022   6.224  17.730  0.00  0.00    +0.000 C 
ATOM     15  C   UNL     1       6.062   5.312  18.399  0.00  0.00    +0.000 C 
ATOM     16  C   UNL     1       7.501   5.703  17.976  0.00  0.00    +0.000 C 
ATOM     17  C   UNL     1       7.158   5.636  19.417  0.00  0.00    +0.000 C 
ATOM     18  C   UNL     1       5.777   3.876  17.982  0.00  0.00    +0.000 C 
ENDROOT
TORSDOF 0
ENDMDL
MODEL 7
REMARK VINA RESULT:      -6.1      7.903     10.659
REMARK  Name = 
REMARK  1 active torsions:
REMARK  status: ('A' for Active; 'I' for Inactive)
REMARK    1  A    between atoms: C_1  and  N_2
REMARK                            x       y       z     vdW  Elec       q    Type
REMARK                         _______ _______ _______ _____ _____    ______ ____
ROOT
ATOM      1  C   UNL     1       0.834   8.457  21.427  0.00  0.00    +0.000 C 
ATOM      2  N   UNL     1      -0.062   9.598  21.172  0.00  0.00    +0.000 N 
ATOM      3  C   UNL     1      -0.259  10.361  22.333  0.00  0.00    +0.000 C 
ATOM      4  O   UNL     1       0.197  10.054  23.438  0.00  0.00    +0.000 OA
ATOM      5  C   UNL     1      -1.118  11.544  22.360  0.00  0.00    +0.000 A 
ATOM      6  C   UNL     1      -2.144  11.561  23.323  0.00  0.00    +0.000 A 
ATOM      7  C   UNL     1      -3.053  12.611  23.379  0.00  0.00    +0.000 A 
ATOM      8  C   UNL     1      -2.925  13.662  22.487  0.00  0.00    +0.000 A 
ATOM      9  C   UNL     1      -1.822  13.706  21.622  0.00  0.00    +0.000 A 
ATOM     10  C   UNL     1      -0.877  12.672  21.587  0.00  0.00    +0.000 A 
ATOM     11  C   UNL     1       0.395  12.832  20.794  0.00  0.00    +0.000 C 
ATOM     12  N   UNL     1       0.457  12.268  19.444  0.00  0.00    +0.000 NA
ATOM     13  C   UNL     1       1.068  10.923  19.407  0.00  0.00    +0.000 C 
ATOM     14  C   UNL     1      -0.084   9.958  19.711  0.00  0.00    +0.000 C 
ATOM     15  C   UNL     1      -1.174  10.646  18.874  0.00  0.00    +0.000 C 
ATOM     16  C   UNL     1      -1.221  10.069  17.437  0.00  0.00    +0.000 C 
ATOM     17  C   UNL     1      -2.456  10.083  18.257  0.00  0.00    +0.000 C 
ATOM     18  C   UNL     1      -0.864  12.136  18.820  0.00  0.00    +0.000 C 
ENDROOT
TORSDOF 0
ENDMDL
MODEL 8
REMARK VINA RESULT:      -5.8      6.210      8.677
REMARK  Name = 
REMARK  1 active torsions:
REMARK  status: ('A' for Active; 'I' for Inactive)
REMARK    1  A    between atoms: C_1  and  N_2
REMARK                            x       y       z     vdW  Elec       q    Type
REMARK                         _______ _______ _______ _____ _____    ______ ____
ROOT
ATOM      1  C   UNL     1      -1.046  10.843  23.078  0.00  0.00    +0.000 C 
ATOM      2  N   UNL     1      -0.206  10.790  21.869  0.00  0.00    +0.000 N 
ATOM      3  C   UNL     1      -0.161   9.493  21.337  0.00  0.00    +0.000 C 
ATOM      4  O   UNL     1      -0.692   8.515  21.872  0.00  0.00    +0.000 OA
ATOM      5  C   UNL     1       0.614   9.160  20.142  0.00  0.00    +0.000 A 
ATOM      6  C   UNL     1       1.548   8.114  20.264  0.00  0.00    +0.000 A 
ATOM      7  C   UNL     1       2.379   7.773  19.204  0.00  0.00    +0.000 A 
ATOM      8  C   UNL     1       2.263   8.460  18.007  0.00  0.00    +0.000 A 
ATOM      9  C   UNL     1       1.240   9.405  17.848  0.00  0.00    +0.000 A 
ATOM     10  C   UNL     1       0.369   9.727  18.899  0.00  0.00    +0.000 A 
ATOM     11  C   UNL     1      -0.835  10.596  18.648  0.00  0.00    +0.000 C 
ATOM     12  N   UNL     1      -0.742  12.028  18.943  0.00  0.00    +0.000 NA
ATOM     13  C   UNL     1      -1.260  12.376  20.282  0.00  0.00    +0.000 C 
ATOM     14  C   UNL     1      -0.080  12.148  21.233  0.00  0.00    +0.000 C 
ATOM     15  C   UNL     1       1.033  12.729  20.346  0.00  0.00    +0.000 C 
ATOM     16  C   UNL     1       1.243  14.238  20.632  0.00  0.00    +0.000 C 
ATOM     17  C   UNL     1       2.398  13.312  20.720  0.00  0.00    +0.000 C 
ATOM     18  C   UNL     1       0.635  12.533  18.890  0.00  0.00    +0.000 C 
ENDROOT
TORSDOF 0
ENDMDL
MODEL 9
REMARK VINA RESULT:      -5.7      2.387      3.347
REMARK  Name = 
REMARK  1 active torsions:
REMARK  status: ('A' for Active; 'I' for Inactive)
REMARK    1  A    between atoms: C_1  and  N_2
REMARK                            x       y       z     vdW  Elec       q    Type
REMARK                         _______ _______ _______ _____ _____    ______ ____
ROOT
ATOM      1  C   UNL     1       2.959   2.507  21.462  0.00  0.00    +0.000 C 
ATOM      2  N   UNL     1       3.294   3.557  20.484  0.00  0.00    +0.000 N 
ATOM      3  C   UNL     1       4.406   3.196  19.709  0.00  0.00    +0.000 C 
ATOM      4  O   UNL     1       5.061   2.165  19.891  0.00  0.00    +0.000 OA
ATOM      5  C   UNL     1       4.958   4.066  18.671  0.00  0.00    +0.000 A 
ATOM      6  C   UNL     1       6.327   4.379  18.768  0.00  0.00    +0.000 A 
ATOM      7  C   UNL     1       6.923   5.254  17.868  0.00  0.00    +0.000 A 
ATOM      8  C   UNL     1       6.160   5.802  16.852  0.00  0.00    +0.000 A 
ATOM      9  C   UNL     1       4.833   5.381  16.679  0.00  0.00    +0.000 A 
ATOM     10  C   UNL     1       4.234   4.467  17.556  0.00  0.00    +0.000 A 
ATOM     11  C   UNL     1       2.881   3.885  17.239  0.00  0.00    +0.000 C 
ATOM     12  N   UNL     1       1.695   4.493  17.848  0.00  0.00    +0.000 NA
ATOM     13  C   UNL     1       1.264   3.806  19.083  0.00  0.00    +0.000 C 
ATOM     14  C   UNL     1       2.106   4.436  20.198  0.00  0.00    +0.000 C 
ATOM     15  C   UNL     1       2.042   5.896  19.724  0.00  0.00    +0.000 C 
ATOM     16  C   UNL     1       0.844   6.639  20.367  0.00  0.00    +0.000 C 
ATOM     17  C   UNL     1       2.209   7.202  20.505  0.00  0.00    +0.000 C 
ATOM     18  C   UNL     1       1.897   5.900  18.209  0.00  0.00    +0.000 C 
ENDROOT
TORSDOF 0
ENDMDL
