MODEL 1
REMARK VINA RESULT:      -8.7      0.000      0.000
REMARK  Name = 
REMARK  6 active torsions:
REMARK  status: ('A' for Active; 'I' for Inactive)
REMARK    1  A    between atoms: N_1  and  C_2
REMARK    2  A    between atoms: C_4  and  N_5
REMARK    3  A    between atoms: N_5  and  S_6
REMARK    4  A    between atoms: S_6  and  C_9
REMARK    5  A    between atoms: C_16  and  C_17
REMARK    6  A    between atoms: C_23  and  C_24
REMARK                            x       y       z     vdW  Elec       q    Type
REMARK                         _______ _______ _______ _____ _____    ______ ____
ROOT
ATOM      1  C   UNL     1       1.789  10.892  18.220  0.00  0.00    +0.000 A 
ATOM      2  C   UNL     1       0.720  11.392  18.970  0.00  0.00    +0.000 A 
ATOM      3  C   UNL     1       0.069  10.576  19.894  0.00  0.00    +0.000 A 
ATOM      4  C   UNL     1       0.506   9.274  20.101  0.00  0.00    +0.000 A 
ATOM      5  C   UNL     1       1.605   8.747  19.395  0.00  0.00    +0.000 A 
ATOM      6  C   UNL     1       2.242   9.589  18.470  0.00  0.00    +0.000 A 
ENDROOT
BRANCH   5   7
ATOM      7  C   UNL     1       2.064   7.366  19.643  0.00  0.00    +0.000 A 
ATOM      8  C   UNL     1       1.530   6.540  20.640  0.00  0.00    +0.000 A 
ATOM      9  N   UNL     1       1.875   5.253  20.914  0.00  0.00    +0.000 NA
ATOM     10  C   UNL     1       2.830   4.789  20.089  0.00  0.00    +0.000 A 
ATOM     11  N   UNL     1       3.332   3.521  20.122  0.00  0.00    +0.000 N 
ATOM     12  C   UNL     1       4.279   3.371  19.139  0.00  0.00    +0.000 A 
ATOM     13  C   UNL     1       4.404   4.574  18.465  0.00  0.00    +0.000 A 
ATOM     14  C   UNL     1       3.470   5.473  19.066  0.00  0.00    +0.000 A 
ATOM     15  C   UNL     1       3.074   6.801  18.850  0.00  0.00    +0.000 A 
ATOM     16  H   UNL     1       3.028   2.816  20.777  0.00  0.00    +0.000 HD
BRANCH  13  17
ATOM     17  C   UNL     1       5.334   4.795  17.364  0.00  0.00    +0.000 A 
ATOM     18  C   UNL     1       6.702   4.578  17.528  0.00  0.00    +0.000 A 
ATOM     19  C   UNL     1       7.545   4.816  16.455  0.00  0.00    +0.000 A 
ATOM     20  N   UNL     1       7.124   5.237  15.244  0.00  0.00    +0.000 NA
ATOM     21  C   UNL     1       5.799   5.437  15.105  0.00  0.00    +0.000 A 
ATOM     22  C   UNL     1       4.878   5.235  16.119  0.00  0.00    +0.000 A 
ENDBRANCH  13  17
ENDBRANCH   5   7
BRANCH   1  23
ATOM     23  N   UNL     1       2.555  11.742  17.412  0.00  0.00    +0.000 N 
ATOM     24  H   UNL     1       3.420  12.056  17.840  0.00  0.00    +0.000 HD
ATOM     25  H   UNL     1       2.032  12.511  17.003  0.00  0.00    +0.000 HD
ENDBRANCH   1  23
BRANCH   3  26
ATOM     26  N   UNL     1      -1.002  11.064  20.700  0.00  0.00    +0.000 N 
ATOM     27  H   UNL     1      -1.819  10.459  20.778  0.00  0.00    +0.000 HD
BRANCH  26  28
ATOM     28  S   UNL     1      -0.651  11.838  22.158  0.00  0.00    +0.000 S 
ATOM     29  O   UNL     1      -0.399  10.777  23.117  0.00  0.00    +0.000 OA
ATOM     30  O   UNL     1       0.298  12.906  21.943  0.00  0.00    +0.000 OA
BRANCH  28  31
ATOM     31  C   UNL     1      -2.221  12.552  22.598  0.00  0.00    +0.000 A 
ATOM     32  C   UNL     1      -2.760  13.549  21.776  0.00  0.00    +0.000 A 
ATOM     33  C   UNL     1      -3.987  14.128  22.103  0.00  0.00    +0.000 A 
ATOM     34  C   UNL     1      -4.679  13.704  23.238  0.00  0.00    +0.000 A 
ATOM     35  C   UNL     1      -4.159  12.682  24.035  0.00  0.00    +0.000 A 
ATOM     36  C   UNL     1      -2.927  12.099  23.718  0.00  0.00    +0.000 A 
ENDBRANCH  28  31
ENDBRANCH  26  28
ENDBRANCH   3  26
TORSDOF 6
ENDMDL
MODEL 2
REMARK VINA RESULT:      -8.7      0.466      1.117
REMARK  Name = 
REMARK  6 active torsions:
REMARK  status: ('A' for Active; 'I' for Inactive)
REMARK    1  A    between atoms: N_1  and  C_2
REMARK    2  A    between atoms: C_4  and  N_5
REMARK    3  A    between atoms: N_5  and  S_6
REMARK    4  A    between atoms: S_6  and  C_9
REMARK    5  A    between atoms: C_16  and  C_17
REMARK    6  A    between atoms: C_23  and  C_24
REMARK                            x       y       z     vdW  Elec       q    Type
REMARK                         _______ _______ _______ _____ _____    ______ ____
ROOT
ATOM      1  C   UNL     1       1.810  10.845  18.218  0.00  0.00    +0.000 A 
ATOM      2  C   UNL     1       0.724  11.321  18.960  0.00  0.00    +0.000 A 
ATOM      3  C   UNL     1       0.072  10.485  19.864  0.00  0.00    +0.000 A 
ATOM      4  C   UNL     1       0.521   9.186  20.059  0.00  0.00    +0.000 A 
ATOM      5  C   UNL     1       1.636   8.682  19.362  0.00  0.00    +0.000 A 
ATOM      6  C   UNL     1       2.275   9.544  18.457  0.00  0.00    +0.000 A 
ENDROOT
BRANCH   5   7
ATOM      7  C   UNL     1       2.109   7.303  19.597  0.00  0.00    +0.000 A 
ATOM      8  C   UNL     1       1.578   6.461  20.583  0.00  0.00    +0.000 A 
ATOM      9  N   UNL     1       1.936   5.175  20.845  0.00  0.00    +0.000 NA
ATOM     10  C   UNL     1       2.900   4.730  20.020  0.00  0.00    +0.000 A 
ATOM     11  N   UNL     1       3.416   3.467  20.042  0.00  0.00    +0.000 N 
ATOM     12  C   UNL     1       4.370   3.339  19.063  0.00  0.00    +0.000 A 
ATOM     13  C   UNL     1       4.485   4.550  18.403  0.00  0.00    +0.000 A 
ATOM     14  C   UNL     1       3.539   5.432  19.008  0.00  0.00    +0.000 A 
ATOM     15  C   UNL     1       3.129   6.758  18.804  0.00  0.00    +0.000 A 
ATOM     16  H   UNL     1       3.116   2.753  20.688  0.00  0.00    +0.000 HD
BRANCH  13  17
ATOM     17  C   UNL     1       5.419   4.792  17.309  0.00  0.00    +0.000 A 
ATOM     18  C   UNL     1       5.335   4.066  16.122  0.00  0.00    +0.000 A 
ATOM     19  C   UNL     1       6.254   4.325  15.119  0.00  0.00    +0.000 A 
ATOM     20  N   UNL     1       7.231   5.252  15.212  0.00  0.00    +0.000 NA
ATOM     21  C   UNL     1       7.293   5.945  16.365  0.00  0.00    +0.000 A 
ATOM     22  C   UNL     1       6.426   5.754  17.428  0.00  0.00    +0.000 A 
ENDBRANCH  13  17
ENDBRANCH   5   7
BRANCH   1  23
ATOM     23  N   UNL     1       2.575  11.715  17.431  0.00  0.00    +0.000 N 
ATOM     24  H   UNL     1       2.062  12.149  16.671  0.00  0.00    +0.000 HD
ATOM     25  H   UNL     1       3.460  11.325  17.119  0.00  0.00    +0.000 HD
ENDBRANCH   1  23
BRANCH   3  26
ATOM     26  N   UNL     1      -1.016  10.949  20.662  0.00  0.00    +0.000 N 
ATOM     27  H   UNL     1      -1.812  10.318  20.749  0.00  0.00    +0.000 HD
BRANCH  26  28
ATOM     28  S   UNL     1      -0.693  11.758  22.107  0.00  0.00    +0.000 S 
ATOM     29  O   UNL     1      -0.373  10.724  23.075  0.00  0.00    +0.000 OA
ATOM     30  O   UNL     1       0.194  12.874  21.870  0.00  0.00    +0.000 OA
BRANCH  28  31
ATOM     31  C   UNL     1      -2.295  12.390  22.557  0.00  0.00    +0.000 A 
ATOM     32  C   UNL     1      -2.771  12.156  23.853  0.00  0.00    +0.000 A 
ATOM     33  C   UNL     1      -4.027  12.636  24.228  0.00  0.00    +0.000 A 
ATOM     34  C   UNL     1      -4.797  13.359  23.318  0.00  0.00    +0.000 A 
ATOM     35  C   UNL     1      -4.305  13.627  22.039  0.00  0.00    +0.000 A 
ATOM     36  C   UNL     1      -3.050  13.145  21.652  0.00  0.00    +0.000 A 
ENDBRANCH  28  31
ENDBRANCH  26  28
ENDBRANCH   3  26
TORSDOF 6
ENDMDL
MODEL 3
REMARK VINA RESULT:      -8.6      2.417      3.394
REMARK  Name = 
REMARK  6 active torsions:
REMARK  status: ('A' for Active; 'I' for Inactive)
REMARK    1  A    between atoms: N_1  and  C_2
REMARK    2  A    between atoms: C_4  and  N_5
REMARK    3  A    between atoms: N_5  and  S_6
REMARK    4  A    between atoms: S_6  and  C_9
REMARK    5  A    between atoms: C_16  and  C_17
REMARK    6  A    between atoms: C_23  and  C_24
REMARK                            x       y       z     vdW  Elec       q    Type
REMARK                         _______ _______ _______ _____ _____    ______ ____
ROOT
ATOM      1  C   UNL     1       0.527   9.223  22.222  0.00  0.00    +0.000 A 
ATOM      2  C   UNL     1       0.603  10.246  21.272  0.00  0.00    +0.000 A 
ATOM      3  C   UNL     1       1.114   9.987  20.002  0.00  0.00    +0.000 A 
ATOM      4  C   UNL     1       1.515   8.702  19.662  0.00  0.00    +0.000 A 
ATOM      5  C   UNL     1       1.415   7.636  20.577  0.00  0.00    +0.000 A 
ATOM      6  C   UNL     1       0.898   7.924  21.850  0.00  0.00    +0.000 A 
ENDROOT
BRANCH   5   7
ATOM      7  C   UNL     1       1.831   6.272  20.190  0.00  0.00    +0.000 A 
ATOM      8  C   UNL     1       1.163   5.113  20.607  0.00  0.00    +0.000 A 
ATOM      9  N   UNL     1       1.463   3.829  20.275  0.00  0.00    +0.000 NA
ATOM     10  C   UNL     1       2.516   3.743  19.445  0.00  0.00    +0.000 A 
ATOM     11  N   UNL     1       3.003   2.577  18.929  0.00  0.00    +0.000 N 
ATOM     12  C   UNL     1       4.072   2.843  18.110  0.00  0.00    +0.000 A 
ATOM     13  C   UNL     1       4.292   4.210  18.107  0.00  0.00    +0.000 A 
ATOM     14  C   UNL     1       3.291   4.782  18.950  0.00  0.00    +0.000 A 
ATOM     15  C   UNL     1       2.934   6.079  19.346  0.00  0.00    +0.000 A 
ATOM     16  H   UNL     1       2.611   1.670  19.132  0.00  0.00    +0.000 HD
BRANCH  13  17
ATOM     17  C   UNL     1       5.362   4.858  17.358  0.00  0.00    +0.000 A 
ATOM     18  C   UNL     1       5.661   4.466  16.053  0.00  0.00    +0.000 A 
ATOM     19  C   UNL     1       6.696   5.104  15.389  0.00  0.00    +0.000 A 
ATOM     20  N   UNL     1       7.435   6.098  15.924  0.00  0.00    +0.000 NA
ATOM     21  C   UNL     1       7.129   6.464  17.185  0.00  0.00    +0.000 A 
ATOM     22  C   UNL     1       6.119   5.882  17.932  0.00  0.00    +0.000 A 
ENDBRANCH  13  17
ENDBRANCH   5   7
BRANCH   1  23
ATOM     23  N   UNL     1      -0.132   9.427  23.441  0.00  0.00    +0.000 N 
ATOM     24  H   UNL     1       0.451   9.830  24.167  0.00  0.00    +0.000 HD
ATOM     25  H   UNL     1      -0.651   8.619  23.775  0.00  0.00    +0.000 HD
ENDBRANCH   1  23
BRANCH   3  26
ATOM     26  N   UNL     1       1.173  10.999  18.997  0.00  0.00    +0.000 N 
ATOM     27  H   UNL     1       1.351  10.679  18.046  0.00  0.00    +0.000 HD
BRANCH  26  28
ATOM     28  S   UNL     1       0.059  12.267  19.037  0.00  0.00    +0.000 S 
ATOM     29  O   UNL     1      -0.146  12.568  20.443  0.00  0.00    +0.000 OA
ATOM     30  O   UNL     1       0.433  13.292  18.090  0.00  0.00    +0.000 OA
BRANCH  28  31
ATOM     31  C   UNL     1      -1.433  11.482  18.467  0.00  0.00    +0.000 A 
ATOM     32  C   UNL     1      -2.666  12.020  18.856  0.00  0.00    +0.000 A 
ATOM     33  C   UNL     1      -3.851  11.419  18.428  0.00  0.00    +0.000 A 
ATOM     34  C   UNL     1      -3.804  10.296  17.602  0.00  0.00    +0.000 A 
ATOM     35  C   UNL     1      -2.575   9.785  17.183  0.00  0.00    +0.000 A 
ATOM     36  C   UNL     1      -1.382  10.376  17.612  0.00  0.00    +0.000 A 
ENDBRANCH  28  31
ENDBRANCH  26  28
ENDBRANCH   3  26
TORSDOF 6
ENDMDL
MODEL 4
REMARK VINA RESULT:      -8.6      2.413      3.338
REMARK  Name = 
REMARK  6 active torsions:
REMARK  status: ('A' for Active; 'I' for Inactive)
REMARK    1  A    between atoms: N_1  and  C_2
REMARK    2  A    between atoms: C_4  and  N_5
REMARK    3  A    between atoms: N_5  and  S_6
REMARK    4  A    between atoms: S_6  and  C_9
REMARK    5  A    between atoms: C_16  and  C_17
REMARK    6  A    between atoms: C_23  and  C_24
REMARK                            x       y       z     vdW  Elec       q    Type
REMARK                         _______ _______ _______ _____ _____    ______ ____
ROOT
ATOM      1  C   UNL     1       0.502   9.189  22.192  0.00  0.00    +0.000 A 
ATOM      2  C   UNL     1       0.598  10.212  21.244  0.00  0.00    +0.000 A 
ATOM      3  C   UNL     1       1.124   9.950  19.980  0.00  0.00    +0.000 A 
ATOM      4  C   UNL     1       1.521   8.662  19.645  0.00  0.00    +0.000 A 
ATOM      5  C   UNL     1       1.402   7.596  20.558  0.00  0.00    +0.000 A 
ATOM      6  C   UNL     1       0.870   7.887  21.824  0.00  0.00    +0.000 A 
ENDROOT
BRANCH   5   7
ATOM      7  C   UNL     1       1.813   6.230  20.177  0.00  0.00    +0.000 A 
ATOM      8  C   UNL     1       1.150   5.074  20.608  0.00  0.00    +0.000 A 
ATOM      9  N   UNL     1       1.446   3.788  20.282  0.00  0.00    +0.000 NA
ATOM     10  C   UNL     1       2.491   3.696  19.442  0.00  0.00    +0.000 A 
ATOM     11  N   UNL     1       2.973   2.527  18.929  0.00  0.00    +0.000 N 
ATOM     12  C   UNL     1       4.034   2.787  18.097  0.00  0.00    +0.000 A 
ATOM     13  C   UNL     1       4.254   4.153  18.083  0.00  0.00    +0.000 A 
ATOM     14  C   UNL     1       3.261   4.732  18.932  0.00  0.00    +0.000 A 
ATOM     15  C   UNL     1       2.908   6.031  19.323  0.00  0.00    +0.000 A 
ATOM     16  H   UNL     1       2.583   1.621  19.142  0.00  0.00    +0.000 HD
BRANCH  13  17
ATOM     17  C   UNL     1       5.316   4.796  17.318  0.00  0.00    +0.000 A 
ATOM     18  C   UNL     1       6.215   5.667  17.934  0.00  0.00    +0.000 A 
ATOM     19  C   UNL     1       7.197   6.262  17.160  0.00  0.00    +0.000 A 
ATOM     20  N   UNL     1       7.351   6.045  15.837  0.00  0.00    +0.000 NA
ATOM     21  C   UNL     1       6.475   5.198  15.262  0.00  0.00    +0.000 A 
ATOM     22  C   UNL     1       5.455   4.560  15.948  0.00  0.00    +0.000 A 
ENDBRANCH  13  17
ENDBRANCH   5   7
BRANCH   1  23
ATOM     23  N   UNL     1      -0.172   9.396  23.402  0.00  0.00    +0.000 N 
ATOM     24  H   UNL     1      -1.171   9.221  23.358  0.00  0.00    +0.000 HD
ATOM     25  H   UNL     1       0.038  10.284  23.850  0.00  0.00    +0.000 HD
ENDBRANCH   1  23
BRANCH   3  26
ATOM     26  N   UNL     1       1.203  10.962  18.978  0.00  0.00    +0.000 N 
ATOM     27  H   UNL     1       1.363  10.639  18.024  0.00  0.00    +0.000 HD
BRANCH  26  28
ATOM     28  S   UNL     1       0.127  12.261  19.029  0.00  0.00    +0.000 S 
ATOM     29  O   UNL     1      -0.056  12.565  20.437  0.00  0.00    +0.000 OA
ATOM     30  O   UNL     1       0.522  13.277  18.081  0.00  0.00    +0.000 OA
BRANCH  28  31
ATOM     31  C   UNL     1      -1.392  11.521  18.471  0.00  0.00    +0.000 A 
ATOM     32  C   UNL     1      -1.327  10.403  17.632  0.00  0.00    +0.000 A 
ATOM     33  C   UNL     1      -2.504   9.807  17.176  0.00  0.00    +0.000 A 
ATOM     34  C   UNL     1      -3.741  10.319  17.569  0.00  0.00    +0.000 A 
ATOM     35  C   UNL     1      -3.805  11.410  18.438  0.00  0.00    +0.000 A 
ATOM     36  C   UNL     1      -2.631  12.016  18.895  0.00  0.00    +0.000 A 
ENDBRANCH  28  31
ENDBRANCH  26  28
ENDBRANCH   3  26
TORSDOF 6
ENDMDL
MODEL 5
REMARK VINA RESULT:      -8.5      3.935      9.807
REMARK  Name = 
REMARK  6 active torsions:
REMARK  status: ('A' for Active; 'I' for Inactive)
REMARK    1  A    between atoms: N_1  and  C_2
REMARK    2  A    between atoms: C_4  and  N_5
REMARK    3  A    between atoms: N_5  and  S_6
REMARK    4  A    between atoms: S_6  and  C_9
REMARK    5  A    between atoms: C_16  and  C_17
REMARK    6  A    between atoms: C_23  and  C_24
REMARK                            x       y       z     vdW  Elec       q    Type
REMARK                         _______ _______ _______ _____ _____    ______ ____
ROOT
ATOM      1  C   UNL     1       2.251   4.029  20.270  0.00  0.00    +0.000 A 
ATOM      2  C   UNL     1       3.166   3.342  19.467  0.00  0.00    +0.000 A 
ATOM      3  C   UNL     1       3.787   3.989  18.400  0.00  0.00    +0.000 A 
ATOM      4  C   UNL     1       3.528   5.331  18.154  0.00  0.00    +0.000 A 
ATOM      5  C   UNL     1       2.644   6.068  18.965  0.00  0.00    +0.000 A 
ATOM      6  C   UNL     1       2.031   5.393  20.032  0.00  0.00    +0.000 A 
ENDROOT
BRANCH   5   7
ATOM      7  C   UNL     1       2.395   7.499  18.698  0.00  0.00    +0.000 A 
ATOM      8  C   UNL     1       2.851   8.162  17.550  0.00  0.00    +0.000 A 
ATOM      9  N   UNL     1       2.642   9.464  17.217  0.00  0.00    +0.000 NA
ATOM     10  C   UNL     1       1.900  10.117  18.127  0.00  0.00    +0.000 A 
ATOM     11  N   UNL     1       1.513  11.421  18.020  0.00  0.00    +0.000 N 
ATOM     12  C   UNL     1       0.756  11.772  19.110  0.00  0.00    +0.000 A 
ATOM     13  C   UNL     1       0.664  10.675  19.950  0.00  0.00    +0.000 A 
ATOM     14  C   UNL     1       1.385   9.618  19.315  0.00  0.00    +0.000 A 
ATOM     15  C   UNL     1       1.652   8.271  19.602  0.00  0.00    +0.000 A 
ATOM     16  H   UNL     1       1.756  12.013  17.240  0.00  0.00    +0.000 HD
BRANCH  13  17
ATOM     17  C   UNL     1      -0.053  10.683  21.220  0.00  0.00    +0.000 A 
ATOM     18  C   UNL     1      -0.922  11.725  21.544  0.00  0.00    +0.000 A 
ATOM     19  C   UNL     1      -1.568  11.692  22.769  0.00  0.00    +0.000 A 
ATOM     20  N   UNL     1      -1.420  10.702  23.674  0.00  0.00    +0.000 NA
ATOM     21  C   UNL     1      -0.578   9.704  23.340  0.00  0.00    +0.000 A 
ATOM     22  C   UNL     1       0.119   9.651  22.145  0.00  0.00    +0.000 A 
ENDBRANCH  13  17
ENDBRANCH   5   7
BRANCH   1  23
ATOM     23  N   UNL     1       1.745   3.445  21.438  0.00  0.00    +0.000 N 
ATOM     24  H   UNL     1       0.842   2.996  21.322  0.00  0.00    +0.000 HD
ATOM     25  H   UNL     1       1.765   4.054  22.251  0.00  0.00    +0.000 HD
ENDBRANCH   1  23
BRANCH   3  26
ATOM     26  N   UNL     1       4.752   3.328  17.583  0.00  0.00    +0.000 N 
ATOM     27  H   UNL     1       4.528   2.373  17.305  0.00  0.00    +0.000 HD
BRANCH  26  28
ATOM     28  S   UNL     1       5.506   4.184  16.339  0.00  0.00    +0.000 S 
ATOM     29  O   UNL     1       6.401   3.239  15.696  0.00  0.00    +0.000 OA
ATOM     30  O   UNL     1       4.531   4.937  15.585  0.00  0.00    +0.000 OA
BRANCH  28  31
ATOM     31  C   UNL     1       6.538   5.326  17.234  0.00  0.00    +0.000 A 
ATOM     32  C   UNL     1       7.222   4.869  18.367  0.00  0.00    +0.000 A 
ATOM     33  C   UNL     1       8.033   5.746  19.089  0.00  0.00    +0.000 A 
ATOM     34  C   UNL     1       8.171   7.070  18.672  0.00  0.00    +0.000 A 
ATOM     35  C   UNL     1       7.520   7.514  17.520  0.00  0.00    +0.000 A 
ATOM     36  C   UNL     1       6.701   6.644  16.793  0.00  0.00    +0.000 A 
ENDBRANCH  28  31
ENDBRANCH  26  28
ENDBRANCH   3  26
TORSDOF 6
ENDMDL
MODEL 6
REMARK VINA RESULT:      -8.5      1.149      1.343
REMARK  Name = 
REMARK  6 active torsions:
REMARK  status: ('A' for Active; 'I' for Inactive)
REMARK    1  A    between atoms: N_1  and  C_2
REMARK    2  A    between atoms: C_4  and  N_5
REMARK    3  A    between atoms: N_5  and  S_6
REMARK    4  A    between atoms: S_6  and  C_9
REMARK    5  A    between atoms: C_16  and  C_17
REMARK    6  A    between atoms: C_23  and  C_24
REMARK                            x       y       z     vdW  Elec       q    Type
REMARK                         _______ _______ _______ _____ _____    ______ ____
ROOT
ATOM      1  C   UNL     1       1.770  11.025  18.266  0.00  0.00    +0.000 A 
ATOM      2  C   UNL     1       0.776  11.569  19.085  0.00  0.00    +0.000 A 
ATOM      3  C   UNL     1       0.154  10.780  20.051  0.00  0.00    +0.000 A 
ATOM      4  C   UNL     1       0.548   9.460  20.230  0.00  0.00    +0.000 A 
ATOM      5  C   UNL     1       1.574   8.888  19.453  0.00  0.00    +0.000 A 
ATOM      6  C   UNL     1       2.182   9.704  18.486  0.00  0.00    +0.000 A 
ENDROOT
BRANCH   5   7
ATOM      7  C   UNL     1       1.990   7.488  19.671  0.00  0.00    +0.000 A 
ATOM      8  C   UNL     1       1.383   6.637  20.604  0.00  0.00    +0.000 A 
ATOM      9  N   UNL     1       1.685   5.333  20.844  0.00  0.00    +0.000 NA
ATOM     10  C   UNL     1       2.675   4.879  20.056  0.00  0.00    +0.000 A 
ATOM     11  N   UNL     1       3.148   3.599  20.066  0.00  0.00    +0.000 N 
ATOM     12  C   UNL     1       4.145   3.466  19.131  0.00  0.00    +0.000 A 
ATOM     13  C   UNL     1       4.332   4.691  18.514  0.00  0.00    +0.000 A 
ATOM     14  C   UNL     1       3.385   5.587  19.097  0.00  0.00    +0.000 A 
ATOM     15  C   UNL     1       3.029   6.931  18.912  0.00  0.00    +0.000 A 
ATOM     16  H   UNL     1       2.793   2.877  20.675  0.00  0.00    +0.000 HD
BRANCH  13  17
ATOM     17  C   UNL     1       5.327   4.931  17.475  0.00  0.00    +0.000 A 
ATOM     18  C   UNL     1       6.322   5.893  17.646  0.00  0.00    +0.000 A 
ATOM     19  C   UNL     1       7.234   6.093  16.623  0.00  0.00    +0.000 A 
ATOM     20  N   UNL     1       7.231   5.402  15.463  0.00  0.00    +0.000 NA
ATOM     21  C   UNL     1       6.264   4.475  15.319  0.00  0.00    +0.000 A 
ATOM     22  C   UNL     1       5.302   4.208  16.280  0.00  0.00    +0.000 A 
ENDBRANCH  13  17
ENDBRANCH   5   7
BRANCH   1  23
ATOM     23  N   UNL     1       2.515  11.844  17.407  0.00  0.00    +0.000 N 
ATOM     24  H   UNL     1       2.109  11.957  16.484  0.00  0.00    +0.000 HD
ATOM     25  H   UNL     1       3.503  11.610  17.361  0.00  0.00    +0.000 HD
ENDBRANCH   1  23
BRANCH   3  26
ATOM     26  N   UNL     1      -0.839  11.311  20.927  0.00  0.00    +0.000 N 
ATOM     27  H   UNL     1      -0.520  11.583  21.857  0.00  0.00    +0.000 HD
BRANCH  26  28
ATOM     28  S   UNL     1      -1.988  12.386  20.317  0.00  0.00    +0.000 S 
ATOM     29  O   UNL     1      -1.303  13.660  20.181  0.00  0.00    +0.000 OA
ATOM     30  O   UNL     1      -2.698  11.787  19.211  0.00  0.00    +0.000 OA
BRANCH  28  31
ATOM     31  C   UNL     1      -3.111  12.562  21.686  0.00  0.00    +0.000 A 
ATOM     32  C   UNL     1      -4.427  12.965  21.429  0.00  0.00    +0.000 A 
ATOM     33  C   UNL     1      -5.326  13.115  22.486  0.00  0.00    +0.000 A 
ATOM     34  C   UNL     1      -4.915  12.851  23.793  0.00  0.00    +0.000 A 
ATOM     35  C   UNL     1      -3.614  12.411  24.044  0.00  0.00    +0.000 A 
ATOM     36  C   UNL     1      -2.705  12.263  22.992  0.00  0.00    +0.000 A 
ENDBRANCH  28  31
ENDBRANCH  26  28
ENDBRANCH   3  26
TORSDOF 6
ENDMDL
MODEL 7
REMARK VINA RESULT:      -8.4      3.655     10.131
REMARK  Name = 
REMARK  6 active torsions:
REMARK  status: ('A' for Active; 'I' for Inactive)
REMARK    1  A    between atoms: N_1  and  C_2
REMARK    2  A    between atoms: C_4  and  N_5
REMARK    3  A    between atoms: N_5  and  S_6
REMARK    4  A    between atoms: S_6  and  C_9
REMARK    5  A    between atoms: C_16  and  C_17
REMARK    6  A    between atoms: C_23  and  C_24
REMARK                            x       y       z     vdW  Elec       q    Type
REMARK                         _______ _______ _______ _____ _____    ______ ____
ROOT
ATOM      1  C   UNL     1       2.481   4.005  20.635  0.00  0.00    +0.000 A 
ATOM      2  C   UNL     1       3.671   3.461  20.140  0.00  0.00    +0.000 A 
ATOM      3  C   UNL     1       4.438   4.175  19.222  0.00  0.00    +0.000 A 
ATOM      4  C   UNL     1       4.045   5.446  18.824  0.00  0.00    +0.000 A 
ATOM      5  C   UNL     1       2.875   6.045  19.332  0.00  0.00    +0.000 A 
ATOM      6  C   UNL     1       2.119   5.304  20.254  0.00  0.00    +0.000 A 
ENDROOT
BRANCH   5   7
ATOM      7  C   UNL     1       2.483   7.404  18.910  0.00  0.00    +0.000 A 
ATOM      8  C   UNL     1       2.830   7.960  17.672  0.00  0.00    +0.000 A 
ATOM      9  N   UNL     1       2.487   9.188  17.198  0.00  0.00    +0.000 NA
ATOM     10  C   UNL     1       1.722   9.879  18.061  0.00  0.00    +0.000 A 
ATOM     11  N   UNL     1       1.211  11.120  17.819  0.00  0.00    +0.000 N 
ATOM     12  C   UNL     1       0.466  11.532  18.896  0.00  0.00    +0.000 A 
ATOM     13  C   UNL     1       0.509  10.542  19.863  0.00  0.00    +0.000 A 
ATOM     14  C   UNL     1       1.302   9.484  19.323  0.00  0.00    +0.000 A 
ATOM     15  C   UNL     1       1.705   8.211  19.753  0.00  0.00    +0.000 A 
ATOM     16  H   UNL     1       1.367  11.632  16.964  0.00  0.00    +0.000 HD
BRANCH  13  17
ATOM     17  C   UNL     1      -0.157  10.641  21.156  0.00  0.00    +0.000 A 
ATOM     18  C   UNL     1       0.062   9.687  22.150  0.00  0.00    +0.000 A 
ATOM     19  C   UNL     1      -0.605   9.820  23.356  0.00  0.00    +0.000 A 
ATOM     20  N   UNL     1      -1.455  10.829  23.641  0.00  0.00    +0.000 NA
ATOM     21  C   UNL     1      -1.651  11.742  22.670  0.00  0.00    +0.000 A 
ATOM     22  C   UNL     1      -1.036  11.692  21.429  0.00  0.00    +0.000 A 
ENDBRANCH  13  17
ENDBRANCH   5   7
BRANCH   1  23
ATOM     23  N   UNL     1       1.787   3.375  21.676  0.00  0.00    +0.000 N 
ATOM     24  H   UNL     1       2.078   2.418  21.852  0.00  0.00    +0.000 HD
ATOM     25  H   UNL     1       0.776   3.460  21.615  0.00  0.00    +0.000 HD
ENDBRANCH   1  23
BRANCH   3  26
ATOM     26  N   UNL     1       5.675   3.666  18.723  0.00  0.00    +0.000 N 
ATOM     27  H   UNL     1       5.624   2.790  18.203  0.00  0.00    +0.000 HD
BRANCH  26  28
ATOM     28  S   UNL     1       6.796   4.733  18.051  0.00  0.00    +0.000 S 
ATOM     29  O   UNL     1       6.315   6.065  18.372  0.00  0.00    +0.000 OA
ATOM     30  O   UNL     1       8.141   4.316  18.372  0.00  0.00    +0.000 OA
BRANCH  28  31
ATOM     31  C   UNL     1       6.534   4.511  16.304  0.00  0.00    +0.000 A 
ATOM     32  C   UNL     1       7.457   5.066  15.410  0.00  0.00    +0.000 A 
ATOM     33  C   UNL     1       7.271   4.911  14.035  0.00  0.00    +0.000 A 
ATOM     34  C   UNL     1       6.175   4.193  13.557  0.00  0.00    +0.000 A 
ATOM     35  C   UNL     1       5.276   3.606  14.451  0.00  0.00    +0.000 A 
ATOM     36  C   UNL     1       5.452   3.761  15.829  0.00  0.00    +0.000 A 
ENDBRANCH  28  31
ENDBRANCH  26  28
ENDBRANCH   3  26
TORSDOF 6
ENDMDL
MODEL 8
REMARK VINA RESULT:      -8.4      3.266      4.397
REMARK  Name = 
REMARK  6 active torsions:
REMARK  status: ('A' for Active; 'I' for Inactive)
REMARK    1  A    between atoms: N_1  and  C_2
REMARK    2  A    between atoms: C_4  and  N_5
REMARK    3  A    between atoms: N_5  and  S_6
REMARK    4  A    between atoms: S_6  and  C_9
REMARK    5  A    between atoms: C_16  and  C_17
REMARK    6  A    between atoms: C_23  and  C_24
REMARK                            x       y       z     vdW  Elec       q    Type
REMARK                         _______ _______ _______ _____ _____    ______ ____
ROOT
ATOM      1  C   UNL     1      -1.191  11.940  18.136  0.00  0.00    +0.000 A 
ATOM      2  C   UNL     1      -0.279  12.997  18.037  0.00  0.00    +0.000 A 
ATOM      3  C   UNL     1       1.022  12.847  18.513  0.00  0.00    +0.000 A 
ATOM      4  C   UNL     1       1.430  11.635  19.054  0.00  0.00    +0.000 A 
ATOM      5  C   UNL     1       0.554  10.535  19.134  0.00  0.00    +0.000 A 
ATOM      6  C   UNL     1      -0.751  10.712  18.649  0.00  0.00    +0.000 A 
ENDROOT
BRANCH   5   7
ATOM      7  C   UNL     1       1.013   9.249  19.697  0.00  0.00    +0.000 A 
ATOM      8  C   UNL     1       0.611   8.766  20.949  0.00  0.00    +0.000 A 
ATOM      9  N   UNL     1       0.963   7.585  21.525  0.00  0.00    +0.000 NA
ATOM     10  C   UNL     1       1.775   6.852  20.744  0.00  0.00    +0.000 A 
ATOM     11  N   UNL     1       2.247   5.612  21.065  0.00  0.00    +0.000 N 
ATOM     12  C   UNL     1       3.035   5.138  20.046  0.00  0.00    +0.000 A 
ATOM     13  C   UNL     1       3.088   6.098  19.050  0.00  0.00    +0.000 A 
ATOM     14  C   UNL     1       2.274   7.185  19.493  0.00  0.00    +0.000 A 
ATOM     15  C   UNL     1       1.881   8.424  18.967  0.00  0.00    +0.000 A 
ATOM     16  H   UNL     1       2.026   5.137  21.927  0.00  0.00    +0.000 HD
BRANCH  13  17
ATOM     17  C   UNL     1       3.851   5.947  17.817  0.00  0.00    +0.000 A 
ATOM     18  C   UNL     1       4.069   4.687  17.260  0.00  0.00    +0.000 A 
ATOM     19  C   UNL     1       4.812   4.596  16.095  0.00  0.00    +0.000 A 
ATOM     20  N   UNL     1       5.336   5.659  15.449  0.00  0.00    +0.000 NA
ATOM     21  C   UNL     1       5.111   6.868  16.002  0.00  0.00    +0.000 A 
ATOM     22  C   UNL     1       4.388   7.060  17.167  0.00  0.00    +0.000 A 
ENDBRANCH  13  17
ENDBRANCH   5   7
BRANCH   1  23
ATOM     23  N   UNL     1      -2.445  12.018  17.518  0.00  0.00    +0.000 N 
ATOM     24  H   UNL     1      -2.414  12.323  16.550  0.00  0.00    +0.000 HD
ATOM     25  H   UNL     1      -3.144  12.524  18.054  0.00  0.00    +0.000 HD
ENDBRANCH   1  23
BRANCH   3  26
ATOM     26  N   UNL     1       1.987  13.891  18.396  0.00  0.00    +0.000 N 
ATOM     27  H   UNL     1       2.207  14.196  17.448  0.00  0.00    +0.000 HD
BRANCH  26  28
ATOM     28  S   UNL     1       1.937  15.186  19.477  0.00  0.00    +0.000 S 
ATOM     29  O   UNL     1       0.999  14.798  20.515  0.00  0.00    +0.000 OA
ATOM     30  O   UNL     1       3.277  15.627  19.792  0.00  0.00    +0.000 OA
BRANCH  28  31
ATOM     31  C   UNL     1       1.133  16.453  18.519  0.00  0.00    +0.000 A 
ATOM     32  C   UNL     1       1.904  17.226  17.643  0.00  0.00    +0.000 A 
ATOM     33  C   UNL     1       1.298  18.229  16.885  0.00  0.00    +0.000 A 
ATOM     34  C   UNL     1      -0.076  18.449  16.991  0.00  0.00    +0.000 A 
ATOM     35  C   UNL     1      -0.850  17.650  17.835  0.00  0.00    +0.000 A 
ATOM     36  C   UNL     1      -0.251  16.647  18.602  0.00  0.00    +0.000 A 
ENDBRANCH  28  31
ENDBRANCH  26  28
ENDBRANCH   3  26
TORSDOF 6
ENDMDL
MODEL 9
REMARK VINA RESULT:      -8.4      3.635     10.134
REMARK  Name = 
REMARK  6 active torsions:
REMARK  status: ('A' for Active; 'I' for Inactive)
REMARK    1  A    between atoms: N_1  and  C_2
REMARK    2  A    between atoms: C_4  and  N_5
REMARK    3  A    between atoms: N_5  and  S_6
REMARK    4  A    between atoms: S_6  and  C_9
REMARK    5  A    between atoms: C_16  and  C_17
REMARK    6  A    between atoms: C_23  and  C_24
REMARK                            x       y       z     vdW  Elec       q    Type
REMARK                         _______ _______ _______ _____ _____    ______ ____
ROOT
ATOM      1  C   UNL     1       2.297   3.898  20.365  0.00  0.00    +0.000 A 
ATOM      2  C   UNL     1       3.546   3.392  19.991  0.00  0.00    +0.000 A 
ATOM      3  C   UNL     1       4.413   4.165  19.220  0.00  0.00    +0.000 A 
ATOM      4  C   UNL     1       4.055   5.455  18.852  0.00  0.00    +0.000 A 
ATOM      5  C   UNL     1       2.824   6.015  19.244  0.00  0.00    +0.000 A 
ATOM      6  C   UNL     1       1.969   5.216  20.019  0.00  0.00    +0.000 A 
ENDROOT
BRANCH   5   7
ATOM      7  C   UNL     1       2.469   7.396  18.858  0.00  0.00    +0.000 A 
ATOM      8  C   UNL     1       2.847   7.980  17.642  0.00  0.00    +0.000 A 
ATOM      9  N   UNL     1       2.539   9.229  17.200  0.00  0.00    +0.000 NA
ATOM     10  C   UNL     1       1.778   9.912  18.073  0.00  0.00    +0.000 A 
ATOM     11  N   UNL     1       1.299  11.172  17.862  0.00  0.00    +0.000 N 
ATOM     12  C   UNL     1       0.548  11.569  18.940  0.00  0.00    +0.000 A 
ATOM     13  C   UNL     1       0.555  10.550  19.877  0.00  0.00    +0.000 A 
ATOM     14  C   UNL     1       1.330   9.490  19.316  0.00  0.00    +0.000 A 
ATOM     15  C   UNL     1       1.698   8.196  19.713  0.00  0.00    +0.000 A 
ATOM     16  H   UNL     1       1.479  11.705  17.024  0.00  0.00    +0.000 HD
BRANCH  13  17
ATOM     17  C   UNL     1      -0.127  10.626  21.164  0.00  0.00    +0.000 A 
ATOM     18  C   UNL     1      -1.026  11.657  21.437  0.00  0.00    +0.000 A 
ATOM     19  C   UNL     1      -1.637  11.692  22.680  0.00  0.00    +0.000 A 
ATOM     20  N   UNL     1      -1.427  10.778  23.650  0.00  0.00    +0.000 NA
ATOM     21  C   UNL     1      -0.557   9.788  23.365  0.00  0.00    +0.000 A 
ATOM     22  C   UNL     1       0.108   9.672  22.156  0.00  0.00    +0.000 A 
ENDBRANCH  13  17
ENDBRANCH   5   7
BRANCH   1  23
ATOM     23  N   UNL     1       1.487   3.203  21.271  0.00  0.00    +0.000 N 
ATOM     24  H   UNL     1       0.606   2.882  20.881  0.00  0.00    +0.000 HD
ATOM     25  H   UNL     1       1.359   3.673  22.162  0.00  0.00    +0.000 HD
ENDBRANCH   1  23
BRANCH   3  26
ATOM     26  N   UNL     1       5.708   3.694  18.851  0.00  0.00    +0.000 N 
ATOM     27  H   UNL     1       5.744   2.777  18.407  0.00  0.00    +0.000 HD
BRANCH  26  28
ATOM     28  S   UNL     1       6.813   4.769  18.164  0.00  0.00    +0.000 S 
ATOM     29  O   UNL     1       6.317   6.097  18.477  0.00  0.00    +0.000 OA
ATOM     30  O   UNL     1       8.165   4.371  18.482  0.00  0.00    +0.000 OA
BRANCH  28  31
ATOM     31  C   UNL     1       6.544   4.530  16.420  0.00  0.00    +0.000 A 
ATOM     32  C   UNL     1       5.401   3.836  16.005  0.00  0.00    +0.000 A 
ATOM     33  C   UNL     1       5.171   3.630  14.644  0.00  0.00    +0.000 A 
ATOM     34  C   UNL     1       6.071   4.128  13.702  0.00  0.00    +0.000 A 
ATOM     35  C   UNL     1       7.190   4.853  14.115  0.00  0.00    +0.000 A 
ATOM     36  C   UNL     1       7.432   5.060  15.477  0.00  0.00    +0.000 A 
ENDBRANCH  28  31
ENDBRANCH  26  28
ENDBRANCH   3  26
TORSDOF 6
ENDMDL
