MODEL 1
REMARK VINA RESULT:      -7.6      0.000      0.000
REMARK  Name = 
REMARK  14 active torsions:
REMARK  status: ('A' for Active; 'I' for Inactive)
REMARK    1  A    between atoms: C_1  and  O_2
REMARK    2  A    between atoms: O_2  and  C_3
REMARK    3  A    between atoms: C_3  and  C_5
REMARK    4  A    between atoms: C_6  and  C_7
REMARK    5  A    between atoms: C_9  and  C_10
REMARK    6  A    between atoms: C_11  and  C_12
REMARK    7  A    between atoms: C_12  and  O_14
REMARK    8  A    between atoms: O_14  and  C_15
REMARK    9  A    between atoms: C_15  and  C_16
REMARK   10  A    between atoms: C_15  and  C_17
REMARK   11  A    between atoms: C_15  and  C_18
REMARK   12  A    between atoms: C_19  and  C_20
REMARK   13  A    between atoms: C_23  and  O_24
REMARK   14  A    between atoms: O_24  and  C_25
REMARK                            x       y       z     vdW  Elec       q    Type
REMARK                         _______ _______ _______ _____ _____    ______ ____
ROOT
ATOM      1  C   UNL     1       3.766   4.038  18.382  0.00  0.00    +0.000 C 
ATOM      2  C   UNL     1       4.520   3.523  19.386  0.00  0.00    +0.000 C 
ATOM      3  C   UNL     1       4.234   2.299  20.222  0.00  0.00    +0.000 C 
ATOM      4  N   UNL     1       5.714   4.147  19.719  0.00  0.00    +0.000 N 
ATOM      5  C   UNL     1       6.359   5.073  18.918  0.00  0.00    +0.000 C 
ATOM      6  C   UNL     1       7.784   5.379  19.314  0.00  0.00    +0.000 C 
ATOM      7  C   UNL     1       5.698   5.641  17.878  0.00  0.00    +0.000 C 
ATOM      8  C   UNL     1       4.213   5.337  17.676  0.00  0.00    +0.000 C 
ATOM      9  H   UNL     1       6.270   3.707  20.449  0.00  0.00    +0.000 HD
ENDROOT
BRANCH   8  10
ATOM     10  C   UNL     1       3.365   6.518  18.177  0.00  0.00    +0.000 A 
ATOM     11  C   UNL     1       2.899   6.573  19.497  0.00  0.00    +0.000 A 
ATOM     12  C   UNL     1       2.097   7.641  19.919  0.00  0.00    +0.000 A 
ATOM     13  C   UNL     1       1.768   8.680  19.045  0.00  0.00    +0.000 A 
ATOM     14  C   UNL     1       2.231   8.639  17.733  0.00  0.00    +0.000 A 
ATOM     15  C   UNL     1       3.027   7.574  17.309  0.00  0.00    +0.000 A 
BRANCH  13  16
ATOM     16  O   UNL     1       0.958   9.656  19.559  0.00  0.00    +0.000 OA
ATOM     17  C   UNL     1       0.494   9.429  20.886  0.00  0.00    +0.000 C 
ENDBRANCH  13  16
ENDBRANCH   8  10
BRANCH   1  18
ATOM     18  C   UNL     1       2.486   3.416  17.936  0.00  0.00    +0.000 C 
ATOM     19  O   UNL     1       2.333   2.755  16.920  0.00  0.00    +0.000 OA
BRANCH  18  21
ATOM     20  C   UNL     1       0.700   2.593  19.208  0.00  0.00    +0.000 C 
ATOM     21  O   UNL     1       1.495   3.713  18.816  0.00  0.00    +0.000 OA
ENDBRANCH  18  21
ENDBRANCH   1  18
BRANCH   7  22
ATOM     22  C   UNL     1       6.427   6.554  16.955  0.00  0.00    +0.000 C 
ATOM     23  O   UNL     1       6.305   7.767  17.018  0.00  0.00    +0.000 OA
BRANCH  22  24
ATOM     24  O   UNL     1       7.241   5.921  16.058  0.00  0.00    +0.000 OA
BRANCH  24  25
ATOM     25  C   UNL     1       6.578   5.160  14.998  0.00  0.00    +0.000 C 
ATOM     26  C   UNL     1       5.251   5.818  14.570  0.00  0.00    +0.000 C 
ATOM     27  C   UNL     1       7.512   5.148  13.774  0.00  0.00    +0.000 C 
ATOM     28  C   UNL     1       6.368   3.694  15.417  0.00  0.00    +0.000 C 
ENDBRANCH  24  25
ENDBRANCH  22  24
ENDBRANCH   7  22
TORSDOF 7
ENDMDL
MODEL 2
REMARK VINA RESULT:      -7.5      0.464      1.344
REMARK  Name = 
REMARK  14 active torsions:
REMARK  status: ('A' for Active; 'I' for Inactive)
REMARK    1  A    between atoms: C_1  and  O_2
REMARK    2  A    between atoms: O_2  and  C_3
REMARK    3  A    between atoms: C_3  and  C_5
REMARK    4  A    between atoms: C_6  and  C_7
REMARK    5  A    between atoms: C_9  and  C_10
REMARK    6  A    between atoms: C_11  and  C_12
REMARK    7  A    between atoms: C_12  and  O_14
REMARK    8  A    between atoms: O_14  and  C_15
REMARK    9  A    between atoms: C_15  and  C_16
REMARK   10  A    between atoms: C_15  and  C_17
REMARK   11  A    between atoms: C_15  and  C_18
REMARK   12  A    between atoms: C_19  and  C_20
REMARK   13  A    between atoms: C_23  and  O_24
REMARK   14  A    between atoms: O_24  and  C_25
REMARK                            x       y       z     vdW  Elec       q    Type
REMARK                         _______ _______ _______ _____ _____    ______ ____
ROOT
ATOM      1  C   UNL     1       3.754   4.030  18.360  0.00  0.00    +0.000 C 
ATOM      2  C   UNL     1       4.498   3.530  19.380  0.00  0.00    +0.000 C 
ATOM      3  C   UNL     1       4.212   2.308  20.219  0.00  0.00    +0.000 C 
ATOM      4  N   UNL     1       5.680   4.169  19.727  0.00  0.00    +0.000 N 
ATOM      5  C   UNL     1       6.327   5.096  18.931  0.00  0.00    +0.000 C 
ATOM      6  C   UNL     1       7.742   5.421  19.347  0.00  0.00    +0.000 C 
ATOM      7  C   UNL     1       5.677   5.651  17.877  0.00  0.00    +0.000 C 
ATOM      8  C   UNL     1       4.198   5.330  17.653  0.00  0.00    +0.000 C 
ATOM      9  H   UNL     1       6.228   3.739  20.468  0.00  0.00    +0.000 HD
ENDROOT
BRANCH   8  10
ATOM     10  C   UNL     1       3.330   6.505  18.133  0.00  0.00    +0.000 A 
ATOM     11  C   UNL     1       3.004   7.566  17.280  0.00  0.00    +0.000 A 
ATOM     12  C   UNL     1       2.243   8.644  17.751  0.00  0.00    +0.000 A 
ATOM     13  C   UNL     1       1.776   8.670  19.068  0.00  0.00    +0.000 A 
ATOM     14  C   UNL     1       2.089   7.618  19.923  0.00  0.00    +0.000 A 
ATOM     15  C   UNL     1       2.850   6.545  19.456  0.00  0.00    +0.000 A 
BRANCH  13  16
ATOM     16  O   UNL     1       1.065   9.783  19.425  0.00  0.00    +0.000 OA
ATOM     17  C   UNL     1       0.060  10.189  18.500  0.00  0.00    +0.000 C 
ENDBRANCH  13  16
ENDBRANCH   8  10
BRANCH   1  18
ATOM     18  C   UNL     1       2.488   3.392  17.899  0.00  0.00    +0.000 C 
ATOM     19  O   UNL     1       2.311   2.871  16.808  0.00  0.00    +0.000 OA
BRANCH  18  21
ATOM     20  C   UNL     1       0.661   2.370  18.950  0.00  0.00    +0.000 C 
ATOM     21  O   UNL     1       1.538   3.495  18.865  0.00  0.00    +0.000 OA
ENDBRANCH  18  21
ENDBRANCH   1  18
BRANCH   7  22
ATOM     22  C   UNL     1       6.411   6.565  16.959  0.00  0.00    +0.000 C 
ATOM     23  O   UNL     1       6.259   7.776  16.998  0.00  0.00    +0.000 OA
BRANCH  22  24
ATOM     24  O   UNL     1       7.265   5.938  16.097  0.00  0.00    +0.000 OA
BRANCH  24  25
ATOM     25  C   UNL     1       6.651   5.171  15.012  0.00  0.00    +0.000 C 
ATOM     26  C   UNL     1       6.341   3.723  15.443  0.00  0.00    +0.000 C 
ATOM     27  C   UNL     1       5.317   5.850  14.654  0.00  0.00    +0.000 C 
ATOM     28  C   UNL     1       7.525   5.203  13.746  0.00  0.00    +0.000 C 
ENDBRANCH  24  25
ENDBRANCH  22  24
ENDBRANCH   7  22
TORSDOF 7
ENDMDL
MODEL 3
REMARK VINA RESULT:      -7.4      0.953      1.205
REMARK  Name = 
REMARK  14 active torsions:
REMARK  status: ('A' for Active; 'I' for Inactive)
REMARK    1  A    between atoms: C_1  and  O_2
REMARK    2  A    between atoms: O_2  and  C_3
REMARK    3  A    between atoms: C_3  and  C_5
REMARK    4  A    between atoms: C_6  and  C_7
REMARK    5  A    between atoms: C_9  and  C_10
REMARK    6  A    between atoms: C_11  and  C_12
REMARK    7  A    between atoms: C_12  and  O_14
REMARK    8  A    between atoms: O_14  and  C_15
REMARK    9  A    between atoms: C_15  and  C_16
REMARK   10  A    between atoms: C_15  and  C_17
REMARK   11  A    between atoms: C_15  and  C_18
REMARK   12  A    between atoms: C_19  and  C_20
REMARK   13  A    between atoms: C_23  and  O_24
REMARK   14  A    between atoms: O_24  and  C_25
REMARK                            x       y       z     vdW  Elec       q    Type
REMARK                         _______ _______ _______ _____ _____    ______ ____
ROOT
ATOM      1  C   UNL     1       3.390   3.811  18.536  0.00  0.00    +0.000 C 
ATOM      2  C   UNL     1       4.393   3.352  19.328  0.00  0.00    +0.000 C 
ATOM      3  C   UNL     1       4.344   2.208  20.310  0.00  0.00    +0.000 C 
ATOM      4  N   UNL     1       5.638   3.961  19.257  0.00  0.00    +0.000 N 
ATOM      5  C   UNL     1       6.038   4.800  18.232  0.00  0.00    +0.000 C 
ATOM      6  C   UNL     1       7.520   5.090  18.184  0.00  0.00    +0.000 C 
ATOM      7  C   UNL     1       5.115   5.306  17.376  0.00  0.00    +0.000 C 
ATOM      8  C   UNL     1       3.631   5.035  17.626  0.00  0.00    +0.000 C 
ATOM      9  H   UNL     1       6.374   3.562  19.836  0.00  0.00    +0.000 HD
ENDROOT
BRANCH   8  10
ATOM     10  C   UNL     1       2.970   6.279  18.243  0.00  0.00    +0.000 A 
ATOM     11  C   UNL     1       2.730   6.369  19.620  0.00  0.00    +0.000 A 
ATOM     12  C   UNL     1       2.093   7.496  20.154  0.00  0.00    +0.000 A 
ATOM     13  C   UNL     1       1.708   8.559  19.333  0.00  0.00    +0.000 A 
ATOM     14  C   UNL     1       1.947   8.483  17.964  0.00  0.00    +0.000 A 
ATOM     15  C   UNL     1       2.579   7.359  17.429  0.00  0.00    +0.000 A 
BRANCH  13  16
ATOM     16  O   UNL     1       1.071   9.595  19.959  0.00  0.00    +0.000 OA
ATOM     17  C   UNL     1       0.876   9.435  21.361  0.00  0.00    +0.000 C 
ENDBRANCH  13  16
ENDBRANCH   8  10
BRANCH   1  18
ATOM     18  C   UNL     1       2.031   3.198  18.523  0.00  0.00    +0.000 C 
ATOM     19  O   UNL     1       1.664   2.298  17.781  0.00  0.00    +0.000 OA
BRANCH  18  21
ATOM     20  C   UNL     1       0.947   3.001  20.590  0.00  0.00    +0.000 C 
ATOM     21  O   UNL     1       1.240   3.804  19.445  0.00  0.00    +0.000 OA
ENDBRANCH  18  21
ENDBRANCH   1  18
BRANCH   7  22
ATOM     22  C   UNL     1       5.562   6.119  16.211  0.00  0.00    +0.000 C 
ATOM     23  O   UNL     1       6.243   7.122  16.349  0.00  0.00    +0.000 OA
BRANCH  22  24
ATOM     24  O   UNL     1       5.159   5.639  14.996  0.00  0.00    +0.000 OA
BRANCH  24  25
ATOM     25  C   UNL     1       5.979   4.579  14.409  0.00  0.00    +0.000 C 
ATOM     26  C   UNL     1       7.454   5.008  14.274  0.00  0.00    +0.000 C 
ATOM     27  C   UNL     1       5.929   3.367  15.357  0.00  0.00    +0.000 C 
ATOM     28  C   UNL     1       5.404   4.116  13.058  0.00  0.00    +0.000 C 
ENDBRANCH  24  25
ENDBRANCH  22  24
ENDBRANCH   7  22
TORSDOF 7
ENDMDL
MODEL 4
REMARK VINA RESULT:      -7.4      0.903      1.464
REMARK  Name = 
REMARK  14 active torsions:
REMARK  status: ('A' for Active; 'I' for Inactive)
REMARK    1  A    between atoms: C_1  and  O_2
REMARK    2  A    between atoms: O_2  and  C_3
REMARK    3  A    between atoms: C_3  and  C_5
REMARK    4  A    between atoms: C_6  and  C_7
REMARK    5  A    between atoms: C_9  and  C_10
REMARK    6  A    between atoms: C_11  and  C_12
REMARK    7  A    between atoms: C_12  and  O_14
REMARK    8  A    between atoms: O_14  and  C_15
REMARK    9  A    between atoms: C_15  and  C_16
REMARK   10  A    between atoms: C_15  and  C_17
REMARK   11  A    between atoms: C_15  and  C_18
REMARK   12  A    between atoms: C_19  and  C_20
REMARK   13  A    between atoms: C_23  and  O_24
REMARK   14  A    between atoms: O_24  and  C_25
REMARK                            x       y       z     vdW  Elec       q    Type
REMARK                         _______ _______ _______ _____ _____    ______ ____
ROOT
ATOM      1  C   UNL     1       3.412   3.833  18.489  0.00  0.00    +0.000 C 
ATOM      2  C   UNL     1       4.402   3.396  19.308  0.00  0.00    +0.000 C 
ATOM      3  C   UNL     1       4.348   2.256  20.296  0.00  0.00    +0.000 C 
ATOM      4  N   UNL     1       5.638   4.026  19.266  0.00  0.00    +0.000 N 
ATOM      5  C   UNL     1       6.049   4.867  18.247  0.00  0.00    +0.000 C 
ATOM      6  C   UNL     1       7.526   5.183  18.235  0.00  0.00    +0.000 C 
ATOM      7  C   UNL     1       5.139   5.352  17.364  0.00  0.00    +0.000 C 
ATOM      8  C   UNL     1       3.654   5.057  17.578  0.00  0.00    +0.000 C 
ATOM      9  H   UNL     1       6.365   3.643  19.865  0.00  0.00    +0.000 HD
ENDROOT
BRANCH   8  10
ATOM     10  C   UNL     1       2.956   6.292  18.172  0.00  0.00    +0.000 A 
ATOM     11  C   UNL     1       2.547   7.358  17.360  0.00  0.00    +0.000 A 
ATOM     12  C   UNL     1       1.948   8.489  17.929  0.00  0.00    +0.000 A 
ATOM     13  C   UNL     1       1.724   8.566  19.306  0.00  0.00    +0.000 A 
ATOM     14  C   UNL     1       2.120   7.509  20.120  0.00  0.00    +0.000 A 
ATOM     15  C   UNL     1       2.721   6.383  19.557  0.00  0.00    +0.000 A 
BRANCH  13  16
ATOM     16  O   UNL     1       1.155   9.727  19.753  0.00  0.00    +0.000 OA
ATOM     17  C   UNL     1       0.728   9.715  21.112  0.00  0.00    +0.000 C 
ENDBRANCH  13  16
ENDBRANCH   8  10
BRANCH   1  18
ATOM     18  C   UNL     1       2.064   3.197  18.444  0.00  0.00    +0.000 C 
ATOM     19  O   UNL     1       1.737   2.277  17.709  0.00  0.00    +0.000 OA
BRANCH  18  21
ATOM     20  C   UNL     1       0.932   3.028  20.488  0.00  0.00    +0.000 C 
ATOM     21  O   UNL     1       1.233   3.807  19.329  0.00  0.00    +0.000 OA
ENDBRANCH  18  21
ENDBRANCH   1  18
BRANCH   7  22
ATOM     22  C   UNL     1       5.601   6.167  16.206  0.00  0.00    +0.000 C 
ATOM     23  O   UNL     1       6.274   7.174  16.355  0.00  0.00    +0.000 OA
BRANCH  22  24
ATOM     24  O   UNL     1       5.223   5.683  14.986  0.00  0.00    +0.000 OA
BRANCH  24  25
ATOM     25  C   UNL     1       6.038   4.603  14.430  0.00  0.00    +0.000 C 
ATOM     26  C   UNL     1       6.078   3.379  15.367  0.00  0.00    +0.000 C 
ATOM     27  C   UNL     1       5.390   4.159  13.106  0.00  0.00    +0.000 C 
ATOM     28  C   UNL     1       7.457   5.096  14.092  0.00  0.00    +0.000 C 
ENDBRANCH  24  25
ENDBRANCH  22  24
ENDBRANCH   7  22
TORSDOF 7
ENDMDL
MODEL 5
REMARK VINA RESULT:      -7.3      1.062      1.431
REMARK  Name = 
REMARK  14 active torsions:
REMARK  status: ('A' for Active; 'I' for Inactive)
REMARK    1  A    between atoms: C_1  and  O_2
REMARK    2  A    between atoms: O_2  and  C_3
REMARK    3  A    between atoms: C_3  and  C_5
REMARK    4  A    between atoms: C_6  and  C_7
REMARK    5  A    between atoms: C_9  and  C_10
REMARK    6  A    between atoms: C_11  and  C_12
REMARK    7  A    between atoms: C_12  and  O_14
REMARK    8  A    between atoms: O_14  and  C_15
REMARK    9  A    between atoms: C_15  and  C_16
REMARK   10  A    between atoms: C_15  and  C_17
REMARK   11  A    between atoms: C_15  and  C_18
REMARK   12  A    between atoms: C_19  and  C_20
REMARK   13  A    between atoms: C_23  and  O_24
REMARK   14  A    between atoms: O_24  and  C_25
REMARK                            x       y       z     vdW  Elec       q    Type
REMARK                         _______ _______ _______ _____ _____    ______ ____
ROOT
ATOM      1  C   UNL     1       3.036   4.255  18.873  0.00  0.00    +0.000 C 
ATOM      2  C   UNL     1       3.981   3.808  19.740  0.00  0.00    +0.000 C 
ATOM      3  C   UNL     1       3.843   2.720  20.776  0.00  0.00    +0.000 C 
ATOM      4  N   UNL     1       5.248   4.373  19.704  0.00  0.00    +0.000 N 
ATOM      5  C   UNL     1       5.728   5.144  18.660  0.00  0.00    +0.000 C 
ATOM      6  C   UNL     1       7.219   5.384  18.676  0.00  0.00    +0.000 C 
ATOM      7  C   UNL     1       4.868   5.632  17.731  0.00  0.00    +0.000 C 
ATOM      8  C   UNL     1       3.365   5.422  17.916  0.00  0.00    +0.000 C 
ATOM      9  H   UNL     1       5.939   3.982  20.340  0.00  0.00    +0.000 HD
ENDROOT
BRANCH   8  10
ATOM     10  C   UNL     1       2.716   6.717  18.433  0.00  0.00    +0.000 A 
ATOM     11  C   UNL     1       2.403   6.884  19.788  0.00  0.00    +0.000 A 
ATOM     12  C   UNL     1       1.778   8.058  20.228  0.00  0.00    +0.000 A 
ATOM     13  C   UNL     1       1.478   9.090  19.335  0.00  0.00    +0.000 A 
ATOM     14  C   UNL     1       1.791   8.936  17.988  0.00  0.00    +0.000 A 
ATOM     15  C   UNL     1       2.410   7.767  17.546  0.00  0.00    +0.000 A 
BRANCH  13  16
ATOM     16  O   UNL     1       0.845  10.177  19.872  0.00  0.00    +0.000 OA
ATOM     17  C   UNL     1      -0.506  10.363  19.460  0.00  0.00    +0.000 C 
ENDBRANCH  13  16
ENDBRANCH   8  10
BRANCH   1  18
ATOM     18  C   UNL     1       1.660   3.686  18.820  0.00  0.00    +0.000 C 
ATOM     19  O   UNL     1       0.803   3.816  19.682  0.00  0.00    +0.000 OA
BRANCH  18  21
ATOM     20  C   UNL     1       2.489   1.966  17.463  0.00  0.00    +0.000 C 
ATOM     21  O   UNL     1       1.497   2.972  17.676  0.00  0.00    +0.000 OA
ENDBRANCH  18  21
ENDBRANCH   1  18
BRANCH   7  22
ATOM     22  C   UNL     1       5.401   6.368  16.551  0.00  0.00    +0.000 C 
ATOM     23  O   UNL     1       6.057   7.390  16.672  0.00  0.00    +0.000 OA
BRANCH  22  24
ATOM     24  O   UNL     1       5.107   5.796  15.346  0.00  0.00    +0.000 OA
BRANCH  24  25
ATOM     25  C   UNL     1       5.914   4.638  14.958  0.00  0.00    +0.000 C 
ATOM     26  C   UNL     1       5.601   3.407  15.832  0.00  0.00    +0.000 C 
ATOM     27  C   UNL     1       5.557   4.284  13.503  0.00  0.00    +0.000 C 
ATOM     28  C   UNL     1       7.416   4.976  14.982  0.00  0.00    +0.000 C 
ENDBRANCH  24  25
ENDBRANCH  22  24
ENDBRANCH   7  22
TORSDOF 7
ENDMDL
MODEL 6
REMARK VINA RESULT:      -7.1      1.105      1.633
REMARK  Name = 
REMARK  14 active torsions:
REMARK  status: ('A' for Active; 'I' for Inactive)
REMARK    1  A    between atoms: C_1  and  O_2
REMARK    2  A    between atoms: O_2  and  C_3
REMARK    3  A    between atoms: C_3  and  C_5
REMARK    4  A    between atoms: C_6  and  C_7
REMARK    5  A    between atoms: C_9  and  C_10
REMARK    6  A    between atoms: C_11  and  C_12
REMARK    7  A    between atoms: C_12  and  O_14
REMARK    8  A    between atoms: O_14  and  C_15
REMARK    9  A    between atoms: C_15  and  C_16
REMARK   10  A    between atoms: C_15  and  C_17
REMARK   11  A    between atoms: C_15  and  C_18
REMARK   12  A    between atoms: C_19  and  C_20
REMARK   13  A    between atoms: C_23  and  O_24
REMARK   14  A    between atoms: O_24  and  C_25
REMARK                            x       y       z     vdW  Elec       q    Type
REMARK                         _______ _______ _______ _____ _____    ______ ____
ROOT
ATOM      1  C   UNL     1       3.042   4.255  18.876  0.00  0.00    +0.000 C 
ATOM      2  C   UNL     1       3.974   3.817  19.761  0.00  0.00    +0.000 C 
ATOM      3  C   UNL     1       3.826   2.728  20.795  0.00  0.00    +0.000 C 
ATOM      4  N   UNL     1       5.236   4.395  19.750  0.00  0.00    +0.000 N 
ATOM      5  C   UNL     1       5.729   5.170  18.715  0.00  0.00    +0.000 C 
ATOM      6  C   UNL     1       7.216   5.425  18.760  0.00  0.00    +0.000 C 
ATOM      7  C   UNL     1       4.882   5.649  17.768  0.00  0.00    +0.000 C 
ATOM      8  C   UNL     1       3.378   5.424  17.924  0.00  0.00    +0.000 C 
ATOM      9  H   UNL     1       5.917   4.012  20.400  0.00  0.00    +0.000 HD
ENDROOT
BRANCH   8  10
ATOM     10  C   UNL     1       2.706   6.713  18.427  0.00  0.00    +0.000 A 
ATOM     11  C   UNL     1       2.436   7.780  17.560  0.00  0.00    +0.000 A 
ATOM     12  C   UNL     1       1.858   8.958  18.050  0.00  0.00    +0.000 A 
ATOM     13  C   UNL     1       1.517   9.083  19.399  0.00  0.00    +0.000 A 
ATOM     14  C   UNL     1       1.774   8.026  20.267  0.00  0.00    +0.000 A 
ATOM     15  C   UNL     1       2.354   6.852  19.782  0.00  0.00    +0.000 A 
BRANCH  13  16
ATOM     16  O   UNL     1       0.982  10.286  19.769  0.00  0.00    +0.000 OA
ATOM     17  C   UNL     1       0.159  10.916  18.791  0.00  0.00    +0.000 C 
ENDBRANCH  13  16
ENDBRANCH   8  10
BRANCH   1  18
ATOM     18  C   UNL     1       1.672   3.671  18.795  0.00  0.00    +0.000 C 
ATOM     19  O   UNL     1       0.808   3.766  19.655  0.00  0.00    +0.000 OA
BRANCH  18  21
ATOM     20  C   UNL     1       2.470   1.935  17.441  0.00  0.00    +0.000 C 
ATOM     21  O   UNL     1       1.526   2.990  17.630  0.00  0.00    +0.000 OA
ENDBRANCH  18  21
ENDBRANCH   1  18
BRANCH   7  22
ATOM     22  C   UNL     1       5.431   6.389  16.599  0.00  0.00    +0.000 C 
ATOM     23  O   UNL     1       6.121   7.387  16.733  0.00  0.00    +0.000 OA
BRANCH  22  24
ATOM     24  O   UNL     1       5.109   5.850  15.385  0.00  0.00    +0.000 OA
BRANCH  24  25
ATOM     25  C   UNL     1       5.863   4.664  14.977  0.00  0.00    +0.000 C 
ATOM     26  C   UNL     1       5.576   4.283  13.511  0.00  0.00    +0.000 C 
ATOM     27  C   UNL     1       7.361   4.998  15.090  0.00  0.00    +0.000 C 
ATOM     28  C   UNL     1       5.594   3.482  15.926  0.00  0.00    +0.000 C 
ENDBRANCH  24  25
ENDBRANCH  22  24
ENDBRANCH   7  22
TORSDOF 7
ENDMDL
MODEL 7
REMARK VINA RESULT:      -6.6      1.113      1.679
REMARK  Name = 
REMARK  14 active torsions:
REMARK  status: ('A' for Active; 'I' for Inactive)
REMARK    1  A    between atoms: C_1  and  O_2
REMARK    2  A    between atoms: O_2  and  C_3
REMARK    3  A    between atoms: C_3  and  C_5
REMARK    4  A    between atoms: C_6  and  C_7
REMARK    5  A    between atoms: C_9  and  C_10
REMARK    6  A    between atoms: C_11  and  C_12
REMARK    7  A    between atoms: C_12  and  O_14
REMARK    8  A    between atoms: O_14  and  C_15
REMARK    9  A    between atoms: C_15  and  C_16
REMARK   10  A    between atoms: C_15  and  C_17
REMARK   11  A    between atoms: C_15  and  C_18
REMARK   12  A    between atoms: C_19  and  C_20
REMARK   13  A    between atoms: C_23  and  O_24
REMARK   14  A    between atoms: O_24  and  C_25
REMARK                            x       y       z     vdW  Elec       q    Type
REMARK                         _______ _______ _______ _____ _____    ______ ____
ROOT
ATOM      1  C   UNL     1       2.915   4.479  18.616  0.00  0.00    +0.000 C 
ATOM      2  C   UNL     1       3.658   3.956  19.625  0.00  0.00    +0.000 C 
ATOM      3  C   UNL     1       3.300   2.807  20.535  0.00  0.00    +0.000 C 
ATOM      4  N   UNL     1       4.911   4.493  19.886  0.00  0.00    +0.000 N 
ATOM      5  C   UNL     1       5.602   5.317  19.016  0.00  0.00    +0.000 C 
ATOM      6  C   UNL     1       7.060   5.522  19.351  0.00  0.00    +0.000 C 
ATOM      7  C   UNL     1       4.955   5.883  17.966  0.00  0.00    +0.000 C 
ATOM      8  C   UNL     1       3.444   5.696  17.825  0.00  0.00    +0.000 C 
ATOM      9  H   UNL     1       5.452   4.046  20.622  0.00  0.00    +0.000 HD
ENDROOT
BRANCH   8  10
ATOM     10  C   UNL     1       2.715   6.970  18.285  0.00  0.00    +0.000 A 
ATOM     11  C   UNL     1       2.413   8.001  17.386  0.00  0.00    +0.000 A 
ATOM     12  C   UNL     1       1.783   9.168  17.837  0.00  0.00    +0.000 A 
ATOM     13  C   UNL     1       1.421   9.317  19.178  0.00  0.00    +0.000 A 
ATOM     14  C   UNL     1       1.711   8.295  20.078  0.00  0.00    +0.000 A 
ATOM     15  C   UNL     1       2.342   7.133  19.633  0.00  0.00    +0.000 A 
BRANCH  13  16
ATOM     16  O   UNL     1       0.834  10.507  19.508  0.00  0.00    +0.000 OA
ATOM     17  C   UNL     1       1.462  11.668  18.971  0.00  0.00    +0.000 C 
ENDBRANCH  13  16
ENDBRANCH   8  10
BRANCH   1  18
ATOM     18  C   UNL     1       1.573   3.946  18.245  0.00  0.00    +0.000 C 
ATOM     19  O   UNL     1       1.038   4.065  17.152  0.00  0.00    +0.000 OA
BRANCH  18  21
ATOM     20  C   UNL     1       0.441   2.046  19.016  0.00  0.00    +0.000 C 
ATOM     21  O   UNL     1       1.009   3.323  19.312  0.00  0.00    +0.000 OA
ENDBRANCH  18  21
ENDBRANCH   1  18
BRANCH   7  22
ATOM     22  C   UNL     1       5.726   6.680  16.971  0.00  0.00    +0.000 C 
ATOM     23  O   UNL     1       6.425   7.623  17.304  0.00  0.00    +0.000 OA
BRANCH  22  24
ATOM     24  O   UNL     1       5.592   6.256  15.679  0.00  0.00    +0.000 OA
BRANCH  24  25
ATOM     25  C   UNL     1       6.242   4.990  15.336  0.00  0.00    +0.000 C 
ATOM     26  C   UNL     1       7.425   4.685  16.277  0.00  0.00    +0.000 C 
ATOM     27  C   UNL     1       5.203   3.868  15.510  0.00  0.00    +0.000 C 
ATOM     28  C   UNL     1       6.679   4.973  13.861  0.00  0.00    +0.000 C 
ENDBRANCH  24  25
ENDBRANCH  22  24
ENDBRANCH   7  22
TORSDOF 7
ENDMDL
MODEL 8
REMARK VINA RESULT:      -6.3      1.731      5.742
REMARK  Name = 
REMARK  14 active torsions:
REMARK  status: ('A' for Active; 'I' for Inactive)
REMARK    1  A    between atoms: C_1  and  O_2
REMARK    2  A    between atoms: O_2  and  C_3
REMARK    3  A    between atoms: C_3  and  C_5
REMARK    4  A    between atoms: C_6  and  C_7
REMARK    5  A    between atoms: C_9  and  C_10
REMARK    6  A    between atoms: C_11  and  C_12
REMARK    7  A    between atoms: C_12  and  O_14
REMARK    8  A    between atoms: O_14  and  C_15
REMARK    9  A    between atoms: C_15  and  C_16
REMARK   10  A    between atoms: C_15  and  C_17
REMARK   11  A    between atoms: C_15  and  C_18
REMARK   12  A    between atoms: C_19  and  C_20
REMARK   13  A    between atoms: C_23  and  O_24
REMARK   14  A    between atoms: O_24  and  C_25
REMARK                            x       y       z     vdW  Elec       q    Type
REMARK                         _______ _______ _______ _____ _____    ______ ____
ROOT
ATOM      1  C   UNL     1       1.928   7.832  18.974  0.00  0.00    +0.000 C 
ATOM      2  C   UNL     1       1.867   7.799  20.330  0.00  0.00    +0.000 C 
ATOM      3  C   UNL     1       1.672   8.960  21.274  0.00  0.00    +0.000 C 
ATOM      4  N   UNL     1       1.979   6.577  20.979  0.00  0.00    +0.000 N 
ATOM      5  C   UNL     1       1.842   5.349  20.357  0.00  0.00    +0.000 C 
ATOM      6  C   UNL     1       1.680   4.173  21.290  0.00  0.00    +0.000 C 
ATOM      7  C   UNL     1       1.877   5.272  19.002  0.00  0.00    +0.000 C 
ATOM      8  C   UNL     1       2.184   6.528  18.186  0.00  0.00    +0.000 C 
ATOM      9  H   UNL     1       1.887   6.590  21.992  0.00  0.00    +0.000 HD
ENDROOT
BRANCH   8  10
ATOM     10  C   UNL     1       3.643   6.493  17.701  0.00  0.00    +0.000 A 
ATOM     11  C   UNL     1       3.972   6.745  16.363  0.00  0.00    +0.000 A 
ATOM     12  C   UNL     1       5.305   6.670  15.939  0.00  0.00    +0.000 A 
ATOM     13  C   UNL     1       6.330   6.368  16.839  0.00  0.00    +0.000 A 
ATOM     14  C   UNL     1       6.013   6.121  18.172  0.00  0.00    +0.000 A 
ATOM     15  C   UNL     1       4.686   6.192  18.597  0.00  0.00    +0.000 A 
BRANCH  13  16
ATOM     16  O   UNL     1       7.588   6.296  16.307  0.00  0.00    +0.000 OA
ATOM     17  C   UNL     1       7.765   5.318  15.287  0.00  0.00    +0.000 C 
ENDBRANCH  13  16
ENDBRANCH   8  10
BRANCH   1  18
ATOM     18  C   UNL     1       1.786   9.094  18.193  0.00  0.00    +0.000 C 
ATOM     19  O   UNL     1       2.674   9.911  17.996  0.00  0.00    +0.000 OA
BRANCH  18  21
ATOM     20  C   UNL     1      -0.243  10.246  18.398  0.00  0.00    +0.000 C 
ATOM     21  O   UNL     1       0.510   9.222  17.745  0.00  0.00    +0.000 OA
ENDBRANCH  18  21
ENDBRANCH   1  18
BRANCH   7  22
ATOM     22  C   UNL     1       1.621   3.966  18.334  0.00  0.00    +0.000 C 
ATOM     23  O   UNL     1       0.964   3.885  17.308  0.00  0.00    +0.000 OA
BRANCH  22  24
ATOM     24  O   UNL     1       2.190   2.890  18.955  0.00  0.00    +0.000 OA
BRANCH  24  25
ATOM     25  C   UNL     1       3.547   2.537  18.536  0.00  0.00    +0.000 C 
ATOM     26  C   UNL     1       4.597   2.984  19.573  0.00  0.00    +0.000 C 
ATOM     27  C   UNL     1       3.620   1.003  18.426  0.00  0.00    +0.000 C 
ATOM     28  C   UNL     1       3.861   3.103  17.139  0.00  0.00    +0.000 C 
ENDBRANCH  24  25
ENDBRANCH  22  24
ENDBRANCH   7  22
TORSDOF 7
ENDMDL
MODEL 9
REMARK VINA RESULT:      -6.3      1.862      5.543
REMARK  Name = 
REMARK  14 active torsions:
REMARK  status: ('A' for Active; 'I' for Inactive)
REMARK    1  A    between atoms: C_1  and  O_2
REMARK    2  A    between atoms: O_2  and  C_3
REMARK    3  A    between atoms: C_3  and  C_5
REMARK    4  A    between atoms: C_6  and  C_7
REMARK    5  A    between atoms: C_9  and  C_10
REMARK    6  A    between atoms: C_11  and  C_12
REMARK    7  A    between atoms: C_12  and  O_14
REMARK    8  A    between atoms: O_14  and  C_15
REMARK    9  A    between atoms: C_15  and  C_16
REMARK   10  A    between atoms: C_15  and  C_17
REMARK   11  A    between atoms: C_15  and  C_18
REMARK   12  A    between atoms: C_19  and  C_20
REMARK   13  A    between atoms: C_23  and  O_24
REMARK   14  A    between atoms: O_24  and  C_25
REMARK                            x       y       z     vdW  Elec       q    Type
REMARK                         _______ _______ _______ _____ _____    ______ ____
ROOT
ATOM      1  C   UNL     1       1.769   7.782  19.097  0.00  0.00    +0.000 C 
ATOM      2  C   UNL     1       1.627   7.688  20.444  0.00  0.00    +0.000 C 
ATOM      3  C   UNL     1       1.313   8.795  21.419  0.00  0.00    +0.000 C 
ATOM      4  N   UNL     1       1.762   6.446  21.049  0.00  0.00    +0.000 N 
ATOM      5  C   UNL     1       1.729   5.241  20.371  0.00  0.00    +0.000 C 
ATOM      6  C   UNL     1       1.571   4.019  21.244  0.00  0.00    +0.000 C 
ATOM      7  C   UNL     1       1.851   5.224  19.019  0.00  0.00    +0.000 C 
ATOM      8  C   UNL     1       2.141   6.528  18.275  0.00  0.00    +0.000 C 
ATOM      9  H   UNL     1       1.608   6.411  22.054  0.00  0.00    +0.000 HD
ENDROOT
BRANCH   8  10
ATOM     10  C   UNL     1       3.627   6.586  17.883  0.00  0.00    +0.000 A 
ATOM     11  C   UNL     1       4.637   6.309  18.813  0.00  0.00    +0.000 A 
ATOM     12  C   UNL     1       5.984   6.405  18.441  0.00  0.00    +0.000 A 
ATOM     13  C   UNL     1       6.346   6.754  17.138  0.00  0.00    +0.000 A 
ATOM     14  C   UNL     1       5.350   7.025  16.205  0.00  0.00    +0.000 A 
ATOM     15  C   UNL     1       4.007   6.933  16.573  0.00  0.00    +0.000 A 
BRANCH  13  16
ATOM     16  O   UNL     1       7.690   6.842  16.896  0.00  0.00    +0.000 OA
ATOM     17  C   UNL     1       8.350   7.945  17.509  0.00  0.00    +0.000 C 
ENDBRANCH  13  16
ENDBRANCH   8  10
BRANCH   1  18
ATOM     18  C   UNL     1       1.610   9.068  18.359  0.00  0.00    +0.000 C 
ATOM     19  O   UNL     1       2.505   9.865  18.119  0.00  0.00    +0.000 OA
BRANCH  18  21
ATOM     20  C   UNL     1      -0.288  10.429  18.536  0.00  0.00    +0.000 C 
ATOM     21  O   UNL     1       0.310   9.244  18.008  0.00  0.00    +0.000 OA
ENDBRANCH  18  21
ENDBRANCH   1  18
BRANCH   7  22
ATOM     22  C   UNL     1       1.705   3.937  18.284  0.00  0.00    +0.000 C 
ATOM     23  O   UNL     1       1.112   3.866  17.219  0.00  0.00    +0.000 OA
BRANCH  22  24
ATOM     24  O   UNL     1       2.298   2.866  18.892  0.00  0.00    +0.000 OA
BRANCH  24  25
ATOM     25  C   UNL     1       3.682   2.583  18.512  0.00  0.00    +0.000 C 
ATOM     26  C   UNL     1       4.676   3.037  19.599  0.00  0.00    +0.000 C 
ATOM     27  C   UNL     1       3.823   1.058  18.354  0.00  0.00    +0.000 C 
ATOM     28  C   UNL     1       4.021   3.209  17.147  0.00  0.00    +0.000 C 
ENDBRANCH  24  25
ENDBRANCH  22  24
ENDBRANCH   7  22
TORSDOF 7
ENDMDL
