MODEL 1
REMARK VINA RESULT:      -7.9      0.000      0.000
REMARK  Name = 
REMARK  3 active torsions:
REMARK  status: ('A' for Active; 'I' for Inactive)
REMARK    1  A    between atoms: S_1  and  C_2
REMARK    2  A    between atoms: C_5  and  C_6
REMARK    3  A    between atoms: N_16  and  C_17
REMARK                            x       y       z     vdW  Elec       q    Type
REMARK                         _______ _______ _______ _____ _____    ______ ____
ROOT
ATOM      1  C   UNL     1       4.429   5.311  17.492  0.00  0.00    +0.000 A 
ATOM      2  N   UNL     1       4.890   6.343  16.829  0.00  0.00    +0.000 NA
ATOM      3  N   UNL     1       4.080   7.408  17.103  0.00  0.00    +0.000 NA
ATOM      4  C   UNL     1       3.148   7.029  17.964  0.00  0.00    +0.000 A 
ATOM      5  N   UNL     1       3.281   5.649  18.189  0.00  0.00    +0.000 N 
ENDROOT
BRANCH   4   6
ATOM      6  C   UNL     1       2.219   7.973  18.616  0.00  0.00    +0.000 A 
ATOM      7  C   UNL     1       1.486   8.928  17.892  0.00  0.00    +0.000 A 
ATOM      8  C   UNL     1       0.671   9.860  18.536  0.00  0.00    +0.000 A 
ATOM      9  C   UNL     1       0.498   9.788  19.911  0.00  0.00    +0.000 A 
ATOM     10  C   UNL     1       1.127   8.774  20.639  0.00  0.00    +0.000 A 
ATOM     11  C   UNL     1       2.007   7.894  20.003  0.00  0.00    +0.000 A 
ATOM     12  O   UNL     1       0.919   8.592  21.984  0.00  0.00    +0.000 OA
ATOM     13  C   UNL     1      -0.286   9.259  22.400  0.00  0.00    +0.000 C 
ATOM     14  C   UNL     1      -0.291  10.692  21.899  0.00  0.00    +0.000 C 
ATOM     15  O   UNL     1      -0.330  10.728  20.469  0.00  0.00    +0.000 OA
ENDBRANCH   4   6
BRANCH   5  16
ATOM     16  C   UNL     1       2.445   4.823  18.994  0.00  0.00    +0.000 A 
ATOM     17  C   UNL     1       2.702   4.704  20.369  0.00  0.00    +0.000 A 
ATOM     18  C   UNL     1       2.042   3.729  21.123  0.00  0.00    +0.000 A 
ATOM     19  C   UNL     1       1.093   2.906  20.522  0.00  0.00    +0.000 A 
ATOM     20  C   UNL     1       0.783   3.070  19.173  0.00  0.00    +0.000 A 
ATOM     21  C   UNL     1       1.457   4.024  18.405  0.00  0.00    +0.000 A 
ENDBRANCH   5  16
BRANCH   1  22
ATOM     22  S   UNL     1       5.110   3.727  17.336  0.00  0.00    +0.000 S 
ATOM     23  H   UNL     1       6.025   4.048  16.408  0.00  0.00    +0.000 HD
ENDBRANCH   1  22
TORSDOF 3
ENDMDL
MODEL 2
REMARK VINA RESULT:      -7.8      1.417      2.284
REMARK  Name = 
REMARK  3 active torsions:
REMARK  status: ('A' for Active; 'I' for Inactive)
REMARK    1  A    between atoms: S_1  and  C_2
REMARK    2  A    between atoms: C_5  and  C_6
REMARK    3  A    between atoms: N_16  and  C_17
REMARK                            x       y       z     vdW  Elec       q    Type
REMARK                         _______ _______ _______ _____ _____    ______ ____
ROOT
ATOM      1  C   UNL     1       5.202   5.156  16.288  0.00  0.00    +0.000 A 
ATOM      2  N   UNL     1       5.508   6.348  15.835  0.00  0.00    +0.000 NA
ATOM      3  N   UNL     1       4.673   7.247  16.436  0.00  0.00    +0.000 NA
ATOM      4  C   UNL     1       3.885   6.602  17.283  0.00  0.00    +0.000 A 
ATOM      5  N   UNL     1       4.134   5.224  17.166  0.00  0.00    +0.000 N 
ENDROOT
BRANCH   4   6
ATOM      6  C   UNL     1       2.989   7.288  18.235  0.00  0.00    +0.000 A 
ATOM      7  C   UNL     1       2.765   6.807  19.536  0.00  0.00    +0.000 A 
ATOM      8  C   UNL     1       1.857   7.429  20.394  0.00  0.00    +0.000 A 
ATOM      9  C   UNL     1       1.228   8.602  19.998  0.00  0.00    +0.000 A 
ATOM     10  C   UNL     1       1.523   9.161  18.752  0.00  0.00    +0.000 A 
ATOM     11  C   UNL     1       2.369   8.493  17.863  0.00  0.00    +0.000 A 
ATOM     12  O   UNL     1       1.009  10.367  18.343  0.00  0.00    +0.000 OA
ATOM     13  C   UNL     1       0.529  11.116  19.474  0.00  0.00    +0.000 C 
ATOM     14  C   UNL     1      -0.374  10.248  20.332  0.00  0.00    +0.000 C 
ATOM     15  O   UNL     1       0.362   9.161  20.901  0.00  0.00    +0.000 OA
ENDBRANCH   4   6
BRANCH   5  16
ATOM     16  C   UNL     1       3.463   4.167  17.846  0.00  0.00    +0.000 A 
ATOM     17  C   UNL     1       2.136   3.856  17.510  0.00  0.00    +0.000 A 
ATOM     18  C   UNL     1       1.395   2.987  18.315  0.00  0.00    +0.000 A 
ATOM     19  C   UNL     1       1.987   2.389  19.425  0.00  0.00    +0.000 A 
ATOM     20  C   UNL     1       3.326   2.639  19.720  0.00  0.00    +0.000 A 
ATOM     21  C   UNL     1       4.066   3.528  18.936  0.00  0.00    +0.000 A 
ENDBRANCH   5  16
BRANCH   1  22
ATOM     22  S   UNL     1       5.958   3.716  15.695  0.00  0.00    +0.000 S 
ATOM     23  H   UNL     1       6.799   4.326  14.847  0.00  0.00    +0.000 HD
ENDBRANCH   1  22
TORSDOF 3
ENDMDL
MODEL 3
REMARK VINA RESULT:      -7.8      0.874      1.957
REMARK  Name = 
REMARK  3 active torsions:
REMARK  status: ('A' for Active; 'I' for Inactive)
REMARK    1  A    between atoms: S_1  and  C_2
REMARK    2  A    between atoms: C_5  and  C_6
REMARK    3  A    between atoms: N_16  and  C_17
REMARK                            x       y       z     vdW  Elec       q    Type
REMARK                         _______ _______ _______ _____ _____    ______ ____
ROOT
ATOM      1  C   UNL     1       4.525   5.237  17.053  0.00  0.00    +0.000 A 
ATOM      2  N   UNL     1       4.883   6.358  16.475  0.00  0.00    +0.000 NA
ATOM      3  N   UNL     1       4.092   7.353  16.976  0.00  0.00    +0.000 NA
ATOM      4  C   UNL     1       3.279   6.840  17.886  0.00  0.00    +0.000 A 
ATOM      5  N   UNL     1       3.465   5.447  17.918  0.00  0.00    +0.000 N 
ENDROOT
BRANCH   4   6
ATOM      6  C   UNL     1       2.419   7.664  18.759  0.00  0.00    +0.000 A 
ATOM      7  C   UNL     1       2.173   7.331  20.101  0.00  0.00    +0.000 A 
ATOM      8  C   UNL     1       1.297   8.083  20.886  0.00  0.00    +0.000 A 
ATOM      9  C   UNL     1       0.728   9.238  20.369  0.00  0.00    +0.000 A 
ATOM     10  C   UNL     1       1.049   9.651  19.074  0.00  0.00    +0.000 A 
ATOM     11  C   UNL     1       1.861   8.854  18.262  0.00  0.00    +0.000 A 
ATOM     12  O   UNL     1       0.596  10.833  18.541  0.00  0.00    +0.000 OA
ATOM     13  C   UNL     1       0.154  11.717  19.586  0.00  0.00    +0.000 C 
ATOM     14  C   UNL     1      -0.789  10.988  20.525  0.00  0.00    +0.000 C 
ATOM     15  O   UNL     1      -0.109   9.930  21.207  0.00  0.00    +0.000 OA
ENDBRANCH   4   6
BRANCH   5  16
ATOM     16  C   UNL     1       2.749   4.501  18.706  0.00  0.00    +0.000 A 
ATOM     17  C   UNL     1       1.512   4.013  18.255  0.00  0.00    +0.000 A 
ATOM     18  C   UNL     1       0.697   3.269  19.112  0.00  0.00    +0.000 A 
ATOM     19  C   UNL     1       1.132   2.969  20.402  0.00  0.00    +0.000 A 
ATOM     20  C   UNL     1       2.390   3.391  20.829  0.00  0.00    +0.000 A 
ATOM     21  C   UNL     1       3.200   4.157  19.986  0.00  0.00    +0.000 A 
ENDBRANCH   5  16
BRANCH   1  22
ATOM     22  S   UNL     1       5.212   3.708  16.618  0.00  0.00    +0.000 S 
ATOM     23  H   UNL     1       4.826   3.731  15.334  0.00  0.00    +0.000 HD
ENDBRANCH   1  22
TORSDOF 3
ENDMDL
MODEL 4
REMARK VINA RESULT:      -7.7      0.878      1.717
REMARK  Name = 
REMARK  3 active torsions:
REMARK  status: ('A' for Active; 'I' for Inactive)
REMARK    1  A    between atoms: S_1  and  C_2
REMARK    2  A    between atoms: C_5  and  C_6
REMARK    3  A    between atoms: N_16  and  C_17
REMARK                            x       y       z     vdW  Elec       q    Type
REMARK                         _______ _______ _______ _____ _____    ______ ____
ROOT
ATOM      1  C   UNL     1       4.178   5.385  17.544  0.00  0.00    +0.000 A 
ATOM      2  N   UNL     1       4.565   6.455  16.891  0.00  0.00    +0.000 NA
ATOM      3  N   UNL     1       3.783   7.497  17.302  0.00  0.00    +0.000 NA
ATOM      4  C   UNL     1       2.945   7.065  18.232  0.00  0.00    +0.000 A 
ATOM      5  N   UNL     1       3.106   5.677  18.371  0.00  0.00    +0.000 N 
ENDROOT
BRANCH   4   6
ATOM      6  C   UNL     1       2.084   7.966  19.024  0.00  0.00    +0.000 A 
ATOM      7  C   UNL     1       1.823   7.748  20.387  0.00  0.00    +0.000 A 
ATOM      8  C   UNL     1       0.946   8.569  21.099  0.00  0.00    +0.000 A 
ATOM      9  C   UNL     1       0.391   9.681  20.482  0.00  0.00    +0.000 A 
ATOM     10  C   UNL     1       0.727   9.982  19.159  0.00  0.00    +0.000 A 
ATOM     11  C   UNL     1       1.539   9.114  18.425  0.00  0.00    +0.000 A 
ATOM     12  O   UNL     1       0.288  11.118  18.525  0.00  0.00    +0.000 OA
ATOM     13  C   UNL     1      -0.156  12.090  19.489  0.00  0.00    +0.000 C 
ATOM     14  C   UNL     1      -1.114  11.449  20.476  0.00  0.00    +0.000 C 
ATOM     15  O   UNL     1      -0.447  10.447  21.250  0.00  0.00    +0.000 OA
ENDBRANCH   4   6
BRANCH   5  16
ATOM     16  C   UNL     1       2.361   4.803  19.213  0.00  0.00    +0.000 A 
ATOM     17  C   UNL     1       2.721   4.662  20.563  0.00  0.00    +0.000 A 
ATOM     18  C   UNL     1       2.153   3.648  21.338  0.00  0.00    +0.000 A 
ATOM     19  C   UNL     1       1.191   2.804  20.786  0.00  0.00    +0.000 A 
ATOM     20  C   UNL     1       0.778   2.987  19.468  0.00  0.00    +0.000 A 
ATOM     21  C   UNL     1       1.361   3.982  18.678  0.00  0.00    +0.000 A 
ENDBRANCH   5  16
BRANCH   1  22
ATOM     22  S   UNL     1       4.846   3.818  17.237  0.00  0.00    +0.000 S 
ATOM     23  H   UNL     1       6.128   4.211  17.178  0.00  0.00    +0.000 HD
ENDBRANCH   1  22
TORSDOF 3
ENDMDL
MODEL 5
REMARK VINA RESULT:      -7.7      1.662      2.297
REMARK  Name = 
REMARK  3 active torsions:
REMARK  status: ('A' for Active; 'I' for Inactive)
REMARK    1  A    between atoms: S_1  and  C_2
REMARK    2  A    between atoms: C_5  and  C_6
REMARK    3  A    between atoms: N_16  and  C_17
REMARK                            x       y       z     vdW  Elec       q    Type
REMARK                         _______ _______ _______ _____ _____    ______ ____
ROOT
ATOM      1  C   UNL     1       5.368   5.219  16.122  0.00  0.00    +0.000 A 
ATOM      2  N   UNL     1       5.572   6.421  15.641  0.00  0.00    +0.000 NA
ATOM      3  N   UNL     1       4.702   7.270  16.264  0.00  0.00    +0.000 NA
ATOM      4  C   UNL     1       3.995   6.587  17.152  0.00  0.00    +0.000 A 
ATOM      5  N   UNL     1       4.334   5.228  17.043  0.00  0.00    +0.000 N 
ENDROOT
BRANCH   4   6
ATOM      6  C   UNL     1       3.093   7.226  18.131  0.00  0.00    +0.000 A 
ATOM      7  C   UNL     1       2.878   6.692  19.413  0.00  0.00    +0.000 A 
ATOM      8  C   UNL     1       1.964   7.270  20.295  0.00  0.00    +0.000 A 
ATOM      9  C   UNL     1       1.320   8.449  19.946  0.00  0.00    +0.000 A 
ATOM     10  C   UNL     1       1.606   9.059  18.721  0.00  0.00    +0.000 A 
ATOM     11  C   UNL     1       2.458   8.437  17.806  0.00  0.00    +0.000 A 
ATOM     12  O   UNL     1       1.077  10.275  18.360  0.00  0.00    +0.000 OA
ATOM     13  C   UNL     1       0.590  10.973  19.520  0.00  0.00    +0.000 C 
ATOM     14  C   UNL     1      -0.300  10.063  20.345  0.00  0.00    +0.000 C 
ATOM     15  O   UNL     1       0.449   8.963  20.871  0.00  0.00    +0.000 OA
ENDBRANCH   4   6
BRANCH   5  16
ATOM     16  C   UNL     1       3.766   4.138  17.764  0.00  0.00    +0.000 A 
ATOM     17  C   UNL     1       4.472   3.569  18.835  0.00  0.00    +0.000 A 
ATOM     18  C   UNL     1       4.039   2.366  19.399  0.00  0.00    +0.000 A 
ATOM     19  C   UNL     1       2.878   1.754  18.932  0.00  0.00    +0.000 A 
ATOM     20  C   UNL     1       2.134   2.354  17.917  0.00  0.00    +0.000 A 
ATOM     21  C   UNL     1       2.575   3.544  17.330  0.00  0.00    +0.000 A 
ENDBRANCH   5  16
BRANCH   1  22
ATOM     22  S   UNL     1       6.197   3.824  15.518  0.00  0.00    +0.000 S 
ATOM     23  H   UNL     1       7.418   4.379  15.485  0.00  0.00    +0.000 HD
ENDBRANCH   1  22
TORSDOF 3
ENDMDL
MODEL 6
REMARK VINA RESULT:      -7.7      2.071      3.854
REMARK  Name = 
REMARK  3 active torsions:
REMARK  status: ('A' for Active; 'I' for Inactive)
REMARK    1  A    between atoms: S_1  and  C_2
REMARK    2  A    between atoms: C_5  and  C_6
REMARK    3  A    between atoms: N_16  and  C_17
REMARK                            x       y       z     vdW  Elec       q    Type
REMARK                         _______ _______ _______ _____ _____    ______ ____
ROOT
ATOM      1  C   UNL     1       3.553   3.126  20.147  0.00  0.00    +0.000 A 
ATOM      2  N   UNL     1       2.480   3.216  20.895  0.00  0.00    +0.000 NA
ATOM      3  N   UNL     1       2.007   4.493  20.791  0.00  0.00    +0.000 NA
ATOM      4  C   UNL     1       2.775   5.169  19.949  0.00  0.00    +0.000 A 
ATOM      5  N   UNL     1       3.846   4.346  19.562  0.00  0.00    +0.000 N 
ENDROOT
BRANCH   4   6
ATOM      6  C   UNL     1       2.444   6.523  19.464  0.00  0.00    +0.000 A 
ATOM      7  C   UNL     1       2.694   6.929  18.142  0.00  0.00    +0.000 A 
ATOM      8  C   UNL     1       2.443   8.237  17.724  0.00  0.00    +0.000 A 
ATOM      9  C   UNL     1       1.846   9.136  18.598  0.00  0.00    +0.000 A 
ATOM     10  C   UNL     1       1.484   8.720  19.882  0.00  0.00    +0.000 A 
ATOM     11  C   UNL     1       1.811   7.436  20.324  0.00  0.00    +0.000 A 
ATOM     12  O   UNL     1       0.805   9.532  20.757  0.00  0.00    +0.000 OA
ATOM     13  C   UNL     1       0.179  10.618  20.050  0.00  0.00    +0.000 C 
ATOM     14  C   UNL     1       1.182  11.294  19.134  0.00  0.00    +0.000 C 
ATOM     15  O   UNL     1       1.618  10.396  18.109  0.00  0.00    +0.000 OA
ENDBRANCH   4   6
BRANCH   5  16
ATOM     16  C   UNL     1       4.939   4.697  18.718  0.00  0.00    +0.000 A 
ATOM     17  C   UNL     1       4.958   4.258  17.385  0.00  0.00    +0.000 A 
ATOM     18  C   UNL     1       6.118   4.395  16.618  0.00  0.00    +0.000 A 
ATOM     19  C   UNL     1       7.244   5.012  17.160  0.00  0.00    +0.000 A 
ATOM     20  C   UNL     1       7.205   5.514  18.460  0.00  0.00    +0.000 A 
ATOM     21  C   UNL     1       6.057   5.357  19.242  0.00  0.00    +0.000 A 
ENDBRANCH   5  16
BRANCH   1  22
ATOM     22  S   UNL     1       4.522   1.693  20.081  0.00  0.00    +0.000 S 
ATOM     23  H   UNL     1       5.059   1.931  18.875  0.00  0.00    +0.000 HD
ENDBRANCH   1  22
TORSDOF 3
ENDMDL
MODEL 7
REMARK VINA RESULT:      -7.6      0.283      1.068
REMARK  Name = 
REMARK  3 active torsions:
REMARK  status: ('A' for Active; 'I' for Inactive)
REMARK    1  A    between atoms: S_1  and  C_2
REMARK    2  A    between atoms: C_5  and  C_6
REMARK    3  A    between atoms: N_16  and  C_17
REMARK                            x       y       z     vdW  Elec       q    Type
REMARK                         _______ _______ _______ _____ _____    ______ ____
ROOT
ATOM      1  C   UNL     1       4.642   5.508  17.323  0.00  0.00    +0.000 A 
ATOM      2  N   UNL     1       5.007   6.569  16.644  0.00  0.00    +0.000 NA
ATOM      3  N   UNL     1       4.130   7.573  16.941  0.00  0.00    +0.000 NA
ATOM      4  C   UNL     1       3.254   7.131  17.830  0.00  0.00    +0.000 A 
ATOM      5  N   UNL     1       3.495   5.764  18.053  0.00  0.00    +0.000 N 
ENDROOT
BRANCH   4   6
ATOM      6  C   UNL     1       2.279   8.007  18.509  0.00  0.00    +0.000 A 
ATOM      7  C   UNL     1       1.494   8.939  17.811  0.00  0.00    +0.000 A 
ATOM      8  C   UNL     1       0.632   9.809  18.481  0.00  0.00    +0.000 A 
ATOM      9  C   UNL     1       0.469   9.694  19.855  0.00  0.00    +0.000 A 
ATOM     10  C   UNL     1       1.155   8.697  20.554  0.00  0.00    +0.000 A 
ATOM     11  C   UNL     1       2.077   7.882  19.894  0.00  0.00    +0.000 A 
ATOM     12  O   UNL     1       0.963   8.471  21.895  0.00  0.00    +0.000 OA
ATOM     13  C   UNL     1      -0.274   9.062  22.331  0.00  0.00    +0.000 C 
ATOM     14  C   UNL     1      -0.358  10.504  21.866  0.00  0.00    +0.000 C 
ATOM     15  O   UNL     1      -0.405  10.574  20.438  0.00  0.00    +0.000 OA
ENDBRANCH   4   6
BRANCH   5  16
ATOM     16  C   UNL     1       2.746   4.883  18.885  0.00  0.00    +0.000 A 
ATOM     17  C   UNL     1       1.647   4.190  18.352  0.00  0.00    +0.000 A 
ATOM     18  C   UNL     1       0.771   3.507  19.201  0.00  0.00    +0.000 A 
ATOM     19  C   UNL     1       1.014   3.472  20.573  0.00  0.00    +0.000 A 
ATOM     20  C   UNL     1       2.144   4.098  21.096  0.00  0.00    +0.000 A 
ATOM     21  C   UNL     1       3.010   4.806  20.258  0.00  0.00    +0.000 A 
ENDBRANCH   5  16
BRANCH   1  22
ATOM     22  S   UNL     1       5.433   3.978  17.149  0.00  0.00    +0.000 S 
ATOM     23  H   UNL     1       6.634   4.378  17.591  0.00  0.00    +0.000 HD
ENDBRANCH   1  22
TORSDOF 3
ENDMDL
MODEL 8
REMARK VINA RESULT:      -7.6      1.960      3.578
REMARK  Name = 
REMARK  3 active torsions:
REMARK  status: ('A' for Active; 'I' for Inactive)
REMARK    1  A    between atoms: S_1  and  C_2
REMARK    2  A    between atoms: C_5  and  C_6
REMARK    3  A    between atoms: N_16  and  C_17
REMARK                            x       y       z     vdW  Elec       q    Type
REMARK                         _______ _______ _______ _____ _____    ______ ____
ROOT
ATOM      1  C   UNL     1       3.477   3.266  20.082  0.00  0.00    +0.000 A 
ATOM      2  N   UNL     1       2.535   3.374  20.988  0.00  0.00    +0.000 NA
ATOM      3  N   UNL     1       2.062   4.654  20.944  0.00  0.00    +0.000 NA
ATOM      4  C   UNL     1       2.693   5.314  19.985  0.00  0.00    +0.000 A 
ATOM      5  N   UNL     1       3.684   4.477  19.443  0.00  0.00    +0.000 N 
ENDROOT
BRANCH   4   6
ATOM      6  C   UNL     1       2.301   6.666  19.541  0.00  0.00    +0.000 A 
ATOM      7  C   UNL     1       2.396   7.074  18.200  0.00  0.00    +0.000 A 
ATOM      8  C   UNL     1       2.091   8.380  17.815  0.00  0.00    +0.000 A 
ATOM      9  C   UNL     1       1.591   9.275  18.751  0.00  0.00    +0.000 A 
ATOM     10  C   UNL     1       1.380   8.857  20.067  0.00  0.00    +0.000 A 
ATOM     11  C   UNL     1       1.763   7.575  20.468  0.00  0.00    +0.000 A 
ATOM     12  O   UNL     1       0.799   9.664  21.015  0.00  0.00    +0.000 OA
ATOM     13  C   UNL     1       0.090  10.746  20.384  0.00  0.00    +0.000 C 
ATOM     14  C   UNL     1       0.978  11.429  19.361  0.00  0.00    +0.000 C 
ATOM     15  O   UNL     1       1.301  10.534  18.292  0.00  0.00    +0.000 OA
ENDBRANCH   4   6
BRANCH   5  16
ATOM     16  C   UNL     1       4.634   4.809  18.435  0.00  0.00    +0.000 A 
ATOM     17  C   UNL     1       5.781   5.544  18.774  0.00  0.00    +0.000 A 
ATOM     18  C   UNL     1       6.598   6.070  17.769  0.00  0.00    +0.000 A 
ATOM     19  C   UNL     1       6.302   5.826  16.430  0.00  0.00    +0.000 A 
ATOM     20  C   UNL     1       5.205   5.035  16.092  0.00  0.00    +0.000 A 
ATOM     21  C   UNL     1       4.368   4.528  17.089  0.00  0.00    +0.000 A 
ENDBRANCH   5  16
BRANCH   1  22
ATOM     22  S   UNL     1       4.413   1.824  19.882  0.00  0.00    +0.000 S 
ATOM     23  H   UNL     1       4.760   2.047  18.606  0.00  0.00    +0.000 HD
ENDBRANCH   1  22
TORSDOF 3
ENDMDL
MODEL 9
REMARK VINA RESULT:      -7.4      2.045      3.995
REMARK  Name = 
REMARK  3 active torsions:
REMARK  status: ('A' for Active; 'I' for Inactive)
REMARK    1  A    between atoms: S_1  and  C_2
REMARK    2  A    between atoms: C_5  and  C_6
REMARK    3  A    between atoms: N_16  and  C_17
REMARK                            x       y       z     vdW  Elec       q    Type
REMARK                         _______ _______ _______ _____ _____    ______ ____
ROOT
ATOM      1  C   UNL     1       3.990   3.912  17.002  0.00  0.00    +0.000 A 
ATOM      2  N   UNL     1       2.730   3.550  16.987  0.00  0.00    +0.000 NA
ATOM      3  N   UNL     1       2.020   4.489  17.680  0.00  0.00    +0.000 NA
ATOM      4  C   UNL     1       2.846   5.441  18.085  0.00  0.00    +0.000 A 
ATOM      5  N   UNL     1       4.157   5.073  17.738  0.00  0.00    +0.000 N 
ENDROOT
BRANCH   4   6
ATOM      6  C   UNL     1       2.387   6.701  18.703  0.00  0.00    +0.000 A 
ATOM      7  C   UNL     1       2.104   6.805  20.075  0.00  0.00    +0.000 A 
ATOM      8  C   UNL     1       1.599   7.985  20.624  0.00  0.00    +0.000 A 
ATOM      9  C   UNL     1       1.462   9.112  19.826  0.00  0.00    +0.000 A 
ATOM     10  C   UNL     1       1.846   9.064  18.483  0.00  0.00    +0.000 A 
ATOM     11  C   UNL     1       2.273   7.860  17.917  0.00  0.00    +0.000 A 
ATOM     12  O   UNL     1       1.825  10.169  17.668  0.00  0.00    +0.000 OA
ATOM     13  C   UNL     1       1.786  11.372  18.457  0.00  0.00    +0.000 C 
ATOM     14  C   UNL     1       0.690  11.277  19.502  0.00  0.00    +0.000 C 
ATOM     15  O   UNL     1       0.974  10.236  20.442  0.00  0.00    +0.000 OA
ENDBRANCH   4   6
BRANCH   5  16
ATOM     16  C   UNL     1       5.358   5.777  18.041  0.00  0.00    +0.000 A 
ATOM     17  C   UNL     1       5.773   6.834  17.215  0.00  0.00    +0.000 A 
ATOM     18  C   UNL     1       7.051   7.378  17.362  0.00  0.00    +0.000 A 
ATOM     19  C   UNL     1       7.900   6.907  18.361  0.00  0.00    +0.000 A 
ATOM     20  C   UNL     1       7.465   5.908  19.230  0.00  0.00    +0.000 A 
ATOM     21  C   UNL     1       6.197   5.339  19.073  0.00  0.00    +0.000 A 
ENDBRANCH   5  16
BRANCH   1  22
ATOM     22  S   UNL     1       5.246   2.934  16.322  0.00  0.00    +0.000 S 
ATOM     23  H   UNL     1       5.443   3.684  15.227  0.00  0.00    +0.000 HD
ENDBRANCH   1  22
TORSDOF 3
ENDMDL
