MODEL 1
REMARK VINA RESULT:      -7.5      0.000      0.000
REMARK  Name = 
REMARK  1 active torsions:
REMARK  status: ('A' for Active; 'I' for Inactive)
REMARK    1  A    between atoms: C_2  and  C_12
REMARK                            x       y       z     vdW  Elec       q    Type
REMARK                         _______ _______ _______ _____ _____    ______ ____
ROOT
ATOM      1  O   UNL     1       4.385   5.369  17.980  0.00  0.00    +0.000 OA
ATOM      2  C   UNL     1       4.952   4.403  17.482  0.00  0.00    +0.000 C 
ATOM      3  N   UNL     1       4.967   3.138  18.042  0.00  0.00    +0.000 N 
ATOM      4  C   UNL     1       4.386   2.894  19.259  0.00  0.00    +0.000 A 
ATOM      5  N   UNL     1       4.906   2.138  20.209  0.00  0.00    +0.000 NA
ATOM      6  N   UNL     1       4.015   2.092  21.277  0.00  0.00    +0.000 NA
ATOM      7  C   UNL     1       2.974   2.781  20.905  0.00  0.00    +0.000 A 
ATOM      8  N   UNL     1       3.147   3.291  19.658  0.00  0.00    +0.000 N 
ATOM      9  C   UNL     1       1.943   3.664  18.955  0.00  0.00    +0.000 C 
ATOM     10  C   UNL     1       0.865   3.902  20.018  0.00  0.00    +0.000 C 
ATOM     11  S   UNL     1       1.379   2.959  21.509  0.00  0.00    +0.000 S 
ATOM     12  H   UNL     1       5.750   2.543  17.796  0.00  0.00    +0.000 HD
ENDROOT
BRANCH   2  13
ATOM     13  C   UNL     1       5.710   4.494  16.251  0.00  0.00    +0.000 A 
ATOM     14  C   UNL     1       6.789   5.286  15.900  0.00  0.00    +0.000 A 
ATOM     15  C   UNL     1       7.055   5.030  14.530  0.00  0.00    +0.000 A 
ATOM     16  C   UNL     1       6.132   4.093  14.130  0.00  0.00    +0.000 A 
ATOM     17 BR   UNL     1       5.966   3.419  12.398  0.00  0.00    +0.000 Br
ATOM     18  O   UNL     1       5.333   3.737  15.171  0.00  0.00    +0.000 OA
ENDBRANCH   2  13
TORSDOF 1
ENDMDL
MODEL 2
REMARK VINA RESULT:      -6.6      1.375      1.473
REMARK  Name = 
REMARK  1 active torsions:
REMARK  status: ('A' for Active; 'I' for Inactive)
REMARK    1  A    between atoms: C_2  and  C_12
REMARK                            x       y       z     vdW  Elec       q    Type
REMARK                         _______ _______ _______ _____ _____    ______ ____
ROOT
ATOM      1  O   UNL     1       5.659   4.387  18.264  0.00  0.00    +0.000 OA
ATOM      2  C   UNL     1       5.248   4.047  17.160  0.00  0.00    +0.000 C 
ATOM      3  N   UNL     1       4.072   3.349  16.950  0.00  0.00    +0.000 N 
ATOM      4  C   UNL     1       3.302   2.925  18.001  0.00  0.00    +0.000 A 
ATOM      5  N   UNL     1       2.716   1.745  18.084  0.00  0.00    +0.000 NA
ATOM      6  N   UNL     1       1.990   1.691  19.270  0.00  0.00    +0.000 NA
ATOM      7  C   UNL     1       2.129   2.860  19.828  0.00  0.00    +0.000 A 
ATOM      8  N   UNL     1       2.923   3.666  19.078  0.00  0.00    +0.000 N 
ATOM      9  C   UNL     1       2.791   5.084  19.318  0.00  0.00    +0.000 C 
ATOM     10  C   UNL     1       2.210   5.243  20.727  0.00  0.00    +0.000 C 
ATOM     11  S   UNL     1       1.342   3.670  21.118  0.00  0.00    +0.000 S 
ATOM     12  H   UNL     1       4.023   2.787  16.108  0.00  0.00    +0.000 HD
ENDROOT
BRANCH   2  13
ATOM     13  C   UNL     1       5.982   4.313  15.939  0.00  0.00    +0.000 A 
ATOM     14  C   UNL     1       6.899   5.300  15.623  0.00  0.00    +0.000 A 
ATOM     15  C   UNL     1       7.214   5.140  14.249  0.00  0.00    +0.000 A 
ATOM     16  C   UNL     1       6.480   4.063  13.811  0.00  0.00    +0.000 A 
ATOM     17 BR   UNL     1       6.447   3.426  12.059  0.00  0.00    +0.000 Br
ATOM     18  O   UNL     1       5.755   3.535  14.833  0.00  0.00    +0.000 OA
ENDBRANCH   2  13
TORSDOF 1
ENDMDL
MODEL 3
REMARK VINA RESULT:      -6.6      4.575      6.188
REMARK  Name = 
REMARK  1 active torsions:
REMARK  status: ('A' for Active; 'I' for Inactive)
REMARK    1  A    between atoms: C_2  and  C_12
REMARK                            x       y       z     vdW  Elec       q    Type
REMARK                         _______ _______ _______ _____ _____    ______ ____
ROOT
ATOM      1  O   UNL     1       1.374   5.719  20.958  0.00  0.00    +0.000 OA
ATOM      2  C   UNL     1       1.944   6.674  20.442  0.00  0.00    +0.000 C 
ATOM      3  N   UNL     1       3.075   6.568  19.653  0.00  0.00    +0.000 N 
ATOM      4  C   UNL     1       3.686   5.359  19.446  0.00  0.00    +0.000 A 
ATOM      5  N   UNL     1       4.991   5.159  19.448  0.00  0.00    +0.000 NA
ATOM      6  N   UNL     1       5.236   3.819  19.163  0.00  0.00    +0.000 NA
ATOM      7  C   UNL     1       4.069   3.279  18.952  0.00  0.00    +0.000 A 
ATOM      8  N   UNL     1       3.075   4.192  19.103  0.00  0.00    +0.000 N 
ATOM      9  C   UNL     1       1.820   3.872  18.467  0.00  0.00    +0.000 C 
ATOM     10  C   UNL     1       1.793   2.351  18.280  0.00  0.00    +0.000 C 
ATOM     11  S   UNL     1       3.543   1.790  18.284  0.00  0.00    +0.000 S 
ATOM     12  H   UNL     1       3.677   7.383  19.613  0.00  0.00    +0.000 HD
ENDROOT
BRANCH   2  13
ATOM     13  C   UNL     1       1.506   8.041  20.636  0.00  0.00    +0.000 A 
ATOM     14  C   UNL     1       1.147   8.730  21.781  0.00  0.00    +0.000 A 
ATOM     15  C   UNL     1       0.701  10.011  21.365  0.00  0.00    +0.000 A 
ATOM     16  C   UNL     1       0.822  10.031  19.995  0.00  0.00    +0.000 A 
ATOM     17 BR   UNL     1       0.323  11.450  18.892  0.00  0.00    +0.000 Br
ATOM     18  O   UNL     1       1.339   8.856  19.546  0.00  0.00    +0.000 OA
ENDBRANCH   2  13
TORSDOF 1
ENDMDL
MODEL 4
REMARK VINA RESULT:      -6.5      2.378      2.836
REMARK  Name = 
REMARK  1 active torsions:
REMARK  status: ('A' for Active; 'I' for Inactive)
REMARK    1  A    between atoms: C_2  and  C_12
REMARK                            x       y       z     vdW  Elec       q    Type
REMARK                         _______ _______ _______ _____ _____    ______ ____
ROOT
ATOM      1  O   UNL     1       5.186   5.903  15.183  0.00  0.00    +0.000 OA
ATOM      2  C   UNL     1       5.901   4.909  15.116  0.00  0.00    +0.000 C 
ATOM      3  N   UNL     1       6.283   4.153  16.211  0.00  0.00    +0.000 N 
ATOM      4  C   UNL     1       5.929   4.518  17.483  0.00  0.00    +0.000 A 
ATOM      5  N   UNL     1       6.724   4.465  18.536  0.00  0.00    +0.000 NA
ATOM      6  N   UNL     1       6.007   4.873  19.656  0.00  0.00    +0.000 NA
ATOM      7  C   UNL     1       4.795   5.108  19.239  0.00  0.00    +0.000 A 
ATOM      8  N   UNL     1       4.690   4.892  17.903  0.00  0.00    +0.000 N 
ATOM      9  C   UNL     1       3.355   4.663  17.403  0.00  0.00    +0.000 C 
ATOM     10  C   UNL     1       2.388   5.280  18.420  0.00  0.00    +0.000 C 
ATOM     11  S   UNL     1       3.290   5.358  20.020  0.00  0.00    +0.000 S 
ATOM     12  H   UNL     1       7.148   3.633  16.122  0.00  0.00    +0.000 HD
ENDROOT
BRANCH   2  13
ATOM     13  C   UNL     1       6.459   4.432  13.868  0.00  0.00    +0.000 A 
ATOM     14  C   UNL     1       7.335   5.025  12.975  0.00  0.00    +0.000 A 
ATOM     15  C   UNL     1       7.453   4.142  11.871  0.00  0.00    +0.000 A 
ATOM     16  C   UNL     1       6.652   3.062  12.158  0.00  0.00    +0.000 A 
ATOM     17 BR   UNL     1       6.367   1.604  11.030  0.00  0.00    +0.000 Br
ATOM     18  O   UNL     1       6.071   3.211  13.379  0.00  0.00    +0.000 OA
ENDBRANCH   2  13
TORSDOF 1
ENDMDL
MODEL 5
REMARK VINA RESULT:      -6.3      1.325      1.365
REMARK  Name = 
REMARK  1 active torsions:
REMARK  status: ('A' for Active; 'I' for Inactive)
REMARK    1  A    between atoms: C_2  and  C_12
REMARK                            x       y       z     vdW  Elec       q    Type
REMARK                         _______ _______ _______ _____ _____    ______ ____
ROOT
ATOM      1  O   UNL     1       5.837   5.566  17.642  0.00  0.00    +0.000 OA
ATOM      2  C   UNL     1       5.624   4.645  16.860  0.00  0.00    +0.000 C 
ATOM      3  N   UNL     1       4.810   3.562  17.141  0.00  0.00    +0.000 N 
ATOM      4  C   UNL     1       4.225   3.414  18.371  0.00  0.00    +0.000 A 
ATOM      5  N   UNL     1       4.131   2.275  19.033  0.00  0.00    +0.000 NA
ATOM      6  N   UNL     1       3.442   2.506  20.219  0.00  0.00    +0.000 NA
ATOM      7  C   UNL     1       3.107   3.764  20.199  0.00  0.00    +0.000 A 
ATOM      8  N   UNL     1       3.557   4.371  19.071  0.00  0.00    +0.000 N 
ATOM      9  C   UNL     1       2.887   5.594  18.700  0.00  0.00    +0.000 C 
ATOM     10  C   UNL     1       2.244   6.152  19.974  0.00  0.00    +0.000 C 
ATOM     11  S   UNL     1       2.029   4.730  21.119  0.00  0.00    +0.000 S 
ATOM     12  H   UNL     1       5.006   2.706  16.635  0.00  0.00    +0.000 HD
ENDROOT
BRANCH   2  13
ATOM     13  C   UNL     1       6.239   4.576  15.551  0.00  0.00    +0.000 A 
ATOM     14  C   UNL     1       7.253   5.324  14.979  0.00  0.00    +0.000 A 
ATOM     15  C   UNL     1       7.375   4.887  13.635  0.00  0.00    +0.000 A 
ATOM     16  C   UNL     1       6.438   3.894  13.469  0.00  0.00    +0.000 A 
ATOM     17 BR   UNL     1       6.102   2.989  11.874  0.00  0.00    +0.000 Br
ATOM     18  O   UNL     1       5.767   3.675  14.632  0.00  0.00    +0.000 OA
ENDBRANCH   2  13
TORSDOF 1
ENDMDL
MODEL 6
REMARK VINA RESULT:      -6.3      4.365      6.607
REMARK  Name = 
REMARK  1 active torsions:
REMARK  status: ('A' for Active; 'I' for Inactive)
REMARK    1  A    between atoms: C_2  and  C_12
REMARK                            x       y       z     vdW  Elec       q    Type
REMARK                         _______ _______ _______ _____ _____    ______ ____
ROOT
ATOM      1  O   UNL     1       4.629   2.971  16.675  0.00  0.00    +0.000 OA
ATOM      2  C   UNL     1       4.414   4.103  17.096  0.00  0.00    +0.000 C 
ATOM      3  N   UNL     1       5.045   5.239  16.622  0.00  0.00    +0.000 N 
ATOM      4  C   UNL     1       6.025   5.161  15.668  0.00  0.00    +0.000 A 
ATOM      5  N   UNL     1       7.147   5.858  15.675  0.00  0.00    +0.000 NA
ATOM      6  N   UNL     1       7.872   5.544  14.530  0.00  0.00    +0.000 NA
ATOM      7  C   UNL     1       7.134   4.708  13.856  0.00  0.00    +0.000 A 
ATOM      8  N   UNL     1       5.974   4.446  14.511  0.00  0.00    +0.000 N 
ATOM      9  C   UNL     1       4.895   3.929  13.704  0.00  0.00    +0.000 C 
ATOM     10  C   UNL     1       5.533   3.300  12.460  0.00  0.00    +0.000 C 
ATOM     11  S   UNL     1       7.178   4.095  12.256  0.00  0.00    +0.000 S 
ATOM     12  H   UNL     1       5.109   6.022  17.263  0.00  0.00    +0.000 HD
ENDROOT
BRANCH   2  13
ATOM     13  C   UNL     1       3.488   4.370  18.177  0.00  0.00    +0.000 A 
ATOM     14  C   UNL     1       2.855   5.536  18.569  0.00  0.00    +0.000 A 
ATOM     15  C   UNL     1       2.144   5.236  19.758  0.00  0.00    +0.000 A 
ATOM     16  C   UNL     1       2.376   3.905  20.017  0.00  0.00    +0.000 A 
ATOM     17 BR   UNL     1       1.737   2.971  21.500  0.00  0.00    +0.000 Br
ATOM     18  O   UNL     1       3.162   3.363  19.049  0.00  0.00    +0.000 OA
ENDBRANCH   2  13
TORSDOF 1
ENDMDL
MODEL 7
REMARK VINA RESULT:      -6.3      5.025      6.560
REMARK  Name = 
REMARK  1 active torsions:
REMARK  status: ('A' for Active; 'I' for Inactive)
REMARK    1  A    between atoms: C_2  and  C_12
REMARK                            x       y       z     vdW  Elec       q    Type
REMARK                         _______ _______ _______ _____ _____    ______ ____
ROOT
ATOM      1  O   UNL     1       1.265   5.553  20.866  0.00  0.00    +0.000 OA
ATOM      2  C   UNL     1       1.810   6.540  20.384  0.00  0.00    +0.000 C 
ATOM      3  N   UNL     1       2.992   6.502  19.667  0.00  0.00    +0.000 N 
ATOM      4  C   UNL     1       3.683   5.330  19.501  0.00  0.00    +0.000 A 
ATOM      5  N   UNL     1       4.995   5.206  19.584  0.00  0.00    +0.000 NA
ATOM      6  N   UNL     1       5.334   3.883  19.317  0.00  0.00    +0.000 NA
ATOM      7  C   UNL     1       4.216   3.277  19.035  0.00  0.00    +0.000 A 
ATOM      8  N   UNL     1       3.164   4.131  19.123  0.00  0.00    +0.000 N 
ATOM      9  C   UNL     1       1.971   3.739  18.411  0.00  0.00    +0.000 C 
ATOM     10  C   UNL     1       2.044   2.219  18.225  0.00  0.00    +0.000 C 
ATOM     11  S   UNL     1       3.820   1.761  18.340  0.00  0.00    +0.000 S 
ATOM     12  H   UNL     1       3.547   7.350  19.663  0.00  0.00    +0.000 HD
ENDROOT
BRANCH   2  13
ATOM     13  C   UNL     1       1.282   7.879  20.548  0.00  0.00    +0.000 A 
ATOM     14  C   UNL     1       1.450   9.025  19.790  0.00  0.00    +0.000 A 
ATOM     15  C   UNL     1       0.787  10.072  20.479  0.00  0.00    +0.000 A 
ATOM     16  C   UNL     1       0.247   9.504  21.609  0.00  0.00    +0.000 A 
ATOM     17 BR   UNL     1      -0.693  10.424  22.931  0.00  0.00    +0.000 Br
ATOM     18  O   UNL     1       0.512   8.170  21.645  0.00  0.00    +0.000 OA
ENDBRANCH   2  13
TORSDOF 1
ENDMDL
MODEL 8
REMARK VINA RESULT:      -6.3      5.219      6.361
REMARK  Name = 
REMARK  1 active torsions:
REMARK  status: ('A' for Active; 'I' for Inactive)
REMARK    1  A    between atoms: C_2  and  C_12
REMARK                            x       y       z     vdW  Elec       q    Type
REMARK                         _______ _______ _______ _____ _____    ______ ____
ROOT
ATOM      1  O   UNL     1       8.171   6.903  18.820  0.00  0.00    +0.000 OA
ATOM      2  C   UNL     1       7.834   7.829  18.090  0.00  0.00    +0.000 C 
ATOM      3  N   UNL     1       6.955   7.700  17.030  0.00  0.00    +0.000 N 
ATOM      4  C   UNL     1       6.440   6.480  16.679  0.00  0.00    +0.000 A 
ATOM      5  N   UNL     1       6.295   6.046  15.441  0.00  0.00    +0.000 NA
ATOM      6  N   UNL     1       5.704   4.787  15.476  0.00  0.00    +0.000 NA
ATOM      7  C   UNL     1       5.472   4.536  16.734  0.00  0.00    +0.000 A 
ATOM      8  N   UNL     1       5.898   5.557  17.521  0.00  0.00    +0.000 N 
ATOM      9  C   UNL     1       5.308   5.631  18.836  0.00  0.00    +0.000 C 
ATOM     10  C   UNL     1       4.794   4.226  19.171  0.00  0.00    +0.000 C 
ATOM     11  S   UNL     1       4.538   3.365  17.567  0.00  0.00    +0.000 S 
ATOM     12  H   UNL     1       7.047   8.376  16.280  0.00  0.00    +0.000 HD
ENDROOT
BRANCH   2  13
ATOM     13  C   UNL     1       8.358   9.171  18.241  0.00  0.00    +0.000 A 
ATOM     14  C   UNL     1       8.207  10.302  17.458  0.00  0.00    +0.000 A 
ATOM     15  C   UNL     1       9.030  11.306  18.029  0.00  0.00    +0.000 A 
ATOM     16  C   UNL     1       9.626  10.734  19.128  0.00  0.00    +0.000 A 
ATOM     17 BR   UNL     1      10.867  11.574  20.239  0.00  0.00    +0.000 Br
ATOM     18  O   UNL     1       9.201   9.451  19.286  0.00  0.00    +0.000 OA
ENDBRANCH   2  13
TORSDOF 1
ENDMDL
MODEL 9
REMARK VINA RESULT:      -6.2      4.987      6.122
REMARK  Name = 
REMARK  1 active torsions:
REMARK  status: ('A' for Active; 'I' for Inactive)
REMARK    1  A    between atoms: C_2  and  C_12
REMARK                            x       y       z     vdW  Elec       q    Type
REMARK                         _______ _______ _______ _____ _____    ______ ____
ROOT
ATOM      1  O   UNL     1       2.285   6.516  20.094  0.00  0.00    +0.000 OA
ATOM      2  C   UNL     1       2.317   7.177  19.063  0.00  0.00    +0.000 C 
ATOM      3  N   UNL     1       2.863   6.732  17.872  0.00  0.00    +0.000 N 
ATOM      4  C   UNL     1       3.478   5.510  17.786  0.00  0.00    +0.000 A 
ATOM      5  N   UNL     1       4.601   5.272  17.134  0.00  0.00    +0.000 NA
ATOM      6  N   UNL     1       4.895   3.916  17.235  0.00  0.00    +0.000 NA
ATOM      7  C   UNL     1       3.910   3.385  17.903  0.00  0.00    +0.000 A 
ATOM      8  N   UNL     1       2.999   4.328  18.259  0.00  0.00    +0.000 N 
ATOM      9  C   UNL     1       1.678   3.842  18.578  0.00  0.00    +0.000 C 
ATOM     10  C   UNL     1       1.830   2.367  18.966  0.00  0.00    +0.000 C 
ATOM     11  S   UNL     1       3.389   1.777  18.191  0.00  0.00    +0.000 S 
ATOM     12  H   UNL     1       3.197   7.444  17.232  0.00  0.00    +0.000 HD
ENDROOT
BRANCH   2  13
ATOM     13  C   UNL     1       1.810   8.532  18.989  0.00  0.00    +0.000 A 
ATOM     14  C   UNL     1       1.890   9.483  17.987  0.00  0.00    +0.000 A 
ATOM     15  C   UNL     1       1.308  10.669  18.502  0.00  0.00    +0.000 A 
ATOM     16  C   UNL     1       0.899  10.371  19.781  0.00  0.00    +0.000 A 
ATOM     17 BR   UNL     1       0.114  11.577  20.968  0.00  0.00    +0.000 Br
ATOM     18  O   UNL     1       1.169   9.071  20.075  0.00  0.00    +0.000 OA
ENDBRANCH   2  13
TORSDOF 1
ENDMDL
