MODEL 1
REMARK VINA RESULT:      -8.2      0.000      0.000
REMARK  Name = 
REMARK  5 active torsions:
REMARK  status: ('A' for Active; 'I' for Inactive)
REMARK    1  A    between atoms: C_2  and  C_14
REMARK    2  A    between atoms: N_3  and  N_4
REMARK    3  A    between atoms: N_4  and  S_5
REMARK    4  A    between atoms: S_5  and  C_8
REMARK    5  A    between atoms: C_18  and  N_19
REMARK                            x       y       z     vdW  Elec       q    Type
REMARK                         _______ _______ _______ _____ _____    ______ ____
ROOT
ATOM      1  O   UNL     1       5.769   4.199  19.334  0.00  0.00    +0.000 OA
ATOM      2  C   UNL     1       4.710   4.419  18.755  0.00  0.00    +0.000 C 
ATOM      3  N   UNL     1       4.530   4.225  17.399  0.00  0.00    +0.000 N 
ATOM      4  H   UNL     1       3.609   4.222  16.966  0.00  0.00    +0.000 HD
ENDROOT
BRANCH   2   5
ATOM      5  C   UNL     1       3.494   4.860  19.493  0.00  0.00    +0.000 A 
ATOM      6  C   UNL     1       2.689   3.900  20.110  0.00  0.00    +0.000 A 
ATOM      7  C   UNL     1       1.534   4.304  20.775  0.00  0.00    +0.000 A 
ATOM      8  C   UNL     1       1.196   5.661  20.831  0.00  0.00    +0.000 A 
ATOM      9  C   UNL     1       1.989   6.650  20.234  0.00  0.00    +0.000 A 
ATOM     10  C   UNL     1       3.147   6.219  19.572  0.00  0.00    +0.000 A 
BRANCH   9  11
ATOM     11  N   UNL     1       1.623   7.976  20.265  0.00  0.00    +0.000 N 
ATOM     12  C   UNL     1       1.762   8.880  19.114  0.00  0.00    +0.000 C 
ATOM     13  C   UNL     1       0.461   9.705  18.957  0.00  0.00    +0.000 C 
ATOM     14  N   UNL     1       0.063  10.432  20.179  0.00  0.00    +0.000 NA
ATOM     15  C   UNL     1      -0.013   9.490  21.316  0.00  0.00    +0.000 C 
ATOM     16  C   UNL     1       1.276   8.664  21.518  0.00  0.00    +0.000 C 
ATOM     17  H   UNL     1      -0.858  10.844  20.032  0.00  0.00    +0.000 HD
ENDBRANCH   9  11
ENDBRANCH   2   5
BRANCH   3  18
ATOM     18  N   UNL     1       5.626   3.714  16.601  0.00  0.00    +0.000 NA
ATOM     19  H   UNL     1       5.460   2.864  16.050  0.00  0.00    +0.000 HD
BRANCH  18  20
ATOM     20  S   UNL     1       6.771   4.841  16.065  0.00  0.00    +0.000 S 
ATOM     21  O   UNL     1       6.209   6.156  16.290  0.00  0.00    +0.000 OA
ATOM     22  O   UNL     1       8.049   4.475  16.647  0.00  0.00    +0.000 OA
BRANCH  20  23
ATOM     23  C   UNL     1       6.819   4.536  14.326  0.00  0.00    +0.000 A 
ATOM     24  C   UNL     1       5.936   3.610  13.763  0.00  0.00    +0.000 A 
ATOM     25  C   UNL     1       5.988   3.361  12.393  0.00  0.00    +0.000 A 
ATOM     26  C   UNL     1       6.905   4.046  11.593  0.00  0.00    +0.000 A 
ATOM     27  C   UNL     1       7.759   4.997  12.156  0.00  0.00    +0.000 A 
ATOM     28  C   UNL     1       7.715   5.249  13.526  0.00  0.00    +0.000 A 
ENDBRANCH  20  23
ENDBRANCH  18  20
ENDBRANCH   3  18
TORSDOF 5
ENDMDL
MODEL 2
REMARK VINA RESULT:      -8.0      4.167      5.589
REMARK  Name = 
REMARK  5 active torsions:
REMARK  status: ('A' for Active; 'I' for Inactive)
REMARK    1  A    between atoms: C_2  and  C_14
REMARK    2  A    between atoms: N_3  and  N_4
REMARK    3  A    between atoms: N_4  and  S_5
REMARK    4  A    between atoms: S_5  and  C_8
REMARK    5  A    between atoms: C_18  and  N_19
REMARK                            x       y       z     vdW  Elec       q    Type
REMARK                         _______ _______ _______ _____ _____    ______ ____
ROOT
ATOM      1  O   UNL     1       3.589   5.872  20.012  0.00  0.00    +0.000 OA
ATOM      2  C   UNL     1       3.260   6.346  18.930  0.00  0.00    +0.000 C 
ATOM      3  N   UNL     1       3.524   5.735  17.720  0.00  0.00    +0.000 N 
ATOM      4  H   UNL     1       3.083   6.031  16.852  0.00  0.00    +0.000 HD
ENDROOT
BRANCH   2   5
ATOM      5  C   UNL     1       2.479   7.611  18.838  0.00  0.00    +0.000 A 
ATOM      6  C   UNL     1       2.617   8.413  17.703  0.00  0.00    +0.000 A 
ATOM      7  C   UNL     1       1.912   9.612  17.626  0.00  0.00    +0.000 A 
ATOM      8  C   UNL     1       1.067   9.997  18.673  0.00  0.00    +0.000 A 
ATOM      9  C   UNL     1       0.896   9.208  19.819  0.00  0.00    +0.000 A 
ATOM     10  C   UNL     1       1.614   8.005  19.873  0.00  0.00    +0.000 A 
BRANCH   9  11
ATOM     11  N   UNL     1       0.091   9.618  20.857  0.00  0.00    +0.000 N 
ATOM     12  C   UNL     1      -0.267   8.755  21.992  0.00  0.00    +0.000 C 
ATOM     13  C   UNL     1      -0.107   9.556  23.307  0.00  0.00    +0.000 C 
ATOM     14  N   UNL     1      -0.859  10.827  23.328  0.00  0.00    +0.000 NA
ATOM     15  C   UNL     1      -0.502  11.635  22.142  0.00  0.00    +0.000 C 
ATOM     16  C   UNL     1      -0.670  10.876  20.807  0.00  0.00    +0.000 C 
ATOM     17  H   UNL     1      -0.604  11.346  24.168  0.00  0.00    +0.000 HD
ENDBRANCH   9  11
ENDBRANCH   2   5
BRANCH   3  18
ATOM     18  N   UNL     1       4.203   4.454  17.701  0.00  0.00    +0.000 NA
ATOM     19  H   UNL     1       5.112   4.389  18.172  0.00  0.00    +0.000 HD
BRANCH  18  20
ATOM     20  S   UNL     1       3.227   3.076  17.583  0.00  0.00    +0.000 S 
ATOM     21  O   UNL     1       2.161   3.389  16.655  0.00  0.00    +0.000 OA
ATOM     22  O   UNL     1       4.101   1.941  17.347  0.00  0.00    +0.000 OA
BRANCH  20  23
ATOM     23  C   UNL     1       2.545   2.953  19.207  0.00  0.00    +0.000 A 
ATOM     24  C   UNL     1       1.198   3.262  19.416  0.00  0.00    +0.000 A 
ATOM     25  C   UNL     1       0.668   3.176  20.702  0.00  0.00    +0.000 A 
ATOM     26  C   UNL     1       1.477   2.772  21.766  0.00  0.00    +0.000 A 
ATOM     27  C   UNL     1       2.813   2.429  21.544  0.00  0.00    +0.000 A 
ATOM     28  C   UNL     1       3.351   2.513  20.261  0.00  0.00    +0.000 A 
ENDBRANCH  20  23
ENDBRANCH  18  20
ENDBRANCH   3  18
TORSDOF 5
ENDMDL
MODEL 3
REMARK VINA RESULT:      -8.0      3.020      4.089
REMARK  Name = 
REMARK  5 active torsions:
REMARK  status: ('A' for Active; 'I' for Inactive)
REMARK    1  A    between atoms: C_2  and  C_14
REMARK    2  A    between atoms: N_3  and  N_4
REMARK    3  A    between atoms: N_4  and  S_5
REMARK    4  A    between atoms: S_5  and  C_8
REMARK    5  A    between atoms: C_18  and  N_19
REMARK                            x       y       z     vdW  Elec       q    Type
REMARK                         _______ _______ _______ _____ _____    ______ ____
ROOT
ATOM      1  O   UNL     1       2.495   5.079  21.039  0.00  0.00    +0.000 OA
ATOM      2  C   UNL     1       2.241   5.451  19.898  0.00  0.00    +0.000 C 
ATOM      3  N   UNL     1       2.117   4.588  18.827  0.00  0.00    +0.000 N 
ATOM      4  H   UNL     1       1.718   4.878  17.936  0.00  0.00    +0.000 HD
ENDROOT
BRANCH   2   5
ATOM      5  C   UNL     1       1.978   6.883  19.585  0.00  0.00    +0.000 A 
ATOM      6  C   UNL     1       2.254   7.360  18.301  0.00  0.00    +0.000 A 
ATOM      7  C   UNL     1       2.039   8.705  18.013  0.00  0.00    +0.000 A 
ATOM      8  C   UNL     1       1.539   9.562  19.000  0.00  0.00    +0.000 A 
ATOM      9  C   UNL     1       1.239   9.113  20.293  0.00  0.00    +0.000 A 
ATOM     10  C   UNL     1       1.462   7.755  20.559  0.00  0.00    +0.000 A 
BRANCH   9  11
ATOM     11  N   UNL     1       0.784   9.976  21.263  0.00  0.00    +0.000 N 
ATOM     12  C   UNL     1       0.664  11.427  21.063  0.00  0.00    +0.000 C 
ATOM     13  C   UNL     1      -0.704  11.903  21.611  0.00  0.00    +0.000 C 
ATOM     14  N   UNL     1      -0.949  11.523  23.016  0.00  0.00    +0.000 NA
ATOM     15  C   UNL     1      -0.767  10.065  23.176  0.00  0.00    +0.000 C 
ATOM     16  C   UNL     1       0.597   9.555  22.660  0.00  0.00    +0.000 C 
ATOM     17  H   UNL     1      -1.910  11.762  23.259  0.00  0.00    +0.000 HD
ENDBRANCH   9  11
ENDBRANCH   2   5
BRANCH   3  18
ATOM     18  N   UNL     1       2.266   3.162  19.039  0.00  0.00    +0.000 NA
ATOM     19  H   UNL     1       1.453   2.564  18.853  0.00  0.00    +0.000 HD
BRANCH  18  20
ATOM     20  S   UNL     1       3.825   2.525  18.865  0.00  0.00    +0.000 S 
ATOM     21  O   UNL     1       4.377   2.385  20.195  0.00  0.00    +0.000 OA
ATOM     22  O   UNL     1       3.731   1.378  17.980  0.00  0.00    +0.000 OA
BRANCH  20  23
ATOM     23  C   UNL     1       4.677   3.828  18.032  0.00  0.00    +0.000 A 
ATOM     24  C   UNL     1       5.543   4.657  18.752  0.00  0.00    +0.000 A 
ATOM     25  C   UNL     1       6.204   5.693  18.094  0.00  0.00    +0.000 A 
ATOM     26  C   UNL     1       6.008   5.887  16.725  0.00  0.00    +0.000 A 
ATOM     27  C   UNL     1       5.170   5.033  16.004  0.00  0.00    +0.000 A 
ATOM     28  C   UNL     1       4.506   3.995  16.656  0.00  0.00    +0.000 A 
ENDBRANCH  20  23
ENDBRANCH  18  20
ENDBRANCH   3  18
TORSDOF 5
ENDMDL
MODEL 4
REMARK VINA RESULT:      -7.9      3.963      9.288
REMARK  Name = 
REMARK  5 active torsions:
REMARK  status: ('A' for Active; 'I' for Inactive)
REMARK    1  A    between atoms: C_2  and  C_14
REMARK    2  A    between atoms: N_3  and  N_4
REMARK    3  A    between atoms: N_4  and  S_5
REMARK    4  A    between atoms: S_5  and  C_8
REMARK    5  A    between atoms: C_18  and  N_19
REMARK                            x       y       z     vdW  Elec       q    Type
REMARK                         _______ _______ _______ _____ _____    ______ ____
ROOT
ATOM      1  O   UNL     1       1.633   8.457  19.129  0.00  0.00    +0.000 OA
ATOM      2  C   UNL     1       1.967   7.714  20.046  0.00  0.00    +0.000 C 
ATOM      3  N   UNL     1       1.900   8.072  21.379  0.00  0.00    +0.000 N 
ATOM      4  H   UNL     1       1.991   7.392  22.130  0.00  0.00    +0.000 HD
ENDROOT
BRANCH   2   5
ATOM      5  C   UNL     1       2.420   6.318  19.792  0.00  0.00    +0.000 A 
ATOM      6  C   UNL     1       1.757   5.263  20.425  0.00  0.00    +0.000 A 
ATOM      7  C   UNL     1       2.196   3.959  20.215  0.00  0.00    +0.000 A 
ATOM      8  C   UNL     1       3.284   3.712  19.369  0.00  0.00    +0.000 A 
ATOM      9  C   UNL     1       3.961   4.747  18.709  0.00  0.00    +0.000 A 
ATOM     10  C   UNL     1       3.500   6.051  18.934  0.00  0.00    +0.000 A 
BRANCH   9  11
ATOM     11  N   UNL     1       5.052   4.492  17.910  0.00  0.00    +0.000 N 
ATOM     12  C   UNL     1       4.961   3.815  16.608  0.00  0.00    +0.000 C 
ATOM     13  C   UNL     1       5.818   4.586  15.575  0.00  0.00    +0.000 C 
ATOM     14  N   UNL     1       7.221   4.784  15.990  0.00  0.00    +0.000 NA
ATOM     15  C   UNL     1       7.259   5.421  17.324  0.00  0.00    +0.000 C 
ATOM     16  C   UNL     1       6.432   4.667  18.390  0.00  0.00    +0.000 C 
ATOM     17  H   UNL     1       7.679   5.401  15.319  0.00  0.00    +0.000 HD
ENDBRANCH   9  11
ENDBRANCH   2   5
BRANCH   3  18
ATOM     18  N   UNL     1       1.389   9.379  21.741  0.00  0.00    +0.000 NA
ATOM     19  H   UNL     1       1.611  10.166  21.121  0.00  0.00    +0.000 HD
BRANCH  18  20
ATOM     20  S   UNL     1      -0.036   9.414  22.654  0.00  0.00    +0.000 S 
ATOM     21  O   UNL     1      -0.819   8.261  22.264  0.00  0.00    +0.000 OA
ATOM     22  O   UNL     1       0.340   9.616  24.041  0.00  0.00    +0.000 OA
BRANCH  20  23
ATOM     23  C   UNL     1      -0.835  10.870  22.055  0.00  0.00    +0.000 A 
ATOM     24  C   UNL     1      -0.720  11.214  20.705  0.00  0.00    +0.000 A 
ATOM     25  C   UNL     1      -1.341  12.372  20.238  0.00  0.00    +0.000 A 
ATOM     26  C   UNL     1      -2.081  13.169  21.114  0.00  0.00    +0.000 A 
ATOM     27  C   UNL     1      -2.222  12.800  22.454  0.00  0.00    +0.000 A 
ATOM     28  C   UNL     1      -1.603  11.645  22.928  0.00  0.00    +0.000 A 
ENDBRANCH  20  23
ENDBRANCH  18  20
ENDBRANCH   3  18
TORSDOF 5
ENDMDL
MODEL 5
REMARK VINA RESULT:      -7.9      3.836      5.389
REMARK  Name = 
REMARK  5 active torsions:
REMARK  status: ('A' for Active; 'I' for Inactive)
REMARK    1  A    between atoms: C_2  and  C_14
REMARK    2  A    between atoms: N_3  and  N_4
REMARK    3  A    between atoms: N_4  and  S_5
REMARK    4  A    between atoms: S_5  and  C_8
REMARK    5  A    between atoms: C_18  and  N_19
REMARK                            x       y       z     vdW  Elec       q    Type
REMARK                         _______ _______ _______ _____ _____    ______ ____
ROOT
ATOM      1  O   UNL     1       2.876   8.274  17.091  0.00  0.00    +0.000 OA
ATOM      2  C   UNL     1       2.666   7.781  18.194  0.00  0.00    +0.000 C 
ATOM      3  N   UNL     1       3.317   6.655  18.661  0.00  0.00    +0.000 N 
ATOM      4  H   UNL     1       3.282   6.372  19.638  0.00  0.00    +0.000 HD
ENDROOT
BRANCH   2   5
ATOM      5  C   UNL     1       1.720   8.406  19.160  0.00  0.00    +0.000 A 
ATOM      6  C   UNL     1       1.709   7.961  20.484  0.00  0.00    +0.000 A 
ATOM      7  C   UNL     1       0.805   8.521  21.383  0.00  0.00    +0.000 A 
ATOM      8  C   UNL     1      -0.072   9.527  20.961  0.00  0.00    +0.000 A 
ATOM      9  C   UNL     1      -0.077  10.005  19.644  0.00  0.00    +0.000 A 
ATOM     10  C   UNL     1       0.843   9.427  18.757  0.00  0.00    +0.000 A 
BRANCH   9  11
ATOM     11  N   UNL     1      -0.971  10.967  19.235  0.00  0.00    +0.000 N 
ATOM     12  C   UNL     1      -1.664  10.929  17.939  0.00  0.00    +0.000 C 
ATOM     13  C   UNL     1      -3.162  11.254  18.156  0.00  0.00    +0.000 C 
ATOM     14  N   UNL     1      -3.400  12.528  18.865  0.00  0.00    +0.000 NA
ATOM     15  C   UNL     1      -2.642  12.538  20.135  0.00  0.00    +0.000 C 
ATOM     16  C   UNL     1      -1.138  12.238  19.957  0.00  0.00    +0.000 C 
ATOM     17  H   UNL     1      -4.394  12.606  19.076  0.00  0.00    +0.000 HD
ENDBRANCH   9  11
ENDBRANCH   2   5
BRANCH   3  18
ATOM     18  N   UNL     1       4.323   6.019  17.834  0.00  0.00    +0.000 NA
ATOM     19  H   UNL     1       5.065   6.612  17.444  0.00  0.00    +0.000 HD
BRANCH  18  20
ATOM     20  S   UNL     1       4.639   4.384  18.140  0.00  0.00    +0.000 S 
ATOM     21  O   UNL     1       4.796   3.735  16.856  0.00  0.00    +0.000 OA
ATOM     22  O   UNL     1       5.696   4.322  19.133  0.00  0.00    +0.000 OA
BRANCH  20  23
ATOM     23  C   UNL     1       3.128   3.836  18.871  0.00  0.00    +0.000 A 
ATOM     24  C   UNL     1       2.099   3.359  18.054  0.00  0.00    +0.000 A 
ATOM     25  C   UNL     1       0.903   2.940  18.634  0.00  0.00    +0.000 A 
ATOM     26  C   UNL     1       0.745   2.986  20.020  0.00  0.00    +0.000 A 
ATOM     27  C   UNL     1       1.790   3.429  20.834  0.00  0.00    +0.000 A 
ATOM     28  C   UNL     1       2.989   3.851  20.261  0.00  0.00    +0.000 A 
ENDBRANCH  20  23
ENDBRANCH  18  20
ENDBRANCH   3  18
TORSDOF 5
ENDMDL
MODEL 6
REMARK VINA RESULT:      -7.9      3.293      4.229
REMARK  Name = 
REMARK  5 active torsions:
REMARK  status: ('A' for Active; 'I' for Inactive)
REMARK    1  A    between atoms: C_2  and  C_14
REMARK    2  A    between atoms: N_3  and  N_4
REMARK    3  A    between atoms: N_4  and  S_5
REMARK    4  A    between atoms: S_5  and  C_8
REMARK    5  A    between atoms: C_18  and  N_19
REMARK                            x       y       z     vdW  Elec       q    Type
REMARK                         _______ _______ _______ _____ _____    ______ ____
ROOT
ATOM      1  O   UNL     1       1.222   4.304  19.053  0.00  0.00    +0.000 OA
ATOM      2  C   UNL     1       1.966   5.087  19.633  0.00  0.00    +0.000 C 
ATOM      3  N   UNL     1       2.954   4.689  20.512  0.00  0.00    +0.000 N 
ATOM      4  H   UNL     1       3.685   5.321  20.833  0.00  0.00    +0.000 HD
ENDROOT
BRANCH   2   5
ATOM      5  C   UNL     1       1.903   6.554  19.380  0.00  0.00    +0.000 A 
ATOM      6  C   UNL     1       2.313   7.048  18.140  0.00  0.00    +0.000 A 
ATOM      7  C   UNL     1       2.286   8.421  17.910  0.00  0.00    +0.000 A 
ATOM      8  C   UNL     1       1.840   9.291  18.912  0.00  0.00    +0.000 A 
ATOM      9  C   UNL     1       1.410   8.826  20.162  0.00  0.00    +0.000 A 
ATOM     10  C   UNL     1       1.445   7.440  20.370  0.00  0.00    +0.000 A 
BRANCH   9  11
ATOM     11  N   UNL     1       1.010   9.697  21.150  0.00  0.00    +0.000 N 
ATOM     12  C   UNL     1       0.845  11.142  20.937  0.00  0.00    +0.000 C 
ATOM     13  C   UNL     1      -0.488  11.599  21.578  0.00  0.00    +0.000 C 
ATOM     14  N   UNL     1      -0.620  11.239  23.004  0.00  0.00    +0.000 NA
ATOM     15  C   UNL     1      -0.395   9.787  23.173  0.00  0.00    +0.000 C 
ATOM     16  C   UNL     1       0.937   9.296  22.564  0.00  0.00    +0.000 C 
ATOM     17  H   UNL     1      -1.565  11.463  23.314  0.00  0.00    +0.000 HD
ENDBRANCH   9  11
ENDBRANCH   2   5
BRANCH   3  18
ATOM     18  N   UNL     1       3.159   3.277  20.762  0.00  0.00    +0.000 NA
ATOM     19  H   UNL     1       2.423   2.770  21.268  0.00  0.00    +0.000 HD
BRANCH  18  20
ATOM     20  S   UNL     1       4.138   2.442  19.662  0.00  0.00    +0.000 S 
ATOM     21  O   UNL     1       5.235   1.873  20.417  0.00  0.00    +0.000 OA
ATOM     22  O   UNL     1       3.273   1.593  18.864  0.00  0.00    +0.000 OA
BRANCH  20  23
ATOM     23  C   UNL     1       4.764   3.744  18.647  0.00  0.00    +0.000 A 
ATOM     24  C   UNL     1       4.336   3.852  17.321  0.00  0.00    +0.000 A 
ATOM     25  C   UNL     1       4.843   4.873  16.519  0.00  0.00    +0.000 A 
ATOM     26  C   UNL     1       5.760   5.786  17.046  0.00  0.00    +0.000 A 
ATOM     27  C   UNL     1       6.155   5.694  18.383  0.00  0.00    +0.000 A 
ATOM     28  C   UNL     1       5.654   4.675  19.190  0.00  0.00    +0.000 A 
ENDBRANCH  20  23
ENDBRANCH  18  20
ENDBRANCH   3  18
TORSDOF 5
ENDMDL
MODEL 7
REMARK VINA RESULT:      -7.7      3.841      8.675
REMARK  Name = 
REMARK  5 active torsions:
REMARK  status: ('A' for Active; 'I' for Inactive)
REMARK    1  A    between atoms: C_2  and  C_14
REMARK    2  A    between atoms: N_3  and  N_4
REMARK    3  A    between atoms: N_4  and  S_5
REMARK    4  A    between atoms: S_5  and  C_8
REMARK    5  A    between atoms: C_18  and  N_19
REMARK                            x       y       z     vdW  Elec       q    Type
REMARK                         _______ _______ _______ _____ _____    ______ ____
ROOT
ATOM      1  O   UNL     1       1.906   8.601  19.274  0.00  0.00    +0.000 OA
ATOM      2  C   UNL     1       2.065   7.679  20.067  0.00  0.00    +0.000 C 
ATOM      3  N   UNL     1       1.899   7.812  21.432  0.00  0.00    +0.000 N 
ATOM      4  H   UNL     1       1.840   7.009  22.055  0.00  0.00    +0.000 HD
ENDROOT
BRANCH   2   5
ATOM      5  C   UNL     1       2.391   6.301  19.606  0.00  0.00    +0.000 A 
ATOM      6  C   UNL     1       1.582   5.238  20.013  0.00  0.00    +0.000 A 
ATOM      7  C   UNL     1       1.901   3.945  19.609  0.00  0.00    +0.000 A 
ATOM      8  C   UNL     1       3.017   3.720  18.794  0.00  0.00    +0.000 A 
ATOM      9  C   UNL     1       3.842   4.765  18.358  0.00  0.00    +0.000 A 
ATOM     10  C   UNL     1       3.499   6.059  18.776  0.00  0.00    +0.000 A 
BRANCH   9  11
ATOM     11  N   UNL     1       4.957   4.524  17.589  0.00  0.00    +0.000 N 
ATOM     12  C   UNL     1       4.894   4.021  16.209  0.00  0.00    +0.000 C 
ATOM     13  C   UNL     1       5.865   4.842  15.326  0.00  0.00    +0.000 C 
ATOM     14  N   UNL     1       7.252   4.875  15.833  0.00  0.00    +0.000 NA
ATOM     15  C   UNL     1       7.256   5.338  17.237  0.00  0.00    +0.000 C 
ATOM     16  C   UNL     1       6.315   4.528  18.155  0.00  0.00    +0.000 C 
ATOM     17  H   UNL     1       7.793   5.530  15.269  0.00  0.00    +0.000 HD
ENDBRANCH   9  11
ENDBRANCH   2   5
BRANCH   3  18
ATOM     18  N   UNL     1       1.494   9.092  21.979  0.00  0.00    +0.000 NA
ATOM     19  H   UNL     1       2.114   9.895  21.825  0.00  0.00    +0.000 HD
BRANCH  18  20
ATOM     20  S   UNL     1      -0.169   9.349  22.167  0.00  0.00    +0.000 S 
ATOM     21  O   UNL     1      -0.834   8.122  21.786  0.00  0.00    +0.000 OA
ATOM     22  O   UNL     1      -0.376   9.924  23.483  0.00  0.00    +0.000 OA
BRANCH  20  23
ATOM     23  C   UNL     1      -0.503  10.577  20.942  0.00  0.00    +0.000 A 
ATOM     24  C   UNL     1      -0.922  10.185  19.668  0.00  0.00    +0.000 A 
ATOM     25  C   UNL     1      -1.171  11.157  18.700  0.00  0.00    +0.000 A 
ATOM     26  C   UNL     1      -1.015  12.509  19.012  0.00  0.00    +0.000 A 
ATOM     27  C   UNL     1      -0.632  12.896  20.298  0.00  0.00    +0.000 A 
ATOM     28  C   UNL     1      -0.380  11.930  21.271  0.00  0.00    +0.000 A 
ENDBRANCH  20  23
ENDBRANCH  18  20
ENDBRANCH   3  18
TORSDOF 5
ENDMDL
MODEL 8
REMARK VINA RESULT:      -7.7      4.463      6.941
REMARK  Name = 
REMARK  5 active torsions:
REMARK  status: ('A' for Active; 'I' for Inactive)
REMARK    1  A    between atoms: C_2  and  C_14
REMARK    2  A    between atoms: N_3  and  N_4
REMARK    3  A    between atoms: N_4  and  S_5
REMARK    4  A    between atoms: S_5  and  C_8
REMARK    5  A    between atoms: C_18  and  N_19
REMARK                            x       y       z     vdW  Elec       q    Type
REMARK                         _______ _______ _______ _____ _____    ______ ____
ROOT
ATOM      1  O   UNL     1       1.346   9.157  21.886  0.00  0.00    +0.000 OA
ATOM      2  C   UNL     1       1.206   9.222  20.669  0.00  0.00    +0.000 C 
ATOM      3  N   UNL     1       1.705   8.276  19.794  0.00  0.00    +0.000 N 
ATOM      4  H   UNL     1       1.420   8.234  18.818  0.00  0.00    +0.000 HD
ENDROOT
BRANCH   2   5
ATOM      5  C   UNL     1       0.418  10.314  20.032  0.00  0.00    +0.000 A 
ATOM      6  C   UNL     1       0.725  11.641  20.339  0.00  0.00    +0.000 A 
ATOM      7  C   UNL     1      -0.029  12.664  19.770  0.00  0.00    +0.000 A 
ATOM      8  C   UNL     1      -1.074  12.359  18.891  0.00  0.00    +0.000 A 
ATOM      9  C   UNL     1      -1.399  11.038  18.552  0.00  0.00    +0.000 A 
ATOM     10  C   UNL     1      -0.625  10.026  19.136  0.00  0.00    +0.000 A 
BRANCH   9  11
ATOM     11  N   UNL     1      -2.454  10.752  17.715  0.00  0.00    +0.000 N 
ATOM     12  C   UNL     1      -3.858  10.995  18.074  0.00  0.00    +0.000 C 
ATOM     13  C   UNL     1      -4.577  11.669  16.879  0.00  0.00    +0.000 C 
ATOM     14  N   UNL     1      -4.458  10.921  15.611  0.00  0.00    +0.000 NA
ATOM     15  C   UNL     1      -3.032  10.657  15.322  0.00  0.00    +0.000 C 
ATOM     16  C   UNL     1      -2.285   9.966  16.484  0.00  0.00    +0.000 C 
ATOM     17  H   UNL     1      -4.847  11.486  14.857  0.00  0.00    +0.000 HD
ENDBRANCH   9  11
ENDBRANCH   2   5
BRANCH   3  18
ATOM     18  N   UNL     1       2.412   7.125  20.317  0.00  0.00    +0.000 NA
ATOM     19  H   UNL     1       2.111   6.751  21.224  0.00  0.00    +0.000 HD
BRANCH  18  20
ATOM     20  S   UNL     1       3.122   6.087  19.183  0.00  0.00    +0.000 S 
ATOM     21  O   UNL     1       2.824   6.622  17.872  0.00  0.00    +0.000 OA
ATOM     22  O   UNL     1       4.496   5.865  19.595  0.00  0.00    +0.000 OA
BRANCH  20  23
ATOM     23  C   UNL     1       2.204   4.595  19.408  0.00  0.00    +0.000 A 
ATOM     24  C   UNL     1       1.895   4.163  20.701  0.00  0.00    +0.000 A 
ATOM     25  C   UNL     1       1.182   2.977  20.874  0.00  0.00    +0.000 A 
ATOM     26  C   UNL     1       0.771   2.241  19.762  0.00  0.00    +0.000 A 
ATOM     27  C   UNL     1       1.051   2.697  18.471  0.00  0.00    +0.000 A 
ATOM     28  C   UNL     1       1.764   3.881  18.290  0.00  0.00    +0.000 A 
ENDBRANCH  20  23
ENDBRANCH  18  20
ENDBRANCH   3  18
TORSDOF 5
ENDMDL
MODEL 9
REMARK VINA RESULT:      -7.7      3.912      5.778
REMARK  Name = 
REMARK  5 active torsions:
REMARK  status: ('A' for Active; 'I' for Inactive)
REMARK    1  A    between atoms: C_2  and  C_14
REMARK    2  A    between atoms: N_3  and  N_4
REMARK    3  A    between atoms: N_4  and  S_5
REMARK    4  A    between atoms: S_5  and  C_8
REMARK    5  A    between atoms: C_18  and  N_19
REMARK                            x       y       z     vdW  Elec       q    Type
REMARK                         _______ _______ _______ _____ _____    ______ ____
ROOT
ATOM      1  O   UNL     1       2.226   8.947  17.304  0.00  0.00    +0.000 OA
ATOM      2  C   UNL     1       2.119   8.423  18.408  0.00  0.00    +0.000 C 
ATOM      3  N   UNL     1       2.802   7.281  18.777  0.00  0.00    +0.000 N 
ATOM      4  H   UNL     1       2.859   6.969  19.745  0.00  0.00    +0.000 HD
ENDROOT
BRANCH   2   5
ATOM      5  C   UNL     1       1.277   9.026  19.478  0.00  0.00    +0.000 A 
ATOM      6  C   UNL     1       1.263   8.437  20.744  0.00  0.00    +0.000 A 
ATOM      7  C   UNL     1       0.454   8.978  21.740  0.00  0.00    +0.000 A 
ATOM      8  C   UNL     1      -0.325  10.110  21.471  0.00  0.00    +0.000 A 
ATOM      9  C   UNL     1      -0.324  10.733  20.216  0.00  0.00    +0.000 A 
ATOM     10  C   UNL     1       0.500  10.171  19.231  0.00  0.00    +0.000 A 
BRANCH   9  11
ATOM     11  N   UNL     1      -1.124  11.822  19.956  0.00  0.00    +0.000 N 
ATOM     12  C   UNL     1      -2.372  11.742  19.184  0.00  0.00    +0.000 C 
ATOM     13  C   UNL     1      -3.475  12.543  19.918  0.00  0.00    +0.000 C 
ATOM     14  N   UNL     1      -3.102  13.942  20.211  0.00  0.00    +0.000 NA
ATOM     15  C   UNL     1      -1.817  13.971  20.943  0.00  0.00    +0.000 C 
ATOM     16  C   UNL     1      -0.685  13.199  20.229  0.00  0.00    +0.000 C 
ATOM     17  H   UNL     1      -3.824  14.358  20.798  0.00  0.00    +0.000 HD
ENDBRANCH   9  11
ENDBRANCH   2   5
BRANCH   3  18
ATOM     18  N   UNL     1       3.717   6.663  17.839  0.00  0.00    +0.000 NA
ATOM     19  H   UNL     1       4.254   7.279  17.219  0.00  0.00    +0.000 HD
BRANCH  18  20
ATOM     20  S   UNL     1       4.361   5.160  18.280  0.00  0.00    +0.000 S 
ATOM     21  O   UNL     1       4.748   4.489  17.057  0.00  0.00    +0.000 OA
ATOM     22  O   UNL     1       5.332   5.394  19.332  0.00  0.00    +0.000 OA
BRANCH  20  23
ATOM     23  C   UNL     1       2.959   4.331  18.962  0.00  0.00    +0.000 A 
ATOM     24  C   UNL     1       2.081   3.648  18.115  0.00  0.00    +0.000 A 
ATOM     25  C   UNL     1       0.968   3.007  18.656  0.00  0.00    +0.000 A 
ATOM     26  C   UNL     1       0.745   3.038  20.034  0.00  0.00    +0.000 A 
ATOM     27  C   UNL     1       1.646   3.691  20.879  0.00  0.00    +0.000 A 
ATOM     28  C   UNL     1       2.760   4.336  20.345  0.00  0.00    +0.000 A 
ENDBRANCH  20  23
ENDBRANCH  18  20
ENDBRANCH   3  18
TORSDOF 5
ENDMDL
