MODEL 1
REMARK VINA RESULT:      -7.0      0.000      0.000
REMARK  Name = 
REMARK  9 active torsions:
REMARK  status: ('A' for Active; 'I' for Inactive)
REMARK    1  A    between atoms: C_1  and  O_2
REMARK    2  A    between atoms: O_2  and  N_3
REMARK    3  A    between atoms: C_4  and  C_5
REMARK    4  A    between atoms: C_4  and  C_6
REMARK    5  A    between atoms: C_9  and  O_10
REMARK    6  A    between atoms: O_10  and  C_11
REMARK    7  A    between atoms: C_11  and  C_12
REMARK    8  A    between atoms: C_12  and  C_13
REMARK    9  A    between atoms: C_13  and  C_14
REMARK                            x       y       z     vdW  Elec       q    Type
REMARK                         _______ _______ _______ _____ _____    ______ ____
ROOT
ATOM      1  C   UNL     1       5.648   6.352  17.769  0.00  0.00    +0.000 A 
ATOM      2  C   UNL     1       5.686   5.520  18.890  0.00  0.00    +0.000 A 
ATOM      3  C   UNL     1       4.557   5.309  19.686  0.00  0.00    +0.000 A 
ATOM      4  C   UNL     1       3.330   5.862  19.337  0.00  0.00    +0.000 A 
ATOM      5  C   UNL     1       3.255   6.671  18.224  0.00  0.00    +0.000 A 
ATOM      6  C   UNL     1       4.424   6.989  17.530  0.00  0.00    +0.000 A 
ENDROOT
BRANCH   1   8
ATOM      7  N   UNL     1       7.535   6.030  16.034  0.00  0.00    +0.000 NA
ATOM      8  C   UNL     1       6.923   6.627  17.012  0.00  0.00    +0.000 C 
ATOM      9  C   UNL     1       7.722   7.873  17.434  0.00  0.00    +0.000 C 
BRANCH   7  11
ATOM     10  C   UNL     1       6.447   4.399  14.599  0.00  0.00    +0.000 C 
ATOM     11  O   UNL     1       7.368   4.728  15.592  0.00  0.00    +0.000 OA
ENDBRANCH   7  11
ENDBRANCH   1   8
BRANCH   4  12
ATOM     12  O   UNL     1       2.167   5.727  20.034  0.00  0.00    +0.000 OA
BRANCH  12  13
ATOM     13  C   UNL     1       2.001   4.432  20.587  0.00  0.00    +0.000 C 
BRANCH  13  14
ATOM     14  C   UNL     1       0.712   3.837  20.080  0.00  0.00    +0.000 C 
BRANCH  14  15
ATOM     15  C   UNL     1       1.034   2.477  19.478  0.00  0.00    +0.000 C 
BRANCH  15  16
ATOM     16  C   UNL     1       2.213   2.550  18.606  0.00  0.00    +0.000 A 
ATOM     17  C   UNL     1       3.466   2.004  18.797  0.00  0.00    +0.000 A 
ATOM     18  N   UNL     1       4.160   2.323  17.664  0.00  0.00    +0.000 N 
ATOM     19  C   UNL     1       3.311   3.030  16.849  0.00  0.00    +0.000 A 
ATOM     20  N   UNL     1       2.139   3.189  17.398  0.00  0.00    +0.000 NA
ATOM     21  H   UNL     1       5.119   2.075  17.454  0.00  0.00    +0.000 HD
ENDBRANCH  15  16
ENDBRANCH  14  15
ENDBRANCH  13  14
ENDBRANCH  12  13
ENDBRANCH   4  12
TORSDOF 7
ENDMDL
MODEL 2
REMARK VINA RESULT:      -7.0      1.136      2.134
REMARK  Name = 
REMARK  9 active torsions:
REMARK  status: ('A' for Active; 'I' for Inactive)
REMARK    1  A    between atoms: C_1  and  O_2
REMARK    2  A    between atoms: O_2  and  N_3
REMARK    3  A    between atoms: C_4  and  C_5
REMARK    4  A    between atoms: C_4  and  C_6
REMARK    5  A    between atoms: C_9  and  O_10
REMARK    6  A    between atoms: O_10  and  C_11
REMARK    7  A    between atoms: C_11  and  C_12
REMARK    8  A    between atoms: C_12  and  C_13
REMARK    9  A    between atoms: C_13  and  C_14
REMARK                            x       y       z     vdW  Elec       q    Type
REMARK                         _______ _______ _______ _____ _____    ______ ____
ROOT
ATOM      1  C   UNL     1       5.473   6.130  17.754  0.00  0.00    +0.000 A 
ATOM      2  C   UNL     1       4.358   6.868  17.346  0.00  0.00    +0.000 A 
ATOM      3  C   UNL     1       3.151   6.822  18.048  0.00  0.00    +0.000 A 
ATOM      4  C   UNL     1       3.046   6.100  19.231  0.00  0.00    +0.000 A 
ATOM      5  C   UNL     1       4.134   5.378  19.671  0.00  0.00    +0.000 A 
ATOM      6  C   UNL     1       5.281   5.317  18.877  0.00  0.00    +0.000 A 
ENDROOT
BRANCH   1   8
ATOM      7  N   UNL     1       7.677   6.986  16.712  0.00  0.00    +0.000 NA
ATOM      8  C   UNL     1       6.713   6.134  16.896  0.00  0.00    +0.000 C 
ATOM      9  C   UNL     1       6.956   4.888  16.027  0.00  0.00    +0.000 C 
BRANCH   7  11
ATOM     10  C   UNL     1       8.341   8.842  18.133  0.00  0.00    +0.000 C 
ATOM     11  O   UNL     1       7.687   8.338  17.009  0.00  0.00    +0.000 OA
ENDBRANCH   7  11
ENDBRANCH   1   8
BRANCH   4  12
ATOM     12  O   UNL     1       1.924   5.981  19.997  0.00  0.00    +0.000 OA
BRANCH  12  13
ATOM     13  C   UNL     1       1.973   4.874  20.880  0.00  0.00    +0.000 C 
BRANCH  13  14
ATOM     14  C   UNL     1       0.893   3.891  20.505  0.00  0.00    +0.000 C 
BRANCH  14  15
ATOM     15  C   UNL     1       1.526   2.508  20.442  0.00  0.00    +0.000 C 
BRANCH  15  16
ATOM     16  C   UNL     1       2.388   2.374  19.261  0.00  0.00    +0.000 A 
ATOM     17  C   UNL     1       3.639   1.800  19.163  0.00  0.00    +0.000 A 
ATOM     18  N   UNL     1       3.960   1.891  17.838  0.00  0.00    +0.000 N 
ATOM     19  C   UNL     1       2.907   2.501  17.202  0.00  0.00    +0.000 A 
ATOM     20  N   UNL     1       1.955   2.811  18.038  0.00  0.00    +0.000 NA
ATOM     21  H   UNL     1       4.811   1.561  17.399  0.00  0.00    +0.000 HD
ENDBRANCH  15  16
ENDBRANCH  14  15
ENDBRANCH  13  14
ENDBRANCH  12  13
ENDBRANCH   4  12
TORSDOF 7
ENDMDL
MODEL 3
REMARK VINA RESULT:      -6.9      0.223      1.083
REMARK  Name = 
REMARK  9 active torsions:
REMARK  status: ('A' for Active; 'I' for Inactive)
REMARK    1  A    between atoms: C_1  and  O_2
REMARK    2  A    between atoms: O_2  and  N_3
REMARK    3  A    between atoms: C_4  and  C_5
REMARK    4  A    between atoms: C_4  and  C_6
REMARK    5  A    between atoms: C_9  and  O_10
REMARK    6  A    between atoms: O_10  and  C_11
REMARK    7  A    between atoms: C_11  and  C_12
REMARK    8  A    between atoms: C_12  and  C_13
REMARK    9  A    between atoms: C_13  and  C_14
REMARK                            x       y       z     vdW  Elec       q    Type
REMARK                         _______ _______ _______ _____ _____    ______ ____
ROOT
ATOM      1  C   UNL     1       5.598   6.362  17.888  0.00  0.00    +0.000 A 
ATOM      2  C   UNL     1       4.401   6.937  17.451  0.00  0.00    +0.000 A 
ATOM      3  C   UNL     1       3.184   6.662  18.079  0.00  0.00    +0.000 A 
ATOM      4  C   UNL     1       3.137   5.867  19.219  0.00  0.00    +0.000 A 
ATOM      5  C   UNL     1       4.304   5.302  19.687  0.00  0.00    +0.000 A 
ATOM      6  C   UNL     1       5.484   5.468  18.958  0.00  0.00    +0.000 A 
ENDROOT
BRANCH   1   8
ATOM      7  N   UNL     1       7.457   5.983  16.134  0.00  0.00    +0.000 NA
ATOM      8  C   UNL     1       6.862   6.610  17.104  0.00  0.00    +0.000 C 
ATOM      9  C   UNL     1       7.673   7.864  17.479  0.00  0.00    +0.000 C 
BRANCH   7  11
ATOM     10  C   UNL     1       6.590   4.345  14.563  0.00  0.00    +0.000 C 
ATOM     11  O   UNL     1       7.278   4.670  15.731  0.00  0.00    +0.000 OA
ENDBRANCH   7  11
ENDBRANCH   1   8
BRANCH   4  12
ATOM     12  O   UNL     1       2.013   5.530  19.912  0.00  0.00    +0.000 OA
BRANCH  12  13
ATOM     13  C   UNL     1       1.998   4.171  20.315  0.00  0.00    +0.000 C 
BRANCH  13  14
ATOM     14  C   UNL     1       0.665   3.563  19.964  0.00  0.00    +0.000 C 
BRANCH  14  15
ATOM     15  C   UNL     1       0.927   2.344  19.090  0.00  0.00    +0.000 C 
BRANCH  15  16
ATOM     16  C   UNL     1       2.196   2.476  18.364  0.00  0.00    +0.000 A 
ATOM     17  C   UNL     1       3.416   1.894  18.641  0.00  0.00    +0.000 A 
ATOM     18  N   UNL     1       4.234   2.303  17.626  0.00  0.00    +0.000 N 
ATOM     19  C   UNL     1       3.486   3.096  16.791  0.00  0.00    +0.000 A 
ATOM     20  N   UNL     1       2.262   3.225  17.220  0.00  0.00    +0.000 NA
ATOM     21  H   UNL     1       5.209   2.058  17.501  0.00  0.00    +0.000 HD
ENDBRANCH  15  16
ENDBRANCH  14  15
ENDBRANCH  13  14
ENDBRANCH  12  13
ENDBRANCH   4  12
TORSDOF 7
ENDMDL
MODEL 4
REMARK VINA RESULT:      -6.7      1.117      1.411
REMARK  Name = 
REMARK  9 active torsions:
REMARK  status: ('A' for Active; 'I' for Inactive)
REMARK    1  A    between atoms: C_1  and  O_2
REMARK    2  A    between atoms: O_2  and  N_3
REMARK    3  A    between atoms: C_4  and  C_5
REMARK    4  A    between atoms: C_4  and  C_6
REMARK    5  A    between atoms: C_9  and  O_10
REMARK    6  A    between atoms: O_10  and  C_11
REMARK    7  A    between atoms: C_11  and  C_12
REMARK    8  A    between atoms: C_12  and  C_13
REMARK    9  A    between atoms: C_13  and  C_14
REMARK                            x       y       z     vdW  Elec       q    Type
REMARK                         _______ _______ _______ _____ _____    ______ ____
ROOT
ATOM      1  C   UNL     1       5.527   6.280  17.838  0.00  0.00    +0.000 A 
ATOM      2  C   UNL     1       5.336   5.506  18.985  0.00  0.00    +0.000 A 
ATOM      3  C   UNL     1       4.097   5.440  19.627  0.00  0.00    +0.000 A 
ATOM      4  C   UNL     1       2.985   6.083  19.091  0.00  0.00    +0.000 A 
ATOM      5  C   UNL     1       3.137   6.838  17.949  0.00  0.00    +0.000 A 
ATOM      6  C   UNL     1       4.414   7.012  17.409  0.00  0.00    +0.000 A 
ENDROOT
BRANCH   1   8
ATOM      7  N   UNL     1       7.404   6.224  16.062  0.00  0.00    +0.000 NA
ATOM      8  C   UNL     1       6.912   6.399  17.252  0.00  0.00    +0.000 C 
ATOM      9  C   UNL     1       8.036   6.820  18.216  0.00  0.00    +0.000 C 
BRANCH   7  11
ATOM     10  C   UNL     1       6.622   4.155  15.058  0.00  0.00    +0.000 C 
ATOM     11  O   UNL     1       6.846   5.530  15.003  0.00  0.00    +0.000 OA
ENDBRANCH   7  11
ENDBRANCH   1   8
BRANCH   4  12
ATOM     12  O   UNL     1       1.732   6.090  19.628  0.00  0.00    +0.000 OA
BRANCH  12  13
ATOM     13  C   UNL     1       1.589   5.183  20.709  0.00  0.00    +0.000 C 
BRANCH  13  14
ATOM     14  C   UNL     1       0.766   4.003  20.260  0.00  0.00    +0.000 C 
BRANCH  14  15
ATOM     15  C   UNL     1       1.365   2.754  20.890  0.00  0.00    +0.000 C 
BRANCH  15  16
ATOM     16  C   UNL     1       2.562   2.316  20.162  0.00  0.00    +0.000 A 
ATOM     17  C   UNL     1       2.693   1.989  18.828  0.00  0.00    +0.000 A 
ATOM     18  N   UNL     1       4.021   1.708  18.667  0.00  0.00    +0.000 N 
ATOM     19  C   UNL     1       4.626   1.879  19.888  0.00  0.00    +0.000 A 
ATOM     20  N   UNL     1       3.768   2.233  20.804  0.00  0.00    +0.000 NA
ATOM     21  H   UNL     1       4.480   1.436  17.807  0.00  0.00    +0.000 HD
ENDBRANCH  15  16
ENDBRANCH  14  15
ENDBRANCH  13  14
ENDBRANCH  12  13
ENDBRANCH   4  12
TORSDOF 7
ENDMDL
MODEL 5
REMARK VINA RESULT:      -6.5      1.686      2.419
REMARK  Name = 
REMARK  9 active torsions:
REMARK  status: ('A' for Active; 'I' for Inactive)
REMARK    1  A    between atoms: C_1  and  O_2
REMARK    2  A    between atoms: O_2  and  N_3
REMARK    3  A    between atoms: C_4  and  C_5
REMARK    4  A    between atoms: C_4  and  C_6
REMARK    5  A    between atoms: C_9  and  O_10
REMARK    6  A    between atoms: O_10  and  C_11
REMARK    7  A    between atoms: C_11  and  C_12
REMARK    8  A    between atoms: C_12  and  C_13
REMARK    9  A    between atoms: C_13  and  C_14
REMARK                            x       y       z     vdW  Elec       q    Type
REMARK                         _______ _______ _______ _____ _____    ______ ____
ROOT
ATOM      1  C   UNL     1       5.431   4.899  16.977  0.00  0.00    +0.000 A 
ATOM      2  C   UNL     1       4.421   4.030  16.555  0.00  0.00    +0.000 A 
ATOM      3  C   UNL     1       3.123   4.111  17.066  0.00  0.00    +0.000 A 
ATOM      4  C   UNL     1       2.773   5.121  17.957  0.00  0.00    +0.000 A 
ATOM      5  C   UNL     1       3.742   6.005  18.377  0.00  0.00    +0.000 A 
ATOM      6  C   UNL     1       5.065   5.815  17.970  0.00  0.00    +0.000 A 
ENDROOT
BRANCH   1   8
ATOM      7  N   UNL     1       7.958   4.364  17.040  0.00  0.00    +0.000 NA
ATOM      8  C   UNL     1       6.837   4.694  16.472  0.00  0.00    +0.000 C 
ATOM      9  C   UNL     1       7.067   4.899  14.964  0.00  0.00    +0.000 C 
BRANCH   7  11
ATOM     10  C   UNL     1       8.160   5.602  19.121  0.00  0.00    +0.000 C 
ATOM     11  O   UNL     1       8.283   4.424  18.385  0.00  0.00    +0.000 OA
ENDBRANCH   7  11
ENDBRANCH   1   8
BRANCH   4  12
ATOM     12  O   UNL     1       1.544   5.297  18.520  0.00  0.00    +0.000 OA
BRANCH  12  13
ATOM     13  C   UNL     1       1.562   5.177  19.932  0.00  0.00    +0.000 C 
BRANCH  13  14
ATOM     14  C   UNL     1       0.859   3.905  20.331  0.00  0.00    +0.000 C 
BRANCH  14  15
ATOM     15  C   UNL     1       1.829   3.080  21.165  0.00  0.00    +0.000 C 
BRANCH  15  16
ATOM     16  C   UNL     1       2.881   2.493  20.326  0.00  0.00    +0.000 A 
ATOM     17  C   UNL     1       4.250   2.638  20.424  0.00  0.00    +0.000 A 
ATOM     18  N   UNL     1       4.756   1.838  19.440  0.00  0.00    +0.000 N 
ATOM     19  C   UNL     1       3.692   1.248  18.803  0.00  0.00    +0.000 A 
ATOM     20  N   UNL     1       2.554   1.635  19.310  0.00  0.00    +0.000 NA
ATOM     21  H   UNL     1       5.734   1.692  19.224  0.00  0.00    +0.000 HD
ENDBRANCH  15  16
ENDBRANCH  14  15
ENDBRANCH  13  14
ENDBRANCH  12  13
ENDBRANCH   4  12
TORSDOF 7
ENDMDL
MODEL 6
REMARK VINA RESULT:      -6.5      2.208      3.251
REMARK  Name = 
REMARK  9 active torsions:
REMARK  status: ('A' for Active; 'I' for Inactive)
REMARK    1  A    between atoms: C_1  and  O_2
REMARK    2  A    between atoms: O_2  and  N_3
REMARK    3  A    between atoms: C_4  and  C_5
REMARK    4  A    between atoms: C_4  and  C_6
REMARK    5  A    between atoms: C_9  and  O_10
REMARK    6  A    between atoms: O_10  and  C_11
REMARK    7  A    between atoms: C_11  and  C_12
REMARK    8  A    between atoms: C_12  and  C_13
REMARK    9  A    between atoms: C_13  and  C_14
REMARK                            x       y       z     vdW  Elec       q    Type
REMARK                         _______ _______ _______ _____ _____    ______ ____
ROOT
ATOM      1  C   UNL     1       5.693   4.819  17.291  0.00  0.00    +0.000 A 
ATOM      2  C   UNL     1       5.788   4.426  18.628  0.00  0.00    +0.000 A 
ATOM      3  C   UNL     1       4.794   3.657  19.239  0.00  0.00    +0.000 A 
ATOM      4  C   UNL     1       3.711   3.185  18.505  0.00  0.00    +0.000 A 
ATOM      5  C   UNL     1       3.600   3.538  17.178  0.00  0.00    +0.000 A 
ATOM      6  C   UNL     1       4.524   4.430  16.627  0.00  0.00    +0.000 A 
ENDROOT
BRANCH   1   8
ATOM      7  N   UNL     1       7.394   5.771  15.594  0.00  0.00    +0.000 NA
ATOM      8  C   UNL     1       6.742   5.739  16.718  0.00  0.00    +0.000 C 
ATOM      9  C   UNL     1       7.180   6.922  17.600  0.00  0.00    +0.000 C 
BRANCH   7  11
ATOM     10  C   UNL     1       6.569   4.370  13.789  0.00  0.00    +0.000 C 
ATOM     11  O   UNL     1       7.571   4.745  14.682  0.00  0.00    +0.000 OA
ENDBRANCH   7  11
ENDBRANCH   1   8
BRANCH   4  12
ATOM     12  O   UNL     1       2.685   2.431  18.991  0.00  0.00    +0.000 OA
BRANCH  12  13
ATOM     13  C   UNL     1       2.167   2.928  20.214  0.00  0.00    +0.000 C 
BRANCH  13  14
ATOM     14  C   UNL     1       1.339   4.157  19.940  0.00  0.00    +0.000 C 
BRANCH  14  15
ATOM     15  C   UNL     1       1.891   5.288  20.797  0.00  0.00    +0.000 C 
BRANCH  15  16
ATOM     16  C   UNL     1       2.023   6.526  20.020  0.00  0.00    +0.000 A 
ATOM     17  C   UNL     1       2.534   6.701  18.749  0.00  0.00    +0.000 A 
ATOM     18  N   UNL     1       2.369   8.031  18.488  0.00  0.00    +0.000 N 
ATOM     19  C   UNL     1       1.771   8.594  19.589  0.00  0.00    +0.000 A 
ATOM     20  N   UNL     1       1.565   7.712  20.527  0.00  0.00    +0.000 NA
ATOM     21  H   UNL     1       2.626   8.515  17.637  0.00  0.00    +0.000 HD
ENDBRANCH  15  16
ENDBRANCH  14  15
ENDBRANCH  13  14
ENDBRANCH  12  13
ENDBRANCH   4  12
TORSDOF 7
ENDMDL
MODEL 7
REMARK VINA RESULT:      -6.3      0.981      1.667
REMARK  Name = 
REMARK  9 active torsions:
REMARK  status: ('A' for Active; 'I' for Inactive)
REMARK    1  A    between atoms: C_1  and  O_2
REMARK    2  A    between atoms: O_2  and  N_3
REMARK    3  A    between atoms: C_4  and  C_5
REMARK    4  A    between atoms: C_4  and  C_6
REMARK    5  A    between atoms: C_9  and  O_10
REMARK    6  A    between atoms: O_10  and  C_11
REMARK    7  A    between atoms: C_11  and  C_12
REMARK    8  A    between atoms: C_12  and  C_13
REMARK    9  A    between atoms: C_13  and  C_14
REMARK                            x       y       z     vdW  Elec       q    Type
REMARK                         _______ _______ _______ _____ _____    ______ ____
ROOT
ATOM      1  C   UNL     1       5.743   6.368  17.939  0.00  0.00    +0.000 A 
ATOM      2  C   UNL     1       4.605   6.853  17.289  0.00  0.00    +0.000 A 
ATOM      3  C   UNL     1       3.317   6.543  17.734  0.00  0.00    +0.000 A 
ATOM      4  C   UNL     1       3.128   5.803  18.897  0.00  0.00    +0.000 A 
ATOM      5  C   UNL     1       4.231   5.327  19.572  0.00  0.00    +0.000 A 
ATOM      6  C   UNL     1       5.503   5.522  19.027  0.00  0.00    +0.000 A 
ENDROOT
BRANCH   1   8
ATOM      7  N   UNL     1       7.651   6.402  16.197  0.00  0.00    +0.000 NA
ATOM      8  C   UNL     1       7.102   6.647  17.349  0.00  0.00    +0.000 C 
ATOM      9  C   UNL     1       8.109   7.384  18.251  0.00  0.00    +0.000 C 
BRANCH   7  11
ATOM     10  C   UNL     1       6.910   4.174  15.572  0.00  0.00    +0.000 C 
ATOM     11  O   UNL     1       7.251   5.485  15.240  0.00  0.00    +0.000 OA
ENDBRANCH   7  11
ENDBRANCH   1   8
BRANCH   4  12
ATOM     12  O   UNL     1       1.925   5.439  19.424  0.00  0.00    +0.000 OA
BRANCH  12  13
ATOM     13  C   UNL     1       1.894   5.523  20.839  0.00  0.00    +0.000 C 
BRANCH  13  14
ATOM     14  C   UNL     1       2.084   4.146  21.422  0.00  0.00    +0.000 C 
BRANCH  14  15
ATOM     15  C   UNL     1       1.151   3.197  20.684  0.00  0.00    +0.000 C 
BRANCH  15  16
ATOM     16  C   UNL     1       1.850   2.513  19.589  0.00  0.00    +0.000 A 
ATOM     17  C   UNL     1       1.403   2.242  18.312  0.00  0.00    +0.000 A 
ATOM     18  N   UNL     1       2.463   1.644  17.692  0.00  0.00    +0.000 N 
ATOM     19  C   UNL     1       3.490   1.585  18.602  0.00  0.00    +0.000 A 
ATOM     20  N   UNL     1       3.141   2.090  19.752  0.00  0.00    +0.000 NA
ATOM     21  H   UNL     1       2.496   1.315  16.735  0.00  0.00    +0.000 HD
ENDBRANCH  15  16
ENDBRANCH  14  15
ENDBRANCH  13  14
ENDBRANCH  12  13
ENDBRANCH   4  12
TORSDOF 7
ENDMDL
MODEL 8
REMARK VINA RESULT:      -6.2      1.883      3.176
REMARK  Name = 
REMARK  9 active torsions:
REMARK  status: ('A' for Active; 'I' for Inactive)
REMARK    1  A    between atoms: C_1  and  O_2
REMARK    2  A    between atoms: O_2  and  N_3
REMARK    3  A    between atoms: C_4  and  C_5
REMARK    4  A    between atoms: C_4  and  C_6
REMARK    5  A    between atoms: C_9  and  O_10
REMARK    6  A    between atoms: O_10  and  C_11
REMARK    7  A    between atoms: C_11  and  C_12
REMARK    8  A    between atoms: C_12  and  C_13
REMARK    9  A    between atoms: C_13  and  C_14
REMARK                            x       y       z     vdW  Elec       q    Type
REMARK                         _______ _______ _______ _____ _____    ______ ____
ROOT
ATOM      1  C   UNL     1       5.518   4.299  17.023  0.00  0.00    +0.000 A 
ATOM      2  C   UNL     1       5.910   4.511  18.347  0.00  0.00    +0.000 A 
ATOM      3  C   UNL     1       5.277   3.862  19.411  0.00  0.00    +0.000 A 
ATOM      4  C   UNL     1       4.285   2.916  19.177  0.00  0.00    +0.000 A 
ATOM      5  C   UNL     1       3.890   2.671  17.879  0.00  0.00    +0.000 A 
ATOM      6  C   UNL     1       4.430   3.438  16.844  0.00  0.00    +0.000 A 
ENDROOT
BRANCH   1   8
ATOM      7  N   UNL     1       6.731   6.277  15.885  0.00  0.00    +0.000 NA
ATOM      8  C   UNL     1       6.164   5.108  15.926  0.00  0.00    +0.000 C 
ATOM      9  C   UNL     1       6.199   4.471  14.526  0.00  0.00    +0.000 C 
BRANCH   7  11
ATOM     10  C   UNL     1       7.700   7.749  17.557  0.00  0.00    +0.000 C 
ATOM     11  O   UNL     1       6.616   7.313  16.796  0.00  0.00    +0.000 OA
ENDBRANCH   7  11
ENDBRANCH   1   8
BRANCH   4  12
ATOM     12  O   UNL     1       3.600   2.225  20.131  0.00  0.00    +0.000 OA
BRANCH  12  13
ATOM     13  C   UNL     1       2.240   2.012  19.789  0.00  0.00    +0.000 C 
BRANCH  13  14
ATOM     14  C   UNL     1       1.361   2.743  20.770  0.00  0.00    +0.000 C 
BRANCH  14  15
ATOM     15  C   UNL     1       0.627   3.838  20.009  0.00  0.00    +0.000 C 
BRANCH  15  16
ATOM     16  C   UNL     1       1.515   4.971  19.723  0.00  0.00    +0.000 A 
ATOM     17  C   UNL     1       2.225   5.759  20.606  0.00  0.00    +0.000 A 
ATOM     18  N   UNL     1       2.928   6.623  19.814  0.00  0.00    +0.000 N 
ATOM     19  C   UNL     1       2.623   6.322  18.509  0.00  0.00    +0.000 A 
ATOM     20  N   UNL     1       1.767   5.341  18.429  0.00  0.00    +0.000 NA
ATOM     21  H   UNL     1       3.566   7.344  20.125  0.00  0.00    +0.000 HD
ENDBRANCH  15  16
ENDBRANCH  14  15
ENDBRANCH  13  14
ENDBRANCH  12  13
ENDBRANCH   4  12
TORSDOF 7
ENDMDL
MODEL 9
REMARK VINA RESULT:      -6.2      0.869      1.122
REMARK  Name = 
REMARK  9 active torsions:
REMARK  status: ('A' for Active; 'I' for Inactive)
REMARK    1  A    between atoms: C_1  and  O_2
REMARK    2  A    between atoms: O_2  and  N_3
REMARK    3  A    between atoms: C_4  and  C_5
REMARK    4  A    between atoms: C_4  and  C_6
REMARK    5  A    between atoms: C_9  and  O_10
REMARK    6  A    between atoms: O_10  and  C_11
REMARK    7  A    between atoms: C_11  and  C_12
REMARK    8  A    between atoms: C_12  and  C_13
REMARK    9  A    between atoms: C_13  and  C_14
REMARK                            x       y       z     vdW  Elec       q    Type
REMARK                         _______ _______ _______ _____ _____    ______ ____
ROOT
ATOM      1  C   UNL     1       5.092   6.133  17.894  0.00  0.00    +0.000 A 
ATOM      2  C   UNL     1       5.189   5.370  19.060  0.00  0.00    +0.000 A 
ATOM      3  C   UNL     1       4.095   5.184  19.908  0.00  0.00    +0.000 A 
ATOM      4  C   UNL     1       2.843   5.690  19.573  0.00  0.00    +0.000 A 
ATOM      5  C   UNL     1       2.711   6.431  18.419  0.00  0.00    +0.000 A 
ATOM      6  C   UNL     1       3.847   6.730  17.663  0.00  0.00    +0.000 A 
ENDROOT
BRANCH   1   8
ATOM      7  N   UNL     1       6.630   6.231  15.820  0.00  0.00    +0.000 NA
ATOM      8  C   UNL     1       6.333   6.388  17.075  0.00  0.00    +0.000 C 
ATOM      9  C   UNL     1       7.549   6.962  17.823  0.00  0.00    +0.000 C 
BRANCH   7  11
ATOM     10  C   UNL     1       6.379   4.136  14.617  0.00  0.00    +0.000 C 
ATOM     11  O   UNL     1       5.983   5.446  14.882  0.00  0.00    +0.000 OA
ENDBRANCH   7  11
ENDBRANCH   1   8
BRANCH   4  12
ATOM     12  O   UNL     1       1.710   5.574  20.320  0.00  0.00    +0.000 OA
BRANCH  12  13
ATOM     13  C   UNL     1       1.393   4.229  20.639  0.00  0.00    +0.000 C 
BRANCH  13  14
ATOM     14  C   UNL     1       0.425   3.691  19.617  0.00  0.00    +0.000 C 
BRANCH  14  15
ATOM     15  C   UNL     1       0.821   2.253  19.315  0.00  0.00    +0.000 C 
BRANCH  15  16
ATOM     16  C   UNL     1       2.164   2.186  18.727  0.00  0.00    +0.000 A 
ATOM     17  C   UNL     1       2.615   2.711  17.533  0.00  0.00    +0.000 A 
ATOM     18  N   UNL     1       3.947   2.410  17.501  0.00  0.00    +0.000 N 
ATOM     19  C   UNL     1       4.242   1.733  18.659  0.00  0.00    +0.000 A 
ATOM     20  N   UNL     1       3.185   1.576  19.406  0.00  0.00    +0.000 NA
ATOM     21  H   UNL     1       4.603   2.651  16.768  0.00  0.00    +0.000 HD
ENDBRANCH  15  16
ENDBRANCH  14  15
ENDBRANCH  13  14
ENDBRANCH  12  13
ENDBRANCH   4  12
TORSDOF 7
ENDMDL
