MODEL 1
REMARK VINA RESULT:      -7.1      0.000      0.000
REMARK  Name = 
REMARK  10 active torsions:
REMARK  status: ('A' for Active; 'I' for Inactive)
REMARK    1  A    between atoms: C_1  and  N_2
REMARK    2  A    between atoms: N_2  and  C_3
REMARK    3  A    between atoms: N_2  and  C_4
REMARK    4  A    between atoms: C_4  and  C_5
REMARK    5  A    between atoms: C_5  and  C_6
REMARK    6  A    between atoms: C_6  and  N_7
REMARK    7  A    between atoms: C_12  and  N_13
REMARK    8  A    between atoms: N_13  and  C_14
REMARK    9  A    between atoms: C_14  and  C_15
REMARK   10  A    between atoms: C_15  and  N_16
REMARK                            x       y       z     vdW  Elec       q    Type
REMARK                         _______ _______ _______ _____ _____    ______ ____
ROOT
ATOM      1  N   UNL     1       2.717   8.253  18.085  0.00  0.00    +0.000 N 
ATOM      2  N   UNL     1       3.562   7.904  17.086  0.00  0.00    +0.000 NA
ATOM      3  C   UNL     1       3.886   6.633  17.370  0.00  0.00    +0.000 A 
ATOM      4  C   UNL     1       3.256   6.190  18.553  0.00  0.00    +0.000 A 
ATOM      5  C   UNL     1       3.274   4.966  19.234  0.00  0.00    +0.000 A 
ATOM      6  C   UNL     1       2.480   4.827  20.398  0.00  0.00    +0.000 A 
ATOM      7  C   UNL     1       1.787   5.964  20.864  0.00  0.00    +0.000 A 
ATOM      8  C   UNL     1       1.765   7.187  20.179  0.00  0.00    +0.000 A 
ATOM      9  C   UNL     1       2.514   7.265  19.009  0.00  0.00    +0.000 A 
ATOM     10  S   UNL     1       4.285   3.695  18.508  0.00  0.00    +0.000 S 
ATOM     11  C   UNL     1       5.003   4.454  17.022  0.00  0.00    +0.000 A 
ATOM     12  C   UNL     1       5.859   3.643  16.258  0.00  0.00    +0.000 A 
ATOM     13  C   UNL     1       6.448   4.126  15.086  0.00  0.00    +0.000 A 
ATOM     14  C   UNL     1       6.195   5.426  14.658  0.00  0.00    +0.000 A 
ATOM     15  C   UNL     1       5.353   6.250  15.405  0.00  0.00    +0.000 A 
ATOM     16  C   UNL     1       4.758   5.777  16.586  0.00  0.00    +0.000 A 
ENDROOT
BRANCH   6  17
ATOM     17  N   UNL     1       2.484   3.624  21.146  0.00  0.00    +0.000 N 
ATOM     18  H   UNL     1       3.309   3.056  20.939  0.00  0.00    +0.000 HD
BRANCH  17  19
ATOM     19  C   UNL     1       1.252   2.830  21.129  0.00  0.00    +0.000 C 
BRANCH  19  20
ATOM     20  C   UNL     1       0.762   2.553  19.697  0.00  0.00    +0.000 C 
BRANCH  20  21
ATOM     21  N   UNL     1       1.587   1.580  18.975  0.00  0.00    +0.000 NA
ATOM     22  H   UNL     1       1.527   1.757  17.973  0.00  0.00    +0.000 HD
ATOM     23  H   UNL     1       1.197   0.649  19.123  0.00  0.00    +0.000 HD
ENDBRANCH  20  21
ENDBRANCH  19  20
ENDBRANCH  17  19
ENDBRANCH   6  17
BRANCH   1  24
ATOM     24  C   UNL     1       2.110   9.571  18.073  0.00  0.00    +0.000 C 
BRANCH  24  25
ATOM     25  C   UNL     1       0.597   9.539  17.860  0.00  0.00    +0.000 C 
BRANCH  25  26
ATOM     26  C   UNL     1      -0.202  10.213  18.984  0.00  0.00    +0.000 C 
BRANCH  26  28
ATOM     27  C   UNL     1      -1.389  12.195  18.205  0.00  0.00    +0.000 C 
ATOM     28  N   UNL     1      -1.496  10.778  18.557  0.00  0.00    +0.000 NA
ATOM     29  C   UNL     1      -2.000  10.026  17.402  0.00  0.00    +0.000 C 
ENDBRANCH  26  28
ENDBRANCH  25  26
ENDBRANCH  24  25
ENDBRANCH   1  24
TORSDOF 8
ENDMDL
MODEL 2
REMARK VINA RESULT:      -6.9      0.816      1.095
REMARK  Name = 
REMARK  10 active torsions:
REMARK  status: ('A' for Active; 'I' for Inactive)
REMARK    1  A    between atoms: C_1  and  N_2
REMARK    2  A    between atoms: N_2  and  C_3
REMARK    3  A    between atoms: N_2  and  C_4
REMARK    4  A    between atoms: C_4  and  C_5
REMARK    5  A    between atoms: C_5  and  C_6
REMARK    6  A    between atoms: C_6  and  N_7
REMARK    7  A    between atoms: C_12  and  N_13
REMARK    8  A    between atoms: N_13  and  C_14
REMARK    9  A    between atoms: C_14  and  C_15
REMARK   10  A    between atoms: C_15  and  N_16
REMARK                            x       y       z     vdW  Elec       q    Type
REMARK                         _______ _______ _______ _____ _____    ______ ____
ROOT
ATOM      1  N   UNL     1       2.734   8.162  18.186  0.00  0.00    +0.000 N 
ATOM      2  N   UNL     1       3.571   7.823  17.177  0.00  0.00    +0.000 NA
ATOM      3  C   UNL     1       3.901   6.551  17.448  0.00  0.00    +0.000 A 
ATOM      4  C   UNL     1       3.283   6.097  18.634  0.00  0.00    +0.000 A 
ATOM      5  C   UNL     1       3.309   4.868  19.305  0.00  0.00    +0.000 A 
ATOM      6  C   UNL     1       2.527   4.718  20.475  0.00  0.00    +0.000 A 
ATOM      7  C   UNL     1       1.835   5.850  20.956  0.00  0.00    +0.000 A 
ATOM      8  C   UNL     1       1.804   7.078  20.280  0.00  0.00    +0.000 A 
ATOM      9  C   UNL     1       2.542   7.166  19.105  0.00  0.00    +0.000 A 
ATOM     10  S   UNL     1       4.316   3.605  18.561  0.00  0.00    +0.000 S 
ATOM     11  C   UNL     1       5.020   4.377  17.074  0.00  0.00    +0.000 A 
ATOM     12  C   UNL     1       5.870   3.573  16.296  0.00  0.00    +0.000 A 
ATOM     13  C   UNL     1       6.448   4.066  15.122  0.00  0.00    +0.000 A 
ATOM     14  C   UNL     1       6.188   5.369  14.707  0.00  0.00    +0.000 A 
ATOM     15  C   UNL     1       5.351   6.186  15.467  0.00  0.00    +0.000 A 
ATOM     16  C   UNL     1       4.768   5.703  16.650  0.00  0.00    +0.000 A 
ENDROOT
BRANCH   6  17
ATOM     17  N   UNL     1       2.540   3.510  21.214  0.00  0.00    +0.000 N 
ATOM     18  H   UNL     1       3.459   3.062  21.186  0.00  0.00    +0.000 HD
BRANCH  17  19
ATOM     19  C   UNL     1       1.458   2.558  20.945  0.00  0.00    +0.000 C 
BRANCH  19  20
ATOM     20  C   UNL     1       0.732   2.864  19.624  0.00  0.00    +0.000 C 
BRANCH  20  21
ATOM     21  N   UNL     1       0.997   1.880  18.570  0.00  0.00    +0.000 NA
ATOM     22  H   UNL     1       0.114   1.525  18.204  0.00  0.00    +0.000 HD
ATOM     23  H   UNL     1       1.474   1.079  18.986  0.00  0.00    +0.000 HD
ENDBRANCH  20  21
ENDBRANCH  19  20
ENDBRANCH  17  19
ENDBRANCH   6  17
BRANCH   1  24
ATOM     24  C   UNL     1       2.125   9.479  18.190  0.00  0.00    +0.000 C 
BRANCH  24  25
ATOM     25  C   UNL     1       0.642   9.460  17.824  0.00  0.00    +0.000 C 
BRANCH  25  26
ATOM     26  C   UNL     1      -0.238  10.306  18.755  0.00  0.00    +0.000 C 
BRANCH  26  28
ATOM     27  C   UNL     1       0.396  12.192  20.163  0.00  0.00    +0.000 C 
ATOM     28  N   UNL     1       0.428  10.737  19.998  0.00  0.00    +0.000 NA
ATOM     29  C   UNL     1      -0.225  10.102  21.148  0.00  0.00    +0.000 C 
ENDBRANCH  26  28
ENDBRANCH  25  26
ENDBRANCH  24  25
ENDBRANCH   1  24
TORSDOF 8
ENDMDL
MODEL 3
REMARK VINA RESULT:      -6.9      4.471      5.584
REMARK  Name = 
REMARK  10 active torsions:
REMARK  status: ('A' for Active; 'I' for Inactive)
REMARK    1  A    between atoms: C_1  and  N_2
REMARK    2  A    between atoms: N_2  and  C_3
REMARK    3  A    between atoms: N_2  and  C_4
REMARK    4  A    between atoms: C_4  and  C_5
REMARK    5  A    between atoms: C_5  and  C_6
REMARK    6  A    between atoms: C_6  and  N_7
REMARK    7  A    between atoms: C_12  and  N_13
REMARK    8  A    between atoms: N_13  and  C_14
REMARK    9  A    between atoms: C_14  and  C_15
REMARK   10  A    between atoms: C_15  and  N_16
REMARK                            x       y       z     vdW  Elec       q    Type
REMARK                         _______ _______ _______ _____ _____    ______ ____
ROOT
ATOM      1  N   UNL     1       7.459   6.549  17.690  0.00  0.00    +0.000 N 
ATOM      2  N   UNL     1       7.805   6.435  16.386  0.00  0.00    +0.000 NA
ATOM      3  C   UNL     1       6.991   5.474  15.922  0.00  0.00    +0.000 A 
ATOM      4  C   UNL     1       6.147   4.976  16.938  0.00  0.00    +0.000 A 
ATOM      5  C   UNL     1       5.142   3.999  16.940  0.00  0.00    +0.000 A 
ATOM      6  C   UNL     1       4.435   3.757  18.143  0.00  0.00    +0.000 A 
ATOM      7  C   UNL     1       4.846   4.451  19.301  0.00  0.00    +0.000 A 
ATOM      8  C   UNL     1       5.847   5.433  19.296  0.00  0.00    +0.000 A 
ATOM      9  C   UNL     1       6.480   5.678  18.083  0.00  0.00    +0.000 A 
ATOM     10  S   UNL     1       4.848   3.192  15.383  0.00  0.00    +0.000 S 
ATOM     11  C   UNL     1       6.021   3.958  14.226  0.00  0.00    +0.000 A 
ATOM     12  C   UNL     1       5.991   3.486  12.903  0.00  0.00    +0.000 A 
ATOM     13  C   UNL     1       6.841   4.022  11.930  0.00  0.00    +0.000 A 
ATOM     14  C   UNL     1       7.735   5.036  12.262  0.00  0.00    +0.000 A 
ATOM     15  C   UNL     1       7.784   5.516  13.571  0.00  0.00    +0.000 A 
ATOM     16  C   UNL     1       6.939   4.983  14.557  0.00  0.00    +0.000 A 
ENDROOT
BRANCH   6  17
ATOM     17  N   UNL     1       3.433   2.759  18.214  0.00  0.00    +0.000 N 
ATOM     18  H   UNL     1       2.709   2.902  17.505  0.00  0.00    +0.000 HD
BRANCH  17  19
ATOM     19  C   UNL     1       2.860   2.489  19.535  0.00  0.00    +0.000 C 
BRANCH  19  20
ATOM     20  C   UNL     1       1.325   2.394  19.492  0.00  0.00    +0.000 C 
BRANCH  20  21
ATOM     21  N   UNL     1       0.660   3.214  20.510  0.00  0.00    +0.000 NA
ATOM     22  H   UNL     1      -0.253   3.510  20.167  0.00  0.00    +0.000 HD
ATOM     23  H   UNL     1       1.203   4.067  20.646  0.00  0.00    +0.000 HD
ENDBRANCH  20  21
ENDBRANCH  19  20
ENDBRANCH  17  19
ENDBRANCH   6  17
BRANCH   1  24
ATOM     24  C   UNL     1       8.109   7.554  18.510  0.00  0.00    +0.000 C 
BRANCH  24  25
ATOM     25  C   UNL     1       8.163   8.932  17.851  0.00  0.00    +0.000 C 
BRANCH  25  26
ATOM     26  C   UNL     1       8.777  10.022  18.740  0.00  0.00    +0.000 C 
BRANCH  26  28
ATOM     27  C   UNL     1       8.878  12.252  17.760  0.00  0.00    +0.000 C 
ATOM     28  N   UNL     1       9.603  11.006  18.016  0.00  0.00    +0.000 NA
ATOM     29  C   UNL     1      10.812  11.297  18.795  0.00  0.00    +0.000 C 
ENDBRANCH  26  28
ENDBRANCH  25  26
ENDBRANCH  24  25
ENDBRANCH   1  24
TORSDOF 8
ENDMDL
MODEL 4
REMARK VINA RESULT:      -6.7      2.217      4.977
REMARK  Name = 
REMARK  10 active torsions:
REMARK  status: ('A' for Active; 'I' for Inactive)
REMARK    1  A    between atoms: C_1  and  N_2
REMARK    2  A    between atoms: N_2  and  C_3
REMARK    3  A    between atoms: N_2  and  C_4
REMARK    4  A    between atoms: C_4  and  C_5
REMARK    5  A    between atoms: C_5  and  C_6
REMARK    6  A    between atoms: C_6  and  N_7
REMARK    7  A    between atoms: C_12  and  N_13
REMARK    8  A    between atoms: N_13  and  C_14
REMARK    9  A    between atoms: C_14  and  C_15
REMARK   10  A    between atoms: C_15  and  N_16
REMARK                            x       y       z     vdW  Elec       q    Type
REMARK                         _______ _______ _______ _____ _____    ______ ____
ROOT
ATOM      1  N   UNL     1       2.873   7.712  18.168  0.00  0.00    +0.000 N 
ATOM      2  N   UNL     1       2.356   6.966  19.173  0.00  0.00    +0.000 NA
ATOM      3  C   UNL     1       2.935   5.767  19.013  0.00  0.00    +0.000 A 
ATOM      4  C   UNL     1       3.803   5.755  17.900  0.00  0.00    +0.000 A 
ATOM      5  C   UNL     1       4.623   4.762  17.348  0.00  0.00    +0.000 A 
ATOM      6  C   UNL     1       5.423   5.089  16.227  0.00  0.00    +0.000 A 
ATOM      7  C   UNL     1       5.278   6.376  15.666  0.00  0.00    +0.000 A 
ATOM      8  C   UNL     1       4.462   7.371  16.222  0.00  0.00    +0.000 A 
ATOM      9  C   UNL     1       3.734   7.025  17.356  0.00  0.00    +0.000 A 
ATOM     10  S   UNL     1       4.585   3.186  18.172  0.00  0.00    +0.000 S 
ATOM     11  C   UNL     1       3.423   3.402  19.552  0.00  0.00    +0.000 A 
ATOM     12  C   UNL     1       3.211   2.281  20.371  0.00  0.00    +0.000 A 
ATOM     13  C   UNL     1       2.350   2.348  21.471  0.00  0.00    +0.000 A 
ATOM     14  C   UNL     1       1.685   3.534  21.769  0.00  0.00    +0.000 A 
ATOM     15  C   UNL     1       1.877   4.658  20.966  0.00  0.00    +0.000 A 
ATOM     16  C   UNL     1       2.737   4.602  19.857  0.00  0.00    +0.000 A 
ENDROOT
BRANCH   6  17
ATOM     17  N   UNL     1       6.245   4.117  15.607  0.00  0.00    +0.000 N 
ATOM     18  H   UNL     1       7.026   3.847  16.209  0.00  0.00    +0.000 HD
BRANCH  17  19
ATOM     19  C   UNL     1       6.682   4.397  14.236  0.00  0.00    +0.000 C 
BRANCH  19  20
ATOM     20  C   UNL     1       5.762   3.741  13.191  0.00  0.00    +0.000 C 
BRANCH  20  21
ATOM     21  N   UNL     1       6.419   2.686  12.415  0.00  0.00    +0.000 NA
ATOM     22  H   UNL     1       6.910   3.099  11.623  0.00  0.00    +0.000 HD
ATOM     23  H   UNL     1       5.701   2.078  12.019  0.00  0.00    +0.000 HD
ENDBRANCH  20  21
ENDBRANCH  19  20
ENDBRANCH  17  19
ENDBRANCH   6  17
BRANCH   1  24
ATOM     24  C   UNL     1       2.505   9.111  18.061  0.00  0.00    +0.000 C 
BRANCH  24  25
ATOM     25  C   UNL     1       1.027   9.325  17.736  0.00  0.00    +0.000 C 
BRANCH  25  26
ATOM     26  C   UNL     1       0.304  10.257  18.718  0.00  0.00    +0.000 C 
BRANCH  26  28
ATOM     27  C   UNL     1       1.307  12.289  19.618  0.00  0.00    +0.000 C 
ATOM     28  N   UNL     1       1.172  10.837  19.759  0.00  0.00    +0.000 NA
ATOM     29  C   UNL     1       0.622  10.526  21.084  0.00  0.00    +0.000 C 
ENDBRANCH  26  28
ENDBRANCH  25  26
ENDBRANCH  24  25
ENDBRANCH   1  24
TORSDOF 8
ENDMDL
MODEL 5
REMARK VINA RESULT:      -6.7      4.234      5.573
REMARK  Name = 
REMARK  10 active torsions:
REMARK  status: ('A' for Active; 'I' for Inactive)
REMARK    1  A    between atoms: C_1  and  N_2
REMARK    2  A    between atoms: N_2  and  C_3
REMARK    3  A    between atoms: N_2  and  C_4
REMARK    4  A    between atoms: C_4  and  C_5
REMARK    5  A    between atoms: C_5  and  C_6
REMARK    6  A    between atoms: C_6  and  N_7
REMARK    7  A    between atoms: C_12  and  N_13
REMARK    8  A    between atoms: N_13  and  C_14
REMARK    9  A    between atoms: C_14  and  C_15
REMARK   10  A    between atoms: C_15  and  N_16
REMARK                            x       y       z     vdW  Elec       q    Type
REMARK                         _______ _______ _______ _____ _____    ______ ____
ROOT
ATOM      1  N   UNL     1       7.414   6.608  17.691  0.00  0.00    +0.000 N 
ATOM      2  N   UNL     1       7.781   6.359  16.411  0.00  0.00    +0.000 NA
ATOM      3  C   UNL     1       6.838   5.515  15.966  0.00  0.00    +0.000 A 
ATOM      4  C   UNL     1       5.889   5.222  16.970  0.00  0.00    +0.000 A 
ATOM      5  C   UNL     1       4.740   4.422  16.982  0.00  0.00    +0.000 A 
ATOM      6  C   UNL     1       3.961   4.372  18.164  0.00  0.00    +0.000 A 
ATOM      7  C   UNL     1       4.440   5.060  19.299  0.00  0.00    +0.000 A 
ATOM      8  C   UNL     1       5.587   5.866  19.284  0.00  0.00    +0.000 A 
ATOM      9  C   UNL     1       6.293   5.931  18.087  0.00  0.00    +0.000 A 
ATOM     10  S   UNL     1       4.372   3.578  15.460  0.00  0.00    +0.000 S 
ATOM     11  C   UNL     1       5.693   4.072  14.315  0.00  0.00    +0.000 A 
ATOM     12  C   UNL     1       5.632   3.530  13.021  0.00  0.00    +0.000 A 
ATOM     13  C   UNL     1       6.590   3.861  12.058  0.00  0.00    +0.000 A 
ATOM     14  C   UNL     1       7.626   4.737  12.372  0.00  0.00    +0.000 A 
ATOM     15  C   UNL     1       7.708   5.283  13.653  0.00  0.00    +0.000 A 
ATOM     16  C   UNL     1       6.753   4.955  14.629  0.00  0.00    +0.000 A 
ENDROOT
BRANCH   6  17
ATOM     17  N   UNL     1       2.808   3.554  18.246  0.00  0.00    +0.000 N 
ATOM     18  H   UNL     1       1.952   4.114  18.273  0.00  0.00    +0.000 HD
BRANCH  17  19
ATOM     19  C   UNL     1       2.811   2.507  19.271  0.00  0.00    +0.000 C 
BRANCH  19  20
ATOM     20  C   UNL     1       3.871   1.427  18.993  0.00  0.00    +0.000 C 
BRANCH  20  21
ATOM     21  N   UNL     1       5.006   1.471  19.919  0.00  0.00    +0.000 NA
ATOM     22  H   UNL     1       4.728   1.942  20.779  0.00  0.00    +0.000 HD
ATOM     23  H   UNL     1       5.742   2.044  19.505  0.00  0.00    +0.000 HD
ENDBRANCH  20  21
ENDBRANCH  19  20
ENDBRANCH  17  19
ENDBRANCH   6  17
BRANCH   1  24
ATOM     24  C   UNL     1       8.191   7.544  18.482  0.00  0.00    +0.000 C 
BRANCH  24  25
ATOM     25  C   UNL     1       8.221   8.954  17.894  0.00  0.00    +0.000 C 
BRANCH  25  26
ATOM     26  C   UNL     1       8.876   9.996  18.811  0.00  0.00    +0.000 C 
BRANCH  26  28
ATOM     27  C   UNL     1       8.824  12.222  17.820  0.00  0.00    +0.000 C 
ATOM     28  N   UNL     1       9.639  11.039  18.101  0.00  0.00    +0.000 NA
ATOM     29  C   UNL     1      10.801  11.429  18.909  0.00  0.00    +0.000 C 
ENDBRANCH  26  28
ENDBRANCH  25  26
ENDBRANCH  24  25
ENDBRANCH   1  24
TORSDOF 8
ENDMDL
MODEL 6
REMARK VINA RESULT:      -6.6      1.832      4.881
REMARK  Name = 
REMARK  10 active torsions:
REMARK  status: ('A' for Active; 'I' for Inactive)
REMARK    1  A    between atoms: C_1  and  N_2
REMARK    2  A    between atoms: N_2  and  C_3
REMARK    3  A    between atoms: N_2  and  C_4
REMARK    4  A    between atoms: C_4  and  C_5
REMARK    5  A    between atoms: C_5  and  C_6
REMARK    6  A    between atoms: C_6  and  N_7
REMARK    7  A    between atoms: C_12  and  N_13
REMARK    8  A    between atoms: N_13  and  C_14
REMARK    9  A    between atoms: C_14  and  C_15
REMARK   10  A    between atoms: C_15  and  N_16
REMARK                            x       y       z     vdW  Elec       q    Type
REMARK                         _______ _______ _______ _____ _____    ______ ____
ROOT
ATOM      1  N   UNL     1       2.680   7.742  18.238  0.00  0.00    +0.000 N 
ATOM      2  N   UNL     1       2.200   6.948  19.224  0.00  0.00    +0.000 NA
ATOM      3  C   UNL     1       2.917   5.820  19.104  0.00  0.00    +0.000 A 
ATOM      4  C   UNL     1       3.834   5.900  18.034  0.00  0.00    +0.000 A 
ATOM      5  C   UNL     1       4.787   5.003  17.533  0.00  0.00    +0.000 A 
ATOM      6  C   UNL     1       5.599   5.413  16.449  0.00  0.00    +0.000 A 
ATOM      7  C   UNL     1       5.340   6.674  15.869  0.00  0.00    +0.000 A 
ATOM      8  C   UNL     1       4.391   7.573  16.375  0.00  0.00    +0.000 A 
ATOM      9  C   UNL     1       3.652   7.153  17.475  0.00  0.00    +0.000 A 
ATOM     10  S   UNL     1       4.884   3.437  18.369  0.00  0.00    +0.000 S 
ATOM     11  C   UNL     1       3.638   3.527  19.688  0.00  0.00    +0.000 A 
ATOM     12  C   UNL     1       3.513   2.392  20.507  0.00  0.00    +0.000 A 
ATOM     13  C   UNL     1       2.596   2.367  21.563  0.00  0.00    +0.000 A 
ATOM     14  C   UNL     1       1.789   3.472  21.817  0.00  0.00    +0.000 A 
ATOM     15  C   UNL     1       1.894   4.607  21.013  0.00  0.00    +0.000 A 
ATOM     16  C   UNL     1       2.808   4.643  19.948  0.00  0.00    +0.000 A 
ENDROOT
BRANCH   6  17
ATOM     17  N   UNL     1       6.555   4.538  15.879  0.00  0.00    +0.000 N 
ATOM     18  H   UNL     1       7.476   4.978  15.813  0.00  0.00    +0.000 HD
BRANCH  17  19
ATOM     19  C   UNL     1       6.178   3.867  14.632  0.00  0.00    +0.000 C 
BRANCH  19  20
ATOM     20  C   UNL     1       6.963   4.406  13.424  0.00  0.00    +0.000 C 
BRANCH  20  21
ATOM     21  N   UNL     1       7.919   5.461  13.772  0.00  0.00    +0.000 NA
ATOM     22  H   UNL     1       8.218   5.945  12.927  0.00  0.00    +0.000 HD
ATOM     23  H   UNL     1       8.756   5.026  14.162  0.00  0.00    +0.000 HD
ENDBRANCH  20  21
ENDBRANCH  19  20
ENDBRANCH  17  19
ENDBRANCH   6  17
BRANCH   1  24
ATOM     24  C   UNL     1       2.164   9.091  18.100  0.00  0.00    +0.000 C 
BRANCH  24  25
ATOM     25  C   UNL     1       1.049   9.417  19.093  0.00  0.00    +0.000 C 
BRANCH  25  26
ATOM     26  C   UNL     1       0.254  10.682  18.741  0.00  0.00    +0.000 C 
BRANCH  26  28
ATOM     27  C   UNL     1      -1.924  11.736  19.037  0.00  0.00    +0.000 C 
ATOM     28  N   UNL     1      -1.209  10.497  18.725  0.00  0.00    +0.000 NA
ATOM     29  C   UNL     1      -1.626  10.015  17.402  0.00  0.00    +0.000 C 
ENDBRANCH  26  28
ENDBRANCH  25  26
ENDBRANCH  24  25
ENDBRANCH   1  24
TORSDOF 8
ENDMDL
MODEL 7
REMARK VINA RESULT:      -6.6      2.237      5.775
REMARK  Name = 
REMARK  10 active torsions:
REMARK  status: ('A' for Active; 'I' for Inactive)
REMARK    1  A    between atoms: C_1  and  N_2
REMARK    2  A    between atoms: N_2  and  C_3
REMARK    3  A    between atoms: N_2  and  C_4
REMARK    4  A    between atoms: C_4  and  C_5
REMARK    5  A    between atoms: C_5  and  C_6
REMARK    6  A    between atoms: C_6  and  N_7
REMARK    7  A    between atoms: C_12  and  N_13
REMARK    8  A    between atoms: N_13  and  C_14
REMARK    9  A    between atoms: C_14  and  C_15
REMARK   10  A    between atoms: C_15  and  N_16
REMARK                            x       y       z     vdW  Elec       q    Type
REMARK                         _______ _______ _______ _____ _____    ______ ____
ROOT
ATOM      1  N   UNL     1       4.579   5.330  16.732  0.00  0.00    +0.000 N 
ATOM      2  N   UNL     1       4.028   6.566  16.744  0.00  0.00    +0.000 NA
ATOM      3  C   UNL     1       3.345   6.601  17.899  0.00  0.00    +0.000 A 
ATOM      4  C   UNL     1       3.455   5.383  18.603  0.00  0.00    +0.000 A 
ATOM      5  C   UNL     1       2.943   4.949  19.833  0.00  0.00    +0.000 A 
ATOM      6  C   UNL     1       3.282   3.652  20.289  0.00  0.00    +0.000 A 
ATOM      7  C   UNL     1       4.043   2.829  19.432  0.00  0.00    +0.000 A 
ATOM      8  C   UNL     1       4.561   3.266  18.204  0.00  0.00    +0.000 A 
ATOM      9  C   UNL     1       4.250   4.565  17.818  0.00  0.00    +0.000 A 
ATOM     10  S   UNL     1       1.938   6.128  20.707  0.00  0.00    +0.000 S 
ATOM     11  C   UNL     1       1.913   7.604  19.648  0.00  0.00    +0.000 A 
ATOM     12  C   UNL     1       1.171   8.699  20.122  0.00  0.00    +0.000 A 
ATOM     13  C   UNL     1       1.102   9.889  19.391  0.00  0.00    +0.000 A 
ATOM     14  C   UNL     1       1.771  10.006  18.176  0.00  0.00    +0.000 A 
ATOM     15  C   UNL     1       2.509   8.929  17.685  0.00  0.00    +0.000 A 
ATOM     16  C   UNL     1       2.583   7.727  18.408  0.00  0.00    +0.000 A 
ENDROOT
BRANCH   6  17
ATOM     17  N   UNL     1       2.767   3.148  21.508  0.00  0.00    +0.000 N 
ATOM     18  H   UNL     1       3.413   2.485  21.943  0.00  0.00    +0.000 HD
BRANCH  17  19
ATOM     19  C   UNL     1       1.392   2.641  21.486  0.00  0.00    +0.000 C 
BRANCH  19  20
ATOM     20  C   UNL     1       0.998   2.095  20.102  0.00  0.00    +0.000 C 
BRANCH  20  21
ATOM     21  N   UNL     1      -0.045   2.884  19.439  0.00  0.00    +0.000 NA
ATOM     22  H   UNL     1      -0.141   2.578  18.472  0.00  0.00    +0.000 HD
ATOM     23  H   UNL     1       0.258   3.857  19.401  0.00  0.00    +0.000 HD
ENDBRANCH  20  21
ENDBRANCH  19  20
ENDBRANCH  17  19
ENDBRANCH   6  17
BRANCH   1  24
ATOM     24  C   UNL     1       5.450   4.952  15.635  0.00  0.00    +0.000 C 
BRANCH  24  25
ATOM     25  C   UNL     1       6.906   5.366  15.847  0.00  0.00    +0.000 C 
BRANCH  25  26
ATOM     26  C   UNL     1       7.507   4.866  17.168  0.00  0.00    +0.000 C 
BRANCH  26  28
ATOM     27  C   UNL     1       7.500   7.262  17.620  0.00  0.00    +0.000 C 
ATOM     28  N   UNL     1       7.892   5.937  18.106  0.00  0.00    +0.000 NA
ATOM     29  C   UNL     1       7.266   5.693  19.410  0.00  0.00    +0.000 C 
ENDBRANCH  26  28
ENDBRANCH  25  26
ENDBRANCH  24  25
ENDBRANCH   1  24
TORSDOF 8
ENDMDL
MODEL 8
REMARK VINA RESULT:      -6.6      2.071      4.708
REMARK  Name = 
REMARK  10 active torsions:
REMARK  status: ('A' for Active; 'I' for Inactive)
REMARK    1  A    between atoms: C_1  and  N_2
REMARK    2  A    between atoms: N_2  and  C_3
REMARK    3  A    between atoms: N_2  and  C_4
REMARK    4  A    between atoms: C_4  and  C_5
REMARK    5  A    between atoms: C_5  and  C_6
REMARK    6  A    between atoms: C_6  and  N_7
REMARK    7  A    between atoms: C_12  and  N_13
REMARK    8  A    between atoms: N_13  and  C_14
REMARK    9  A    between atoms: C_14  and  C_15
REMARK   10  A    between atoms: C_15  and  N_16
REMARK                            x       y       z     vdW  Elec       q    Type
REMARK                         _______ _______ _______ _____ _____    ______ ____
ROOT
ATOM      1  N   UNL     1       2.477   7.550  18.088  0.00  0.00    +0.000 N 
ATOM      2  N   UNL     1       1.830   6.728  18.948  0.00  0.00    +0.000 NA
ATOM      3  C   UNL     1       2.655   5.677  19.068  0.00  0.00    +0.000 A 
ATOM      4  C   UNL     1       3.811   5.832  18.273  0.00  0.00    +0.000 A 
ATOM      5  C   UNL     1       4.941   5.028  18.077  0.00  0.00    +0.000 A 
ATOM      6  C   UNL     1       5.970   5.500  17.226  0.00  0.00    +0.000 A 
ATOM      7  C   UNL     1       5.756   6.717  16.545  0.00  0.00    +0.000 A 
ATOM      8  C   UNL     1       4.628   7.525  16.746  0.00  0.00    +0.000 A 
ATOM      9  C   UNL     1       3.666   7.050  17.632  0.00  0.00    +0.000 A 
ATOM     10  S   UNL     1       4.960   3.494  18.976  0.00  0.00    +0.000 S 
ATOM     11  C   UNL     1       3.407   3.480  19.919  0.00  0.00    +0.000 A 
ATOM     12  C   UNL     1       3.177   2.352  20.725  0.00  0.00    +0.000 A 
ATOM     13  C   UNL     1       2.020   2.251  21.504  0.00  0.00    +0.000 A 
ATOM     14  C   UNL     1       1.075   3.273  21.491  0.00  0.00    +0.000 A 
ATOM     15  C   UNL     1       1.282   4.399  20.694  0.00  0.00    +0.000 A 
ATOM     16  C   UNL     1       2.438   4.510  19.904  0.00  0.00    +0.000 A 
ENDROOT
BRANCH   6  17
ATOM     17  N   UNL     1       7.119   4.716  16.964  0.00  0.00    +0.000 N 
ATOM     18  H   UNL     1       6.873   3.817  16.544  0.00  0.00    +0.000 HD
BRANCH  17  19
ATOM     19  C   UNL     1       8.081   4.565  18.059  0.00  0.00    +0.000 C 
BRANCH  19  20
ATOM     20  C   UNL     1       8.058   5.766  19.021  0.00  0.00    +0.000 C 
BRANCH  20  21
ATOM     21  N   UNL     1       8.083   5.382  20.435  0.00  0.00    +0.000 NA
ATOM     22  H   UNL     1       8.787   5.931  20.926  0.00  0.00    +0.000 HD
ATOM     23  H   UNL     1       8.383   4.409  20.503  0.00  0.00    +0.000 HD
ENDBRANCH  20  21
ENDBRANCH  19  20
ENDBRANCH  17  19
ENDBRANCH   6  17
BRANCH   1  24
ATOM     24  C   UNL     1       1.892   8.837  17.762  0.00  0.00    +0.000 C 
BRANCH  24  25
ATOM     25  C   UNL     1       1.168   9.489  18.940  0.00  0.00    +0.000 C 
BRANCH  25  26
ATOM     26  C   UNL     1       0.771  10.951  18.693  0.00  0.00    +0.000 C 
BRANCH  26  28
ATOM     27  C   UNL     1      -1.009  12.596  18.438  0.00  0.00    +0.000 C 
ATOM     28  N   UNL     1      -0.676  11.214  18.791  0.00  0.00    +0.000 NA
ATOM     29  C   UNL     1      -1.401  10.297  17.903  0.00  0.00    +0.000 C 
ENDBRANCH  26  28
ENDBRANCH  25  26
ENDBRANCH  24  25
ENDBRANCH   1  24
TORSDOF 8
ENDMDL
MODEL 9
REMARK VINA RESULT:      -6.5      2.181      6.530
REMARK  Name = 
REMARK  10 active torsions:
REMARK  status: ('A' for Active; 'I' for Inactive)
REMARK    1  A    between atoms: C_1  and  N_2
REMARK    2  A    between atoms: N_2  and  C_3
REMARK    3  A    between atoms: N_2  and  C_4
REMARK    4  A    between atoms: C_4  and  C_5
REMARK    5  A    between atoms: C_5  and  C_6
REMARK    6  A    between atoms: C_6  and  N_7
REMARK    7  A    between atoms: C_12  and  N_13
REMARK    8  A    between atoms: N_13  and  C_14
REMARK    9  A    between atoms: C_14  and  C_15
REMARK   10  A    between atoms: C_15  and  N_16
REMARK                            x       y       z     vdW  Elec       q    Type
REMARK                         _______ _______ _______ _____ _____    ______ ____
ROOT
ATOM      1  N   UNL     1       2.614   4.870  20.707  0.00  0.00    +0.000 N 
ATOM      2  N   UNL     1       1.861   5.994  20.779  0.00  0.00    +0.000 NA
ATOM      3  C   UNL     1       2.320   6.751  19.770  0.00  0.00    +0.000 A 
ATOM      4  C   UNL     1       3.369   6.109  19.076  0.00  0.00    +0.000 A 
ATOM      5  C   UNL     1       4.141   6.485  17.970  0.00  0.00    +0.000 A 
ATOM      6  C   UNL     1       5.109   5.575  17.479  0.00  0.00    +0.000 A 
ATOM      7  C   UNL     1       5.308   4.374  18.193  0.00  0.00    +0.000 A 
ATOM      8  C   UNL     1       4.530   3.996  19.296  0.00  0.00    +0.000 A 
ATOM      9  C   UNL     1       3.554   4.895  19.713  0.00  0.00    +0.000 A 
ATOM     10  S   UNL     1       3.772   8.081  17.278  0.00  0.00    +0.000 S 
ATOM     11  C   UNL     1       2.421   8.737  18.300  0.00  0.00    +0.000 A 
ATOM     12  C   UNL     1       1.940  10.011  17.955  0.00  0.00    +0.000 A 
ATOM     13  C   UNL     1       0.889  10.599  18.667  0.00  0.00    +0.000 A 
ATOM     14  C   UNL     1       0.304   9.925  19.736  0.00  0.00    +0.000 A 
ATOM     15  C   UNL     1       0.770   8.662  20.098  0.00  0.00    +0.000 A 
ATOM     16  C   UNL     1       1.827   8.063  19.393  0.00  0.00    +0.000 A 
ENDROOT
BRANCH   6  17
ATOM     17  N   UNL     1       5.942   5.913  16.385  0.00  0.00    +0.000 N 
ATOM     18  H   UNL     1       6.055   6.926  16.298  0.00  0.00    +0.000 HD
BRANCH  17  19
ATOM     19  C   UNL     1       5.632   5.284  15.097  0.00  0.00    +0.000 C 
BRANCH  19  20
ATOM     20  C   UNL     1       6.861   4.594  14.479  0.00  0.00    +0.000 C 
BRANCH  20  21
ATOM     21  N   UNL     1       7.801   5.528  13.853  0.00  0.00    +0.000 NA
ATOM     22  H   UNL     1       8.520   5.006  13.354  0.00  0.00    +0.000 HD
ATOM     23  H   UNL     1       8.284   6.046  14.588  0.00  0.00    +0.000 HD
ENDBRANCH  20  21
ENDBRANCH  19  20
ENDBRANCH  17  19
ENDBRANCH   6  17
BRANCH   1  24
ATOM     24  C   UNL     1       2.352   3.782  21.630  0.00  0.00    +0.000 C 
BRANCH  24  25
ATOM     25  C   UNL     1       1.611   2.609  20.990  0.00  0.00    +0.000 C 
BRANCH  25  26
ATOM     26  C   UNL     1       0.592   3.027  19.920  0.00  0.00    +0.000 C 
BRANCH  26  28
ATOM     27  C   UNL     1       1.190   3.665  17.645  0.00  0.00    +0.000 C 
ATOM     28  N   UNL     1       0.909   2.557  18.559  0.00  0.00    +0.000 NA
ATOM     29  C   UNL     1       2.071   1.661  18.610  0.00  0.00    +0.000 C 
ENDBRANCH  26  28
ENDBRANCH  25  26
ENDBRANCH  24  25
ENDBRANCH   1  24
TORSDOF 8
ENDMDL
