MODEL 1
REMARK VINA RESULT:      -7.1      0.000      0.000
REMARK  Name = 
REMARK  2 active torsions:
REMARK  status: ('A' for Active; 'I' for Inactive)
REMARK    1  A    between atoms: N_20  and  C_21
REMARK    2  A    between atoms: C_21  and  C_22
REMARK                            x       y       z     vdW  Elec       q    Type
REMARK                         _______ _______ _______ _____ _____    ______ ____
ROOT
ATOM      1  O   UNL     1       1.365   4.701  17.296  0.00  0.00    +0.000 OA
ATOM      2  C   UNL     1       2.215   5.408  17.818  0.00  0.00    +0.000 C 
ATOM      3  C   UNL     1       1.785   6.590  18.601  0.00  0.00    +0.000 A 
ATOM      4  C   UNL     1       1.694   7.856  17.993  0.00  0.00    +0.000 A 
ATOM      5  C   UNL     1       1.557   9.009  18.779  0.00  0.00    +0.000 A 
ATOM      6 CL   UNL     1       1.608  10.599  18.042  0.00  0.00    +0.000 Cl
ATOM      7  C   UNL     1       1.443   8.901  20.166  0.00  0.00    +0.000 A 
ATOM      8  C   UNL     1       1.482   7.652  20.769  0.00  0.00    +0.000 A 
ATOM      9  C   UNL     1       1.692   6.499  20.007  0.00  0.00    +0.000 A 
ATOM     10  O   UNL     1       1.861   5.362  20.714  0.00  0.00    +0.000 OA
ATOM     11  C   UNL     1       2.565   4.218  20.525  0.00  0.00    +0.000 A 
ATOM     12  C   UNL     1       2.464   3.326  21.601  0.00  0.00    +0.000 A 
ATOM     13  C   UNL     1       3.157   2.128  21.625  0.00  0.00    +0.000 A 
ATOM     14  C   UNL     1       3.955   1.777  20.540  0.00  0.00    +0.000 A 
ATOM     15  C   UNL     1       4.060   2.626  19.446  0.00  0.00    +0.000 A 
ATOM     16  C   UNL     1       3.391   3.887  19.393  0.00  0.00    +0.000 A 
ATOM     17  C   UNL     1       3.596   4.845  18.185  0.00  0.00    +0.000 C 
ATOM     18  C   UNL     1       4.519   6.035  18.606  0.00  0.00    +0.000 C 
ATOM     19  C   UNL     1       4.826   6.925  17.369  0.00  0.00    +0.000 C 
ATOM     20  N   UNL     1       5.684   6.225  16.407  0.00  0.00    +0.000 NA
ATOM     21  C   UNL     1       4.907   5.084  15.861  0.00  0.00    +0.000 C 
ATOM     22  C   UNL     1       4.347   4.151  16.969  0.00  0.00    +0.000 C 
ENDROOT
BRANCH  20  23
ATOM     23  C   UNL     1       7.025   5.867  16.958  0.00  0.00    +0.000 C 
BRANCH  23  24
ATOM     24  C   UNL     1       8.002   7.080  17.121  0.00  0.00    +0.000 C 
ATOM     25  C   UNL     1       7.653   8.443  17.716  0.00  0.00    +0.000 C 
ATOM     26  C   UNL     1       8.259   7.375  18.610  0.00  0.00    +0.000 C 
ENDBRANCH  23  24
ENDBRANCH  20  23
TORSDOF 2
ENDMDL
MODEL 2
REMARK VINA RESULT:      -6.8      7.298      9.562
REMARK  Name = 
REMARK  2 active torsions:
REMARK  status: ('A' for Active; 'I' for Inactive)
REMARK    1  A    between atoms: N_20  and  C_21
REMARK    2  A    between atoms: C_21  and  C_22
REMARK                            x       y       z     vdW  Elec       q    Type
REMARK                         _______ _______ _______ _____ _____    ______ ____
ROOT
ATOM      1  O   UNL     1       0.715  10.730  22.026  0.00  0.00    +0.000 OA
ATOM      2  C   UNL     1      -0.111  11.523  21.596  0.00  0.00    +0.000 C 
ATOM      3  C   UNL     1      -0.827  12.404  22.549  0.00  0.00    +0.000 A 
ATOM      4  C   UNL     1      -2.075  12.023  23.076  0.00  0.00    +0.000 A 
ATOM      5  C   UNL     1      -2.872  12.957  23.751  0.00  0.00    +0.000 A 
ATOM      6 CL   UNL     1      -4.494  12.536  24.265  0.00  0.00    +0.000 Cl
ATOM      7  C   UNL     1      -2.402  14.255  23.962  0.00  0.00    +0.000 A 
ATOM      8  C   UNL     1      -1.151  14.624  23.488  0.00  0.00    +0.000 A 
ATOM      9  C   UNL     1      -0.376  13.727  22.749  0.00  0.00    +0.000 A 
ATOM     10  O   UNL     1       0.751  14.242  22.214  0.00  0.00    +0.000 OA
ATOM     11  C   UNL     1       1.473  13.994  21.093  0.00  0.00    +0.000 A 
ATOM     12  C   UNL     1       2.568  14.856  20.942  0.00  0.00    +0.000 A 
ATOM     13  C   UNL     1       3.392  14.802  19.831  0.00  0.00    +0.000 A 
ATOM     14  C   UNL     1       3.154  13.848  18.847  0.00  0.00    +0.000 A 
ATOM     15  C   UNL     1       2.092  12.962  18.974  0.00  0.00    +0.000 A 
ATOM     16  C   UNL     1       1.194  13.003  20.085  0.00  0.00    +0.000 A 
ATOM     17  C   UNL     1      -0.029  12.046  20.154  0.00  0.00    +0.000 C 
ATOM     18  C   UNL     1      -1.339  12.841  19.842  0.00  0.00    +0.000 C 
ATOM     19  C   UNL     1      -2.546  11.863  19.787  0.00  0.00    +0.000 C 
ATOM     20  N   UNL     1      -2.465  10.978  18.620  0.00  0.00    +0.000 NA
ATOM     21  C   UNL     1      -1.283  10.099  18.806  0.00  0.00    +0.000 C 
ATOM     22  C   UNL     1       0.026  10.895  19.060  0.00  0.00    +0.000 C 
ENDROOT
BRANCH  20  23
ATOM     23  C   UNL     1      -2.508  11.706  17.317  0.00  0.00    +0.000 C 
BRANCH  23  24
ATOM     24  C   UNL     1      -2.271  10.800  16.063  0.00  0.00    +0.000 C 
ATOM     25  C   UNL     1      -3.052   9.537  15.703  0.00  0.00    +0.000 C 
ATOM     26  C   UNL     1      -3.475  10.868  15.106  0.00  0.00    +0.000 C 
ENDBRANCH  23  24
ENDBRANCH  20  23
TORSDOF 2
ENDMDL
MODEL 3
REMARK VINA RESULT:      -6.7      8.915     10.952
REMARK  Name = 
REMARK  2 active torsions:
REMARK  status: ('A' for Active; 'I' for Inactive)
REMARK    1  A    between atoms: N_20  and  C_21
REMARK    2  A    between atoms: C_21  and  C_22
REMARK                            x       y       z     vdW  Elec       q    Type
REMARK                         _______ _______ _______ _____ _____    ______ ____
ROOT
ATOM      1  O   UNL     1       9.930  16.455  19.232  0.00  0.00    +0.000 OA
ATOM      2  C   UNL     1       9.091  15.673  19.655  0.00  0.00    +0.000 C 
ATOM      3  C   UNL     1       7.825  15.501  18.905  0.00  0.00    +0.000 A 
ATOM      4  C   UNL     1       6.688  16.261  19.238  0.00  0.00    +0.000 A 
ATOM      5  C   UNL     1       5.431  15.914  18.724  0.00  0.00    +0.000 A 
ATOM      6 CL   UNL     1       3.988  16.752  19.262  0.00  0.00    +0.000 Cl
ATOM      7  C   UNL     1       5.311  14.853  17.824  0.00  0.00    +0.000 A 
ATOM      8  C   UNL     1       6.435  14.130  17.453  0.00  0.00    +0.000 A 
ATOM      9  C   UNL     1       7.683  14.415  18.012  0.00  0.00    +0.000 A 
ATOM     10  O   UNL     1       8.671  13.555  17.691  0.00  0.00    +0.000 OA
ATOM     11  C   UNL     1       9.782  13.100  18.323  0.00  0.00    +0.000 A 
ATOM     12  C   UNL     1      10.485  12.142  17.579  0.00  0.00    +0.000 A 
ATOM     13  C   UNL     1      11.614  11.515  18.077  0.00  0.00    +0.000 A 
ATOM     14  C   UNL     1      12.089  11.860  19.338  0.00  0.00    +0.000 A 
ATOM     15  C   UNL     1      11.432  12.822  20.094  0.00  0.00    +0.000 A 
ATOM     16  C   UNL     1      10.244  13.471  19.636  0.00  0.00    +0.000 A 
ATOM     17  C   UNL     1       9.492  14.485  20.543  0.00  0.00    +0.000 C 
ATOM     18  C   UNL     1       8.191  13.826  21.105  0.00  0.00    +0.000 C 
ATOM     19  C   UNL     1       7.504  14.794  22.110  0.00  0.00    +0.000 C 
ATOM     20  N   UNL     1       8.297  14.945  23.333  0.00  0.00    +0.000 NA
ATOM     21  C   UNL     1       9.563  15.628  22.965  0.00  0.00    +0.000 C 
ATOM     22  C   UNL     1      10.330  14.903  21.827  0.00  0.00    +0.000 C 
ENDROOT
BRANCH  20  23
ATOM     23  C   UNL     1       8.469  13.670  24.092  0.00  0.00    +0.000 C 
BRANCH  23  24
ATOM     24  C   UNL     1       7.130  13.027  24.586  0.00  0.00    +0.000 C 
ATOM     25  C   UNL     1       6.803  11.535  24.611  0.00  0.00    +0.000 C 
ATOM     26  C   UNL     1       7.363  12.194  25.860  0.00  0.00    +0.000 C 
ENDBRANCH  23  24
ENDBRANCH  20  23
TORSDOF 2
ENDMDL
MODEL 4
REMARK VINA RESULT:      -6.6      7.603     11.489
REMARK  Name = 
REMARK  2 active torsions:
REMARK  status: ('A' for Active; 'I' for Inactive)
REMARK    1  A    between atoms: N_20  and  C_21
REMARK    2  A    between atoms: C_21  and  C_22
REMARK                            x       y       z     vdW  Elec       q    Type
REMARK                         _______ _______ _______ _____ _____    ______ ____
ROOT
ATOM      1  O   UNL     1      -0.103  14.758  23.462  0.00  0.00    +0.000 OA
ATOM      2  C   UNL     1      -0.875  14.547  22.537  0.00  0.00    +0.000 C 
ATOM      3  C   UNL     1      -0.541  15.063  21.189  0.00  0.00    +0.000 A 
ATOM      4  C   UNL     1      -1.022  16.315  20.763  0.00  0.00    +0.000 A 
ATOM      5  C   UNL     1      -0.941  16.681  19.412  0.00  0.00    +0.000 A 
ATOM      6 CL   UNL     1      -1.684  18.165  18.847  0.00  0.00    +0.000 Cl
ATOM      7  C   UNL     1      -0.321  15.832  18.493  0.00  0.00    +0.000 A 
ATOM      8  C   UNL     1       0.199  14.617  18.915  0.00  0.00    +0.000 A 
ATOM      9  C   UNL     1       0.061  14.205  20.243  0.00  0.00    +0.000 A 
ATOM     10  O   UNL     1       0.472  12.946  20.503  0.00  0.00    +0.000 OA
ATOM     11  C   UNL     1       0.091  11.980  21.376  0.00  0.00    +0.000 A 
ATOM     12  C   UNL     1       0.805  10.785  21.220  0.00  0.00    +0.000 A 
ATOM     13  C   UNL     1       0.523   9.661  21.978  0.00  0.00    +0.000 A 
ATOM     14  C   UNL     1      -0.475   9.720  22.945  0.00  0.00    +0.000 A 
ATOM     15  C   UNL     1      -1.187  10.896  23.144  0.00  0.00    +0.000 A 
ATOM     16  C   UNL     1      -0.955  12.069  22.362  0.00  0.00    +0.000 A 
ATOM     17  C   UNL     1      -1.827  13.341  22.560  0.00  0.00    +0.000 C 
ATOM     18  C   UNL     1      -2.832  13.483  21.372  0.00  0.00    +0.000 C 
ATOM     19  C   UNL     1      -3.787  14.682  21.631  0.00  0.00    +0.000 C 
ATOM     20  N   UNL     1      -4.700  14.407  22.745  0.00  0.00    +0.000 NA
ATOM     21  C   UNL     1      -3.882  14.309  23.980  0.00  0.00    +0.000 C 
ATOM     22  C   UNL     1      -2.734  13.270  23.862  0.00  0.00    +0.000 C 
ENDROOT
BRANCH  20  23
ATOM     23  C   UNL     1      -5.607  13.247  22.498  0.00  0.00    +0.000 C 
BRANCH  23  24
ATOM     24  C   UNL     1      -6.484  12.839  23.730  0.00  0.00    +0.000 C 
ATOM     25  C   UNL     1      -7.715  13.583  24.245  0.00  0.00    +0.000 C 
ATOM     26  C   UNL     1      -7.896  12.425  23.279  0.00  0.00    +0.000 C 
ENDBRANCH  23  24
ENDBRANCH  20  23
TORSDOF 2
ENDMDL
MODEL 5
REMARK VINA RESULT:      -6.6      7.326     10.996
REMARK  Name = 
REMARK  2 active torsions:
REMARK  status: ('A' for Active; 'I' for Inactive)
REMARK    1  A    between atoms: N_20  and  C_21
REMARK    2  A    between atoms: C_21  and  C_22
REMARK                            x       y       z     vdW  Elec       q    Type
REMARK                         _______ _______ _______ _____ _____    ______ ____
ROOT
ATOM      1  O   UNL     1      -0.422  14.484  23.564  0.00  0.00    +0.000 OA
ATOM      2  C   UNL     1      -1.084  14.233  22.567  0.00  0.00    +0.000 C 
ATOM      3  C   UNL     1      -0.664  14.800  21.264  0.00  0.00    +0.000 A 
ATOM      4  C   UNL     1      -1.199  16.020  20.809  0.00  0.00    +0.000 A 
ATOM      5  C   UNL     1      -1.018  16.418  19.477  0.00  0.00    +0.000 A 
ATOM      6 CL   UNL     1      -1.818  17.852  18.862  0.00  0.00    +0.000 Cl
ATOM      7  C   UNL     1      -0.250  15.637  18.612  0.00  0.00    +0.000 A 
ATOM      8  C   UNL     1       0.321  14.457  19.066  0.00  0.00    +0.000 A 
ATOM      9  C   UNL     1       0.090  14.009  20.369  0.00  0.00    +0.000 A 
ATOM     10  O   UNL     1       0.571  12.781  20.652  0.00  0.00    +0.000 OA
ATOM     11  C   UNL     1       0.185  11.771  21.472  0.00  0.00    +0.000 A 
ATOM     12  C   UNL     1       1.002  10.637  21.371  0.00  0.00    +0.000 A 
ATOM     13  C   UNL     1       0.738   9.480  22.084  0.00  0.00    +0.000 A 
ATOM     14  C   UNL     1      -0.349   9.444  22.951  0.00  0.00    +0.000 A 
ATOM     15  C   UNL     1      -1.167  10.557  23.095  0.00  0.00    +0.000 A 
ATOM     16  C   UNL     1      -0.954  11.760  22.354  0.00  0.00    +0.000 A 
ATOM     17  C   UNL     1      -1.937  12.958  22.483  0.00  0.00    +0.000 C 
ATOM     18  C   UNL     1      -2.832  13.046  21.205  0.00  0.00    +0.000 C 
ATOM     19  C   UNL     1      -3.898  14.163  21.386  0.00  0.00    +0.000 C 
ATOM     20  N   UNL     1      -4.889  13.797  22.403  0.00  0.00    +0.000 NA
ATOM     21  C   UNL     1      -4.188  13.737  23.710  0.00  0.00    +0.000 C 
ATOM     22  C   UNL     1      -2.956  12.791  23.690  0.00  0.00    +0.000 C 
ENDROOT
BRANCH  20  23
ATOM     23  C   UNL     1      -5.675  12.576  22.055  0.00  0.00    +0.000 C 
BRANCH  23  24
ATOM     24  C   UNL     1      -6.480  12.687  20.716  0.00  0.00    +0.000 C 
ATOM     25  C   UNL     1      -6.360  11.753  19.513  0.00  0.00    +0.000 C 
ATOM     26  C   UNL     1      -7.434  11.489  20.554  0.00  0.00    +0.000 C 
ENDBRANCH  23  24
ENDBRANCH  20  23
TORSDOF 2
ENDMDL
MODEL 6
REMARK VINA RESULT:      -6.5      7.228     10.083
REMARK  Name = 
REMARK  2 active torsions:
REMARK  status: ('A' for Active; 'I' for Inactive)
REMARK    1  A    between atoms: N_20  and  C_21
REMARK    2  A    between atoms: C_21  and  C_22
REMARK                            x       y       z     vdW  Elec       q    Type
REMARK                         _______ _______ _______ _____ _____    ______ ____
ROOT
ATOM      1  O   UNL     1       0.602  13.067  21.878  0.00  0.00    +0.000 OA
ATOM      2  C   UNL     1      -0.201  13.203  20.966  0.00  0.00    +0.000 C 
ATOM      3  C   UNL     1      -1.236  14.258  21.071  0.00  0.00    +0.000 A 
ATOM      4  C   UNL     1      -2.508  13.962  21.596  0.00  0.00    +0.000 A 
ATOM      5  C   UNL     1      -3.563  14.872  21.446  0.00  0.00    +0.000 A 
ATOM      6 CL   UNL     1      -5.186  14.442  21.951  0.00  0.00    +0.000 Cl
ATOM      7  C   UNL     1      -3.341  16.106  20.832  0.00  0.00    +0.000 A 
ATOM      8  C   UNL     1      -2.078  16.425  20.355  0.00  0.00    +0.000 A 
ATOM      9  C   UNL     1      -1.034  15.501  20.431  0.00  0.00    +0.000 A 
ATOM     10  O   UNL     1       0.105  15.862  19.803  0.00  0.00    +0.000 OA
ATOM     11  C   UNL     1       1.098  15.191  19.168  0.00  0.00    +0.000 A 
ATOM     12  C   UNL     1       2.067  16.037  18.613  0.00  0.00    +0.000 A 
ATOM     13  C   UNL     1       3.129  15.546  17.873  0.00  0.00    +0.000 A 
ATOM     14  C   UNL     1       3.264  14.173  17.698  0.00  0.00    +0.000 A 
ATOM     15  C   UNL     1       2.336  13.302  18.255  0.00  0.00    +0.000 A 
ATOM     16  C   UNL     1       1.205  13.765  18.995  0.00  0.00    +0.000 A 
ATOM     17  C   UNL     1       0.145  12.764  19.535  0.00  0.00    +0.000 C 
ATOM     18  C   UNL     1      -1.151  12.848  18.665  0.00  0.00    +0.000 C 
ATOM     19  C   UNL     1      -2.164  11.761  19.126  0.00  0.00    +0.000 C 
ATOM     20  N   UNL     1      -1.688  10.414  18.798  0.00  0.00    +0.000 NA
ATOM     21  C   UNL     1      -0.472  10.158  19.611  0.00  0.00    +0.000 C 
ATOM     22  C   UNL     1       0.616  11.250  19.428  0.00  0.00    +0.000 C 
ENDROOT
BRANCH  20  23
ATOM     23  C   UNL     1      -1.523  10.182  17.332  0.00  0.00    +0.000 C 
BRANCH  23  24
ATOM     24  C   UNL     1      -2.857   9.868  16.574  0.00  0.00    +0.000 C 
ATOM     25  C   UNL     1      -3.858  10.896  16.049  0.00  0.00    +0.000 C 
ATOM     26  C   UNL     1      -2.784  10.360  15.117  0.00  0.00    +0.000 C 
ENDBRANCH  23  24
ENDBRANCH  20  23
TORSDOF 2
ENDMDL
MODEL 7
REMARK VINA RESULT:      -6.5      8.782     10.878
REMARK  Name = 
REMARK  2 active torsions:
REMARK  status: ('A' for Active; 'I' for Inactive)
REMARK    1  A    between atoms: N_20  and  C_21
REMARK    2  A    between atoms: C_21  and  C_22
REMARK                            x       y       z     vdW  Elec       q    Type
REMARK                         _______ _______ _______ _____ _____    ______ ____
ROOT
ATOM      1  O   UNL     1      10.520  15.233  21.857  0.00  0.00    +0.000 OA
ATOM      2  C   UNL     1       9.795  14.727  21.012  0.00  0.00    +0.000 C 
ATOM      3  C   UNL     1      10.343  13.665  20.137  0.00  0.00    +0.000 A 
ATOM      4  C   UNL     1      10.891  13.985  18.880  0.00  0.00    +0.000 A 
ATOM      5  C   UNL     1      11.156  12.974  17.946  0.00  0.00    +0.000 A 
ATOM      6 CL   UNL     1      11.682  13.379  16.324  0.00  0.00    +0.000 Cl
ATOM      7  C   UNL     1      10.940  11.636  18.283  0.00  0.00    +0.000 A 
ATOM      8  C   UNL     1      10.446  11.309  19.537  0.00  0.00    +0.000 A 
ATOM      9  C   UNL     1      10.108  12.308  20.453  0.00  0.00    +0.000 A 
ATOM     10  O   UNL     1       9.500  11.879  21.579  0.00  0.00    +0.000 OA
ATOM     11  C   UNL     1       8.577  12.404  22.423  0.00  0.00    +0.000 A 
ATOM     12  C   UNL     1       8.209  11.525  23.451  0.00  0.00    +0.000 A 
ATOM     13  C   UNL     1       7.236  11.854  24.380  0.00  0.00    +0.000 A 
ATOM     14  C   UNL     1       6.624  13.102  24.318  0.00  0.00    +0.000 A 
ATOM     15  C   UNL     1       6.981  14.008  23.328  0.00  0.00    +0.000 A 
ATOM     16  C   UNL     1       7.954  13.699  22.327  0.00  0.00    +0.000 A 
ATOM     17  C   UNL     1       8.269  14.709  21.188  0.00  0.00    +0.000 C 
ATOM     18  C   UNL     1       7.624  14.215  19.852  0.00  0.00    +0.000 C 
ATOM     19  C   UNL     1       7.832  15.284  18.742  0.00  0.00    +0.000 C 
ATOM     20  N   UNL     1       7.045  16.492  19.009  0.00  0.00    +0.000 NA
ATOM     21  C   UNL     1       7.592  17.121  20.238  0.00  0.00    +0.000 C 
ATOM     22  C   UNL     1       7.639  16.144  21.445  0.00  0.00    +0.000 C 
ENDROOT
BRANCH  20  23
ATOM     23  C   UNL     1       5.572  16.249  19.030  0.00  0.00    +0.000 C 
BRANCH  23  24
ATOM     24  C   UNL     1       5.066  15.253  17.933  0.00  0.00    +0.000 C 
ATOM     25  C   UNL     1       3.897  14.279  18.072  0.00  0.00    +0.000 C 
ATOM     26  C   UNL     1       3.657  15.644  17.451  0.00  0.00    +0.000 C 
ENDBRANCH  23  24
ENDBRANCH  20  23
TORSDOF 2
ENDMDL
MODEL 8
REMARK VINA RESULT:      -6.4      4.947      8.864
REMARK  Name = 
REMARK  2 active torsions:
REMARK  status: ('A' for Active; 'I' for Inactive)
REMARK    1  A    between atoms: N_20  and  C_21
REMARK    2  A    between atoms: C_21  and  C_22
REMARK                            x       y       z     vdW  Elec       q    Type
REMARK                         _______ _______ _______ _____ _____    ______ ____
ROOT
ATOM      1  O   UNL     1       1.077  12.436  19.174  0.00  0.00    +0.000 OA
ATOM      2  C   UNL     1       0.417  11.408  19.155  0.00  0.00    +0.000 C 
ATOM      3  C   UNL     1       1.045  10.141  19.598  0.00  0.00    +0.000 A 
ATOM      4  C   UNL     1       1.653   9.280  18.665  0.00  0.00    +0.000 A 
ATOM      5  C   UNL     1       2.000   7.973  19.031  0.00  0.00    +0.000 A 
ATOM      6 CL   UNL     1       2.605   6.844  17.834  0.00  0.00    +0.000 Cl
ATOM      7  C   UNL     1       1.805   7.539  20.344  0.00  0.00    +0.000 A 
ATOM      8  C   UNL     1       1.251   8.398  21.282  0.00  0.00    +0.000 A 
ATOM      9  C   UNL     1       0.832   9.679  20.915  0.00  0.00    +0.000 A 
ATOM     10  O   UNL     1       0.174  10.368  21.871  0.00  0.00    +0.000 OA
ATOM     11  C   UNL     1      -0.810  11.301  21.867  0.00  0.00    +0.000 A 
ATOM     12  C   UNL     1      -1.209  11.686  23.154  0.00  0.00    +0.000 A 
ATOM     13  C   UNL     1      -2.242  12.585  23.361  0.00  0.00    +0.000 A 
ATOM     14  C   UNL     1      -2.886  13.151  22.266  0.00  0.00    +0.000 A 
ATOM     15  C   UNL     1      -2.501  12.812  20.975  0.00  0.00    +0.000 A 
ATOM     16  C   UNL     1      -1.465  11.863  20.714  0.00  0.00    +0.000 A 
ATOM     17  C   UNL     1      -1.116  11.450  19.256  0.00  0.00    +0.000 C 
ATOM     18  C   UNL     1      -1.670  10.017  18.967  0.00  0.00    +0.000 C 
ATOM     19  C   UNL     1      -1.431   9.653  17.474  0.00  0.00    +0.000 C 
ATOM     20  N   UNL     1      -2.268  10.466  16.586  0.00  0.00    +0.000 NA
ATOM     21  C   UNL     1      -1.810  11.873  16.703  0.00  0.00    +0.000 C 
ATOM     22  C   UNL     1      -1.802  12.384  18.170  0.00  0.00    +0.000 C 
ENDROOT
BRANCH  20  23
ATOM     23  C   UNL     1      -3.732  10.262  16.796  0.00  0.00    +0.000 C 
BRANCH  23  24
ATOM     24  C   UNL     1      -4.519  11.565  17.163  0.00  0.00    +0.000 C 
ATOM     25  C   UNL     1      -6.027  11.675  17.378  0.00  0.00    +0.000 C 
ATOM     26  C   UNL     1      -5.119  11.459  18.577  0.00  0.00    +0.000 C 
ENDBRANCH  23  24
ENDBRANCH  20  23
TORSDOF 2
ENDMDL
MODEL 9
REMARK VINA RESULT:      -6.3      7.389      9.995
REMARK  Name = 
REMARK  2 active torsions:
REMARK  status: ('A' for Active; 'I' for Inactive)
REMARK    1  A    between atoms: N_20  and  C_21
REMARK    2  A    between atoms: C_21  and  C_22
REMARK                            x       y       z     vdW  Elec       q    Type
REMARK                         _______ _______ _______ _____ _____    ______ ____
ROOT
ATOM      1  O   UNL     1       1.069  11.090  21.572  0.00  0.00    +0.000 OA
ATOM      2  C   UNL     1       0.114  11.774  21.231  0.00  0.00    +0.000 C 
ATOM      3  C   UNL     1      -0.565  12.615  22.243  0.00  0.00    +0.000 A 
ATOM      4  C   UNL     1      -1.687  12.130  22.940  0.00  0.00    +0.000 A 
ATOM      5  C   UNL     1      -2.489  13.005  23.687  0.00  0.00    +0.000 A 
ATOM      6 CL   UNL     1      -3.977  12.440  24.422  0.00  0.00    +0.000 Cl
ATOM      7  C   UNL     1      -2.139  14.352  23.797  0.00  0.00    +0.000 A 
ATOM      8  C   UNL     1      -1.006  14.828  23.153  0.00  0.00    +0.000 A 
ATOM      9  C   UNL     1      -0.239  13.986  22.345  0.00  0.00    +0.000 A 
ATOM     10  O   UNL     1       0.749  14.591  21.652  0.00  0.00    +0.000 OA
ATOM     11  C   UNL     1       1.344  14.372  20.453  0.00  0.00    +0.000 A 
ATOM     12  C   UNL     1       2.311  15.336  20.135  0.00  0.00    +0.000 A 
ATOM     13  C   UNL     1       2.989  15.320  18.928  0.00  0.00    +0.000 A 
ATOM     14  C   UNL     1       2.732  14.306  18.012  0.00  0.00    +0.000 A 
ATOM     15  C   UNL     1       1.797  13.320  18.303  0.00  0.00    +0.000 A 
ATOM     16  C   UNL     1       1.049  13.316  19.520  0.00  0.00    +0.000 A 
ATOM     17  C   UNL     1      -0.045  12.241  19.776  0.00  0.00    +0.000 C 
ATOM     18  C   UNL     1      -1.462  12.882  19.615  0.00  0.00    +0.000 C 
ATOM     19  C   UNL     1      -2.554  11.782  19.748  0.00  0.00    +0.000 C 
ATOM     20  N   UNL     1      -2.526  10.862  18.606  0.00  0.00    +0.000 NA
ATOM     21  C   UNL     1      -1.242  10.119  18.661  0.00  0.00    +0.000 C 
ATOM     22  C   UNL     1      -0.005  11.057  18.718  0.00  0.00    +0.000 C 
ENDROOT
BRANCH  20  23
ATOM     23  C   UNL     1      -2.813  11.526  17.300  0.00  0.00    +0.000 C 
BRANCH  23  24
ATOM     24  C   UNL     1      -4.246  11.245  16.734  0.00  0.00    +0.000 C 
ATOM     25  C   UNL     1      -5.490  10.915  17.556  0.00  0.00    +0.000 C 
ATOM     26  C   UNL     1      -5.225  12.356  17.154  0.00  0.00    +0.000 C 
ENDBRANCH  23  24
ENDBRANCH  20  23
TORSDOF 2
ENDMDL
