MODEL 1
REMARK VINA RESULT:      -7.4      0.000      0.000
REMARK  Name = 
REMARK  8 active torsions:
REMARK  status: ('A' for Active; 'I' for Inactive)
REMARK    1  A    between atoms: C_1  and  C_2
REMARK    2  A    between atoms: C_2  and  O_3
REMARK    3  A    between atoms: O_3  and  C_4
REMARK    4  A    between atoms: N_6  and  C_7
REMARK    5  A    between atoms: C_10  and  N_11
REMARK    6  A    between atoms: N_14  and  C_15
REMARK    7  A    between atoms: C_15  and  C_16
REMARK    8  A    between atoms: C_16  and  C_17
REMARK                            x       y       z     vdW  Elec       q    Type
REMARK                         _______ _______ _______ _____ _____    ______ ____
ROOT
ATOM      1  N   UNL     1       3.167   6.571  18.055  0.00  0.00    +0.000 N 
ATOM      2  C   UNL     1       4.609   6.722  17.842  0.00  0.00    +0.000 C 
ATOM      3  C   UNL     1       5.375   5.531  18.448  0.00  0.00    +0.000 C 
ATOM      4  N   UNL     1       4.916   4.203  17.970  0.00  0.00    +0.000 NA
ATOM      5  C   UNL     1       3.464   4.106  18.288  0.00  0.00    +0.000 C 
ATOM      6  C   UNL     1       2.583   5.256  17.734  0.00  0.00    +0.000 C 
ENDROOT
BRANCH   1  10
ATOM      7  C   UNL     1       0.916   9.408  20.214  0.00  0.00    +0.000 A 
ATOM      8  C   UNL     1       1.247   9.613  18.875  0.00  0.00    +0.000 A 
ATOM      9  C   UNL     1       1.992   8.667  18.173  0.00  0.00    +0.000 A 
ATOM     10  C   UNL     1       2.435   7.488  18.779  0.00  0.00    +0.000 A 
ATOM     11  C   UNL     1       2.117   7.306  20.131  0.00  0.00    +0.000 A 
ATOM     12  C   UNL     1       1.373   8.254  20.847  0.00  0.00    +0.000 A 
BRANCH   7  15
ATOM     13  C   UNL     1       0.568  11.563  21.370  0.00  0.00    +0.000 C 
ATOM     14  O   UNL     1       1.607  12.138  21.072  0.00  0.00    +0.000 OA
ATOM     15  N   UNL     1       0.159  10.324  20.960  0.00  0.00    +0.000 N 
ATOM     16  H   UNL     1      -0.777  10.070  21.241  0.00  0.00    +0.000 HD
BRANCH  13  17
ATOM     17  O   UNL     1      -0.356  12.079  22.223  0.00  0.00    +0.000 OA
BRANCH  17  19
ATOM     18  C   UNL     1      -2.459  11.764  23.335  0.00  0.00    +0.000 C 
ATOM     19  C   UNL     1      -1.193  11.088  22.836  0.00  0.00    +0.000 C 
ENDBRANCH  17  19
ENDBRANCH  13  17
ENDBRANCH   7  15
ENDBRANCH   1  10
BRANCH   4  20
ATOM     20  C   UNL     1       5.130   4.005  16.520  0.00  0.00    +0.000 C 
BRANCH  20  21
ATOM     21  C   UNL     1       6.377   4.710  15.961  0.00  0.00    +0.000 C 
BRANCH  21  22
ATOM     22  C   UNL     1       6.541   4.428  14.484  0.00  0.00    +0.000 A 
ATOM     23  C   UNL     1       7.538   5.078  13.742  0.00  0.00    +0.000 A 
ATOM     24  C   UNL     1       7.658   4.852  12.371  0.00  0.00    +0.000 A 
ATOM     25  C   UNL     1       6.779   3.977  11.731  0.00  0.00    +0.000 A 
ATOM     26  C   UNL     1       5.788   3.326  12.465  0.00  0.00    +0.000 A 
ATOM     27  C   UNL     1       5.668   3.551  13.834  0.00  0.00    +0.000 A 
ENDBRANCH  21  22
ENDBRANCH  20  21
ENDBRANCH   4  20
TORSDOF 7
ENDMDL
MODEL 2
REMARK VINA RESULT:      -7.1      3.053     10.766
REMARK  Name = 
REMARK  8 active torsions:
REMARK  status: ('A' for Active; 'I' for Inactive)
REMARK    1  A    between atoms: C_1  and  C_2
REMARK    2  A    between atoms: C_2  and  O_3
REMARK    3  A    between atoms: O_3  and  C_4
REMARK    4  A    between atoms: N_6  and  C_7
REMARK    5  A    between atoms: C_10  and  N_11
REMARK    6  A    between atoms: N_14  and  C_15
REMARK    7  A    between atoms: C_15  and  C_16
REMARK    8  A    between atoms: C_16  and  C_17
REMARK                            x       y       z     vdW  Elec       q    Type
REMARK                         _______ _______ _______ _____ _____    ______ ____
ROOT
ATOM      1  N   UNL     1       1.294   8.502  19.881  0.00  0.00    +0.000 N 
ATOM      2  C   UNL     1       0.947   8.272  21.286  0.00  0.00    +0.000 C 
ATOM      3  C   UNL     1       1.324   9.494  22.145  0.00  0.00    +0.000 C 
ATOM      4  N   UNL     1       0.745  10.775  21.671  0.00  0.00    +0.000 NA
ATOM      5  C   UNL     1       1.202  10.964  20.266  0.00  0.00    +0.000 C 
ATOM      6  C   UNL     1       0.884   9.793  19.299  0.00  0.00    +0.000 C 
ENDROOT
BRANCH   1  10
ATOM      7  C   UNL     1       4.061   6.104  17.790  0.00  0.00    +0.000 A 
ATOM      8  C   UNL     1       3.674   7.353  17.306  0.00  0.00    +0.000 A 
ATOM      9  C   UNL     1       2.759   8.136  18.007  0.00  0.00    +0.000 A 
ATOM     10  C   UNL     1       2.194   7.702  19.210  0.00  0.00    +0.000 A 
ATOM     11  C   UNL     1       2.573   6.434  19.672  0.00  0.00    +0.000 A 
ATOM     12  C   UNL     1       3.489   5.638  18.971  0.00  0.00    +0.000 A 
BRANCH   7  15
ATOM     13  C   UNL     1       6.341   5.278  17.322  0.00  0.00    +0.000 C 
ATOM     14  O   UNL     1       6.972   5.892  18.174  0.00  0.00    +0.000 OA
ATOM     15  N   UNL     1       4.987   5.285  17.128  0.00  0.00    +0.000 N 
ATOM     16  H   UNL     1       4.655   4.633  16.431  0.00  0.00    +0.000 HD
BRANCH  13  17
ATOM     17  O   UNL     1       6.925   4.496  16.377  0.00  0.00    +0.000 OA
BRANCH  17  19
ATOM     18  C   UNL     1       6.305   4.039  14.104  0.00  0.00    +0.000 C 
ATOM     19  C   UNL     1       5.988   3.773  15.567  0.00  0.00    +0.000 C 
ENDBRANCH  17  19
ENDBRANCH  13  17
ENDBRANCH   7  15
ENDBRANCH   1  10
BRANCH   4  20
ATOM     20  C   UNL     1      -0.733  10.798  21.728  0.00  0.00    +0.000 C 
BRANCH  20  21
ATOM     21  C   UNL     1      -1.310  10.935  23.146  0.00  0.00    +0.000 C 
BRANCH  21  22
ATOM     22  C   UNL     1      -1.996  12.271  23.325  0.00  0.00    +0.000 A 
ATOM     23  C   UNL     1      -1.259  13.463  23.266  0.00  0.00    +0.000 A 
ATOM     24  C   UNL     1      -1.885  14.691  23.477  0.00  0.00    +0.000 A 
ATOM     25  C   UNL     1      -3.252  14.736  23.752  0.00  0.00    +0.000 A 
ATOM     26  C   UNL     1      -3.991  13.555  23.809  0.00  0.00    +0.000 A 
ATOM     27  C   UNL     1      -3.366  12.328  23.598  0.00  0.00    +0.000 A 
ENDBRANCH  21  22
ENDBRANCH  20  21
ENDBRANCH   4  20
TORSDOF 7
ENDMDL
MODEL 3
REMARK VINA RESULT:      -7.1      0.921      1.666
REMARK  Name = 
REMARK  8 active torsions:
REMARK  status: ('A' for Active; 'I' for Inactive)
REMARK    1  A    between atoms: C_1  and  C_2
REMARK    2  A    between atoms: C_2  and  O_3
REMARK    3  A    between atoms: O_3  and  C_4
REMARK    4  A    between atoms: N_6  and  C_7
REMARK    5  A    between atoms: C_10  and  N_11
REMARK    6  A    between atoms: N_14  and  C_15
REMARK    7  A    between atoms: C_15  and  C_16
REMARK    8  A    between atoms: C_16  and  C_17
REMARK                            x       y       z     vdW  Elec       q    Type
REMARK                         _______ _______ _______ _____ _____    ______ ____
ROOT
ATOM      1  N   UNL     1       3.792   6.535  17.961  0.00  0.00    +0.000 N 
ATOM      2  C   UNL     1       4.885   7.076  17.150  0.00  0.00    +0.000 C 
ATOM      3  C   UNL     1       6.249   6.729  17.775  0.00  0.00    +0.000 C 
ATOM      4  N   UNL     1       6.456   5.281  18.024  0.00  0.00    +0.000 NA
ATOM      5  C   UNL     1       5.346   4.831  18.910  0.00  0.00    +0.000 C 
ATOM      6  C   UNL     1       3.915   5.130  18.388  0.00  0.00    +0.000 C 
ENDROOT
BRANCH   1  10
ATOM      7  C   UNL     1       0.894   8.990  19.794  0.00  0.00    +0.000 A 
ATOM      8  C   UNL     1       1.421   7.878  20.450  0.00  0.00    +0.000 A 
ATOM      9  C   UNL     1       2.379   7.075  19.833  0.00  0.00    +0.000 A 
ATOM     10  C   UNL     1       2.841   7.348  18.542  0.00  0.00    +0.000 A 
ATOM     11  C   UNL     1       2.285   8.453  17.885  0.00  0.00    +0.000 A 
ATOM     12  C   UNL     1       1.318   9.263  18.496  0.00  0.00    +0.000 A 
BRANCH   7  15
ATOM     13  C   UNL     1       0.198  10.971  21.094  0.00  0.00    +0.000 C 
ATOM     14  O   UNL     1       1.284  11.513  21.261  0.00  0.00    +0.000 OA
ATOM     15  N   UNL     1      -0.061   9.835  20.377  0.00  0.00    +0.000 N 
ATOM     16  H   UNL     1      -1.041   9.607  20.282  0.00  0.00    +0.000 HD
BRANCH  13  17
ATOM     17  O   UNL     1      -0.956  11.417  21.657  0.00  0.00    +0.000 OA
BRANCH  17  19
ATOM     18  C   UNL     1      -2.102  12.847  23.206  0.00  0.00    +0.000 C 
ATOM     19  C   UNL     1      -0.775  12.540  22.531  0.00  0.00    +0.000 C 
ENDBRANCH  17  19
ENDBRANCH  13  17
ENDBRANCH   7  15
ENDBRANCH   1  10
BRANCH   4  20
ATOM     20  C   UNL     1       6.469   4.478  16.783  0.00  0.00    +0.000 C 
BRANCH  20  21
ATOM     21  C   UNL     1       7.153   5.165  15.590  0.00  0.00    +0.000 C 
BRANCH  21  22
ATOM     22  C   UNL     1       6.667   4.587  14.280  0.00  0.00    +0.000 A 
ATOM     23  C   UNL     1       5.391   4.011  14.186  0.00  0.00    +0.000 A 
ATOM     24  C   UNL     1       4.963   3.436  12.991  0.00  0.00    +0.000 A 
ATOM     25  C   UNL     1       5.808   3.428  11.881  0.00  0.00    +0.000 A 
ATOM     26  C   UNL     1       7.076   4.001  11.967  0.00  0.00    +0.000 A 
ATOM     27  C   UNL     1       7.505   4.575  13.161  0.00  0.00    +0.000 A 
ENDBRANCH  21  22
ENDBRANCH  20  21
ENDBRANCH   4  20
TORSDOF 7
ENDMDL
MODEL 4
REMARK VINA RESULT:      -7.0      1.152      1.548
REMARK  Name = 
REMARK  8 active torsions:
REMARK  status: ('A' for Active; 'I' for Inactive)
REMARK    1  A    between atoms: C_1  and  C_2
REMARK    2  A    between atoms: C_2  and  O_3
REMARK    3  A    between atoms: O_3  and  C_4
REMARK    4  A    between atoms: N_6  and  C_7
REMARK    5  A    between atoms: C_10  and  N_11
REMARK    6  A    between atoms: N_14  and  C_15
REMARK    7  A    between atoms: C_15  and  C_16
REMARK    8  A    between atoms: C_16  and  C_17
REMARK                            x       y       z     vdW  Elec       q    Type
REMARK                         _______ _______ _______ _____ _____    ______ ____
ROOT
ATOM      1  N   UNL     1       3.648   6.374  18.091  0.00  0.00    +0.000 N 
ATOM      2  C   UNL     1       4.606   6.964  17.154  0.00  0.00    +0.000 C 
ATOM      3  C   UNL     1       6.051   6.636  17.576  0.00  0.00    +0.000 C 
ATOM      4  N   UNL     1       6.322   5.188  17.752  0.00  0.00    +0.000 NA
ATOM      5  C   UNL     1       5.355   4.686  18.767  0.00  0.00    +0.000 C 
ATOM      6  C   UNL     1       3.860   4.961  18.456  0.00  0.00    +0.000 C 
ENDROOT
BRANCH   1  10
ATOM      7  C   UNL     1       0.949   8.772  20.269  0.00  0.00    +0.000 A 
ATOM      8  C   UNL     1       1.411   9.161  19.013  0.00  0.00    +0.000 A 
ATOM      9  C   UNL     1       2.303   8.358  18.303  0.00  0.00    +0.000 A 
ATOM     10  C   UNL     1       2.768   7.146  18.820  0.00  0.00    +0.000 A 
ATOM     11  C   UNL     1       2.315   6.780  20.094  0.00  0.00    +0.000 A 
ATOM     12  C   UNL     1       1.422   7.582  20.817  0.00  0.00    +0.000 A 
BRANCH   7  15
ATOM     13  C   UNL     1       0.177   9.890  22.332  0.00  0.00    +0.000 C 
ATOM     14  O   UNL     1       1.148   9.704  23.055  0.00  0.00    +0.000 OA
ATOM     15  N   UNL     1       0.043   9.538  21.017  0.00  0.00    +0.000 N 
ATOM     16  H   UNL     1      -0.802   9.869  20.573  0.00  0.00    +0.000 HD
BRANCH  13  17
ATOM     17  O   UNL     1      -0.977  10.465  22.761  0.00  0.00    +0.000 OA
BRANCH  17  19
ATOM     18  C   UNL     1      -1.959  12.633  23.069  0.00  0.00    +0.000 C 
ATOM     19  C   UNL     1      -1.302  11.685  22.079  0.00  0.00    +0.000 C 
ENDBRANCH  17  19
ENDBRANCH  13  17
ENDBRANCH   7  15
ENDBRANCH   1  10
BRANCH   4  20
ATOM     20  C   UNL     1       6.183   4.418  16.497  0.00  0.00    +0.000 C 
BRANCH  20  21
ATOM     21  C   UNL     1       7.035   4.945  15.332  0.00  0.00    +0.000 C 
BRANCH  21  22
ATOM     22  C   UNL     1       6.542   4.399  14.011  0.00  0.00    +0.000 A 
ATOM     23  C   UNL     1       5.235   3.903  13.888  0.00  0.00    +0.000 A 
ATOM     24  C   UNL     1       4.798   3.357  12.682  0.00  0.00    +0.000 A 
ATOM     25  C   UNL     1       5.664   3.298  11.590  0.00  0.00    +0.000 A 
ATOM     26  C   UNL     1       6.963   3.791  11.705  0.00  0.00    +0.000 A 
ATOM     27  C   UNL     1       7.401   4.337  12.909  0.00  0.00    +0.000 A 
ENDBRANCH  21  22
ENDBRANCH  20  21
ENDBRANCH   4  20
TORSDOF 7
ENDMDL
MODEL 5
REMARK VINA RESULT:      -7.0      1.267      2.046
REMARK  Name = 
REMARK  8 active torsions:
REMARK  status: ('A' for Active; 'I' for Inactive)
REMARK    1  A    between atoms: C_1  and  C_2
REMARK    2  A    between atoms: C_2  and  O_3
REMARK    3  A    between atoms: O_3  and  C_4
REMARK    4  A    between atoms: N_6  and  C_7
REMARK    5  A    between atoms: C_10  and  N_11
REMARK    6  A    between atoms: N_14  and  C_15
REMARK    7  A    between atoms: C_15  and  C_16
REMARK    8  A    between atoms: C_16  and  C_17
REMARK                            x       y       z     vdW  Elec       q    Type
REMARK                         _______ _______ _______ _____ _____    ______ ____
ROOT
ATOM      1  N   UNL     1       3.347   6.604  17.845  0.00  0.00    +0.000 N 
ATOM      2  C   UNL     1       4.777   6.821  17.611  0.00  0.00    +0.000 C 
ATOM      3  C   UNL     1       5.616   5.771  18.362  0.00  0.00    +0.000 C 
ATOM      4  N   UNL     1       5.248   4.365  18.060  0.00  0.00    +0.000 NA
ATOM      5  C   UNL     1       3.803   4.214  18.392  0.00  0.00    +0.000 C 
ATOM      6  C   UNL     1       2.852   5.224  17.697  0.00  0.00    +0.000 C 
ENDROOT
BRANCH   1  10
ATOM      7  C   UNL     1       0.926   9.489  19.742  0.00  0.00    +0.000 A 
ATOM      8  C   UNL     1       1.346   8.341  20.414  0.00  0.00    +0.000 A 
ATOM      9  C   UNL     1       2.146   7.396  19.775  0.00  0.00    +0.000 A 
ATOM     10  C   UNL     1       2.552   7.557  18.447  0.00  0.00    +0.000 A 
ATOM     11  C   UNL     1       2.103   8.702  17.777  0.00  0.00    +0.000 A 
ATOM     12  C   UNL     1       1.294   9.656  18.409  0.00  0.00    +0.000 A 
BRANCH   7  15
ATOM     13  C   UNL     1      -1.054  10.960  19.864  0.00  0.00    +0.000 C 
ATOM     14  O   UNL     1      -1.686  10.552  18.897  0.00  0.00    +0.000 OA
ATOM     15  N   UNL     1       0.131  10.475  20.345  0.00  0.00    +0.000 N 
ATOM     16  H   UNL     1       0.439  10.891  21.212  0.00  0.00    +0.000 HD
BRANCH  13  17
ATOM     17  O   UNL     1      -1.435  12.030  20.610  0.00  0.00    +0.000 OA
BRANCH  17  19
ATOM     18  C   UNL     1      -0.591  13.938  19.425  0.00  0.00    +0.000 C 
ATOM     19  C   UNL     1      -0.452  13.073  20.667  0.00  0.00    +0.000 C 
ENDBRANCH  17  19
ENDBRANCH  13  17
ENDBRANCH   7  15
ENDBRANCH   1  10
BRANCH   4  20
ATOM     20  C   UNL     1       5.482   3.997  16.647  0.00  0.00    +0.000 C 
BRANCH  20  21
ATOM     21  C   UNL     1       6.807   4.519  16.068  0.00  0.00    +0.000 C 
BRANCH  21  22
ATOM     22  C   UNL     1       6.807   4.437  14.558  0.00  0.00    +0.000 A 
ATOM     23  C   UNL     1       5.958   3.540  13.894  0.00  0.00    +0.000 A 
ATOM     24  C   UNL     1       5.992   3.432  12.504  0.00  0.00    +0.000 A 
ATOM     25  C   UNL     1       6.879   4.217  11.768  0.00  0.00    +0.000 A 
ATOM     26  C   UNL     1       7.724   5.113  12.422  0.00  0.00    +0.000 A 
ATOM     27  C   UNL     1       7.690   5.221  13.810  0.00  0.00    +0.000 A 
ENDBRANCH  21  22
ENDBRANCH  20  21
ENDBRANCH   4  20
TORSDOF 7
ENDMDL
MODEL 6
REMARK VINA RESULT:      -7.0      3.141     10.646
REMARK  Name = 
REMARK  8 active torsions:
REMARK  status: ('A' for Active; 'I' for Inactive)
REMARK    1  A    between atoms: C_1  and  C_2
REMARK    2  A    between atoms: C_2  and  O_3
REMARK    3  A    between atoms: O_3  and  C_4
REMARK    4  A    between atoms: N_6  and  C_7
REMARK    5  A    between atoms: C_10  and  N_11
REMARK    6  A    between atoms: N_14  and  C_15
REMARK    7  A    between atoms: C_15  and  C_16
REMARK    8  A    between atoms: C_16  and  C_17
REMARK                            x       y       z     vdW  Elec       q    Type
REMARK                         _______ _______ _______ _____ _____    ______ ____
ROOT
ATOM      1  N   UNL     1       1.290   8.450  19.969  0.00  0.00    +0.000 N 
ATOM      2  C   UNL     1       0.973   8.208  21.379  0.00  0.00    +0.000 C 
ATOM      3  C   UNL     1       1.399   9.409  22.245  0.00  0.00    +0.000 C 
ATOM      4  N   UNL     1       0.839  10.710  21.803  0.00  0.00    +0.000 NA
ATOM      5  C   UNL     1       1.266  10.908  20.389  0.00  0.00    +0.000 C 
ATOM      6  C   UNL     1       0.897   9.758  19.415  0.00  0.00    +0.000 C 
ENDROOT
BRANCH   1  10
ATOM      7  C   UNL     1       3.918   5.919  17.854  0.00  0.00    +0.000 A 
ATOM      8  C   UNL     1       3.328   5.514  19.051  0.00  0.00    +0.000 A 
ATOM      9  C   UNL     1       2.461   6.360  19.740  0.00  0.00    +0.000 A 
ATOM     10  C   UNL     1       2.155   7.638  19.265  0.00  0.00    +0.000 A 
ATOM     11  C   UNL     1       2.773   8.042  18.075  0.00  0.00    +0.000 A 
ATOM     12  C   UNL     1       3.650   7.200  17.377  0.00  0.00    +0.000 A 
BRANCH   7  15
ATOM     13  C   UNL     1       6.127   4.945  17.338  0.00  0.00    +0.000 C 
ATOM     14  O   UNL     1       6.784   5.393  18.270  0.00  0.00    +0.000 OA
ATOM     15  N   UNL     1       4.786   5.101  17.118  0.00  0.00    +0.000 N 
ATOM     16  H   UNL     1       4.418   4.569  16.342  0.00  0.00    +0.000 HD
BRANCH  13  17
ATOM     17  O   UNL     1       6.667   4.227  16.318  0.00  0.00    +0.000 OA
BRANCH  17  19
ATOM     18  C   UNL     1       6.230   3.985  13.971  0.00  0.00    +0.000 C 
ATOM     19  C   UNL     1       6.692   4.930  15.068  0.00  0.00    +0.000 C 
ENDBRANCH  17  19
ENDBRANCH  13  17
ENDBRANCH   7  15
ENDBRANCH   1  10
BRANCH   4  20
ATOM     20  C   UNL     1      -0.636  10.766  21.897  0.00  0.00    +0.000 C 
BRANCH  20  21
ATOM     21  C   UNL     1      -1.168  11.809  22.894  0.00  0.00    +0.000 C 
BRANCH  21  22
ATOM     22  C   UNL     1      -2.511  12.344  22.453  0.00  0.00    +0.000 A 
ATOM     23  C   UNL     1      -3.551  12.508  23.379  0.00  0.00    +0.000 A 
ATOM     24  C   UNL     1      -4.804  12.957  22.962  0.00  0.00    +0.000 A 
ATOM     25  C   UNL     1      -5.027  13.242  21.614  0.00  0.00    +0.000 A 
ATOM     26  C   UNL     1      -3.995  13.083  20.689  0.00  0.00    +0.000 A 
ATOM     27  C   UNL     1      -2.745  12.634  21.105  0.00  0.00    +0.000 A 
ENDBRANCH  21  22
ENDBRANCH  20  21
ENDBRANCH   4  20
TORSDOF 7
ENDMDL
MODEL 7
REMARK VINA RESULT:      -7.0      3.038     10.848
REMARK  Name = 
REMARK  8 active torsions:
REMARK  status: ('A' for Active; 'I' for Inactive)
REMARK    1  A    between atoms: C_1  and  C_2
REMARK    2  A    between atoms: C_2  and  O_3
REMARK    3  A    between atoms: O_3  and  C_4
REMARK    4  A    between atoms: N_6  and  C_7
REMARK    5  A    between atoms: C_10  and  N_11
REMARK    6  A    between atoms: N_14  and  C_15
REMARK    7  A    between atoms: C_15  and  C_16
REMARK    8  A    between atoms: C_16  and  C_17
REMARK                            x       y       z     vdW  Elec       q    Type
REMARK                         _______ _______ _______ _____ _____    ______ ____
ROOT
ATOM      1  N   UNL     1       1.079   8.732  20.059  0.00  0.00    +0.000 N 
ATOM      2  C   UNL     1       0.633   8.561  21.444  0.00  0.00    +0.000 C 
ATOM      3  C   UNL     1       1.072   9.758  22.307  0.00  0.00    +0.000 C 
ATOM      4  N   UNL     1       0.643  11.078  21.784  0.00  0.00    +0.000 NA
ATOM      5  C   UNL     1       1.195  11.199  20.406  0.00  0.00    +0.000 C 
ATOM      6  C   UNL     1       0.825  10.044  19.437  0.00  0.00    +0.000 C 
ENDROOT
BRANCH   1  10
ATOM      7  C   UNL     1       3.690   5.960  18.248  0.00  0.00    +0.000 A 
ATOM      8  C   UNL     1       3.130   5.715  19.501  0.00  0.00    +0.000 A 
ATOM      9  C   UNL     1       2.268   6.640  20.088  0.00  0.00    +0.000 A 
ATOM     10  C   UNL     1       1.938   7.840  19.452  0.00  0.00    +0.000 A 
ATOM     11  C   UNL     1       2.526   8.084  18.205  0.00  0.00    +0.000 A 
ATOM     12  C   UNL     1       3.398   7.163  17.608  0.00  0.00    +0.000 A 
BRANCH   7  15
ATOM     13  C   UNL     1       5.891   5.235  17.393  0.00  0.00    +0.000 C 
ATOM     14  O   UNL     1       6.595   6.148  17.808  0.00  0.00    +0.000 OA
ATOM     15  N   UNL     1       4.552   5.056  17.610  0.00  0.00    +0.000 N 
ATOM     16  H   UNL     1       4.178   4.186  17.260  0.00  0.00    +0.000 HD
BRANCH  13  17
ATOM     17  O   UNL     1       6.350   4.243  16.586  0.00  0.00    +0.000 OA
BRANCH  17  19
ATOM     18  C   UNL     1       6.158   4.100  14.199  0.00  0.00    +0.000 C 
ATOM     19  C   UNL     1       6.923   4.715  15.359  0.00  0.00    +0.000 C 
ENDBRANCH  17  19
ENDBRANCH  13  17
ENDBRANCH   7  15
ENDBRANCH   1  10
BRANCH   4  20
ATOM     20  C   UNL     1      -0.827  11.239  21.754  0.00  0.00    +0.000 C 
BRANCH  20  21
ATOM     21  C   UNL     1      -1.448  11.636  23.103  0.00  0.00    +0.000 C 
BRANCH  21  22
ATOM     22  C   UNL     1      -2.830  12.221  22.911  0.00  0.00    +0.000 A 
ATOM     23  C   UNL     1      -3.239  12.681  21.652  0.00  0.00    +0.000 A 
ATOM     24  C   UNL     1      -4.495  13.263  21.487  0.00  0.00    +0.000 A 
ATOM     25  C   UNL     1      -5.351  13.392  22.581  0.00  0.00    +0.000 A 
ATOM     26  C   UNL     1      -4.950  12.934  23.836  0.00  0.00    +0.000 A 
ATOM     27  C   UNL     1      -3.696  12.353  24.001  0.00  0.00    +0.000 A 
ENDBRANCH  21  22
ENDBRANCH  20  21
ENDBRANCH   4  20
TORSDOF 7
ENDMDL
MODEL 8
REMARK VINA RESULT:      -7.0      3.089     10.873
REMARK  Name = 
REMARK  8 active torsions:
REMARK  status: ('A' for Active; 'I' for Inactive)
REMARK    1  A    between atoms: C_1  and  C_2
REMARK    2  A    between atoms: C_2  and  O_3
REMARK    3  A    between atoms: O_3  and  C_4
REMARK    4  A    between atoms: N_6  and  C_7
REMARK    5  A    between atoms: C_10  and  N_11
REMARK    6  A    between atoms: N_14  and  C_15
REMARK    7  A    between atoms: C_15  and  C_16
REMARK    8  A    between atoms: C_16  and  C_17
REMARK                            x       y       z     vdW  Elec       q    Type
REMARK                         _______ _______ _______ _____ _____    ______ ____
ROOT
ATOM      1  N   UNL     1       1.289   8.425  19.999  0.00  0.00    +0.000 N 
ATOM      2  C   UNL     1       0.923   8.163  21.393  0.00  0.00    +0.000 C 
ATOM      3  C   UNL     1       1.332   9.345  22.292  0.00  0.00    +0.000 C 
ATOM      4  N   UNL     1       0.798  10.658  21.854  0.00  0.00    +0.000 NA
ATOM      5  C   UNL     1       1.273  10.876  20.459  0.00  0.00    +0.000 C 
ATOM      6  C   UNL     1       0.926   9.746  19.454  0.00  0.00    +0.000 C 
ENDROOT
BRANCH   1  10
ATOM      7  C   UNL     1       3.963   5.906  17.930  0.00  0.00    +0.000 A 
ATOM      8  C   UNL     1       3.377   5.509  19.131  0.00  0.00    +0.000 A 
ATOM      9  C   UNL     1       2.494   6.351  19.804  0.00  0.00    +0.000 A 
ATOM     10  C   UNL     1       2.169   7.617  19.309  0.00  0.00    +0.000 A 
ATOM     11  C   UNL     1       2.784   8.013  18.115  0.00  0.00    +0.000 A 
ATOM     12  C   UNL     1       3.676   7.175  17.433  0.00  0.00    +0.000 A 
BRANCH   7  15
ATOM     13  C   UNL     1       6.201   5.009  17.391  0.00  0.00    +0.000 C 
ATOM     14  O   UNL     1       6.864   5.537  18.275  0.00  0.00    +0.000 OA
ATOM     15  N   UNL     1       4.847   5.090  17.208  0.00  0.00    +0.000 N 
ATOM     16  H   UNL     1       4.482   4.501  16.474  0.00  0.00    +0.000 HD
BRANCH  13  17
ATOM     17  O   UNL     1       6.743   4.264  16.392  0.00  0.00    +0.000 OA
BRANCH  17  19
ATOM     18  C   UNL     1       6.194   3.983  14.073  0.00  0.00    +0.000 C 
ATOM     19  C   UNL     1       6.760   4.928  15.120  0.00  0.00    +0.000 C 
ENDBRANCH  17  19
ENDBRANCH  13  17
ENDBRANCH   7  15
ENDBRANCH   1  10
BRANCH   4  20
ATOM     20  C   UNL     1      -0.678  10.728  21.901  0.00  0.00    +0.000 C 
BRANCH  20  21
ATOM     21  C   UNL     1      -1.263  12.085  21.477  0.00  0.00    +0.000 C 
BRANCH  21  22
ATOM     22  C   UNL     1      -1.935  12.773  22.643  0.00  0.00    +0.000 A 
ATOM     23  C   UNL     1      -3.178  12.326  23.114  0.00  0.00    +0.000 A 
ATOM     24  C   UNL     1      -3.817  12.991  24.160  0.00  0.00    +0.000 A 
ATOM     25  C   UNL     1      -3.221  14.111  24.740  0.00  0.00    +0.000 A 
ATOM     26  C   UNL     1      -1.984  14.559  24.277  0.00  0.00    +0.000 A 
ATOM     27  C   UNL     1      -1.345  13.895  23.233  0.00  0.00    +0.000 A 
ENDBRANCH  21  22
ENDBRANCH  20  21
ENDBRANCH   4  20
TORSDOF 7
ENDMDL
MODEL 9
REMARK VINA RESULT:      -7.0      2.197      3.288
REMARK  Name = 
REMARK  8 active torsions:
REMARK  status: ('A' for Active; 'I' for Inactive)
REMARK    1  A    between atoms: C_1  and  C_2
REMARK    2  A    between atoms: C_2  and  O_3
REMARK    3  A    between atoms: O_3  and  C_4
REMARK    4  A    between atoms: N_6  and  C_7
REMARK    5  A    between atoms: C_10  and  N_11
REMARK    6  A    between atoms: N_14  and  C_15
REMARK    7  A    between atoms: C_15  and  C_16
REMARK    8  A    between atoms: C_16  and  C_17
REMARK                            x       y       z     vdW  Elec       q    Type
REMARK                         _______ _______ _______ _____ _____    ______ ____
ROOT
ATOM      1  N   UNL     1       2.211   6.706  19.686  0.00  0.00    +0.000 N 
ATOM      2  C   UNL     1       2.150   5.657  20.707  0.00  0.00    +0.000 C 
ATOM      3  C   UNL     1       1.398   4.424  20.173  0.00  0.00    +0.000 C 
ATOM      4  N   UNL     1       1.939   3.881  18.903  0.00  0.00    +0.000 NA
ATOM      5  C   UNL     1       1.900   4.987  17.906  0.00  0.00    +0.000 C 
ATOM      6  C   UNL     1       2.622   6.293  18.333  0.00  0.00    +0.000 C 
ENDROOT
BRANCH   1  10
ATOM      7  C   UNL     1       0.489  10.498  20.348  0.00  0.00    +0.000 A 
ATOM      8  C   UNL     1       0.555   9.545  21.364  0.00  0.00    +0.000 A 
ATOM      9  C   UNL     1       1.127   8.296  21.132  0.00  0.00    +0.000 A 
ATOM     10  C   UNL     1       1.648   7.950  19.882  0.00  0.00    +0.000 A 
ATOM     11  C   UNL     1       1.553   8.907  18.864  0.00  0.00    +0.000 A 
ATOM     12  C   UNL     1       0.975  10.164  19.086  0.00  0.00    +0.000 A 
BRANCH   7  15
ATOM     13  C   UNL     1       0.587  12.872  21.020  0.00  0.00    +0.000 C 
ATOM     14  O   UNL     1       1.782  12.977  21.270  0.00  0.00    +0.000 OA
ATOM     15  N   UNL     1      -0.066  11.773  20.535  0.00  0.00    +0.000 N 
ATOM     16  H   UNL     1      -1.038  11.923  20.305  0.00  0.00    +0.000 HD
BRANCH  13  17
ATOM     17  O   UNL     1      -0.313  13.867  21.237  0.00  0.00    +0.000 OA
BRANCH  17  19
ATOM     18  C   UNL     1      -1.312  13.798  23.418  0.00  0.00    +0.000 C 
ATOM     19  C   UNL     1      -0.238  14.436  22.552  0.00  0.00    +0.000 C 
ENDBRANCH  17  19
ENDBRANCH  13  17
ENDBRANCH   7  15
ENDBRANCH   1  10
BRANCH   4  20
ATOM     20  C   UNL     1       3.321   3.369  19.035  0.00  0.00    +0.000 C 
BRANCH  20  21
ATOM     21  C   UNL     1       4.071   3.220  17.701  0.00  0.00    +0.000 C 
BRANCH  21  22
ATOM     22  C   UNL     1       5.263   4.149  17.645  0.00  0.00    +0.000 A 
ATOM     23  C   UNL     1       5.816   4.670  18.824  0.00  0.00    +0.000 A 
ATOM     24  C   UNL     1       6.885   5.563  18.768  0.00  0.00    +0.000 A 
ATOM     25  C   UNL     1       7.409   5.944  17.532  0.00  0.00    +0.000 A 
ATOM     26  C   UNL     1       6.865   5.427  16.357  0.00  0.00    +0.000 A 
ATOM     27  C   UNL     1       5.797   4.536  16.412  0.00  0.00    +0.000 A 
ENDBRANCH  21  22
ENDBRANCH  20  21
ENDBRANCH   4  20
TORSDOF 7
ENDMDL
