MODEL 1
REMARK VINA RESULT:      -7.8      0.000      0.000
REMARK  Name = 
REMARK  10 active torsions:
REMARK  status: ('A' for Active; 'I' for Inactive)
REMARK    1  A    between atoms: C_1  and  C_2
REMARK    2  A    between atoms: C_2  and  N_3
REMARK    3  A    between atoms: N_3  and  C_4
REMARK    4  A    between atoms: N_3  and  C_6
REMARK    5  A    between atoms: C_4  and  C_5
REMARK    6  A    between atoms: C_6  and  C_7
REMARK    7  A    between atoms: C_7  and  N_8
REMARK    8  A    between atoms: C_14  and  O_15
REMARK    9  A    between atoms: O_15  and  C_16
REMARK   10  A    between atoms: C_22  and  N_23
REMARK                            x       y       z     vdW  Elec       q    Type
REMARK                         _______ _______ _______ _____ _____    ______ ____
ROOT
ATOM      1  N   UNL     1       4.133   6.569  17.398  0.00  0.00    +0.000 N 
ATOM      2  N   UNL     1       3.363   7.686  17.708  0.00  0.00    +0.000 N 
ATOM      3  C   UNL     1       2.571   7.384  18.805  0.00  0.00    +0.000 A 
ATOM      4  C   UNL     1       1.727   8.185  19.555  0.00  0.00    +0.000 A 
ATOM      5  C   UNL     1       1.520   9.547  19.292  0.00  0.00    +0.000 A 
ATOM      6 CL   UNL     1       2.373  10.413  18.041  0.00  0.00    +0.000 Cl
ATOM      7  C   UNL     1       0.603  10.259  20.073  0.00  0.00    +0.000 A 
ATOM      8  C   UNL     1      -0.066   9.602  21.108  0.00  0.00    +0.000 A 
ATOM      9  C   UNL     1       0.181   8.242  21.367  0.00  0.00    +0.000 A 
ATOM     10  C   UNL     1       1.075   7.497  20.615  0.00  0.00    +0.000 A 
ATOM     11  N   UNL     1       1.285   6.183  20.910  0.00  0.00    +0.000 NA
ATOM     12  C   UNL     1       2.156   5.445  20.154  0.00  0.00    +0.000 A 
ATOM     13  C   UNL     1       2.557   4.116  20.300  0.00  0.00    +0.000 A 
ATOM     14  C   UNL     1       3.520   3.493  19.457  0.00  0.00    +0.000 A 
ATOM     15  C   UNL     1       4.129   4.207  18.395  0.00  0.00    +0.000 A 
ATOM     16  C   UNL     1       3.735   5.527  18.255  0.00  0.00    +0.000 A 
ATOM     17  C   UNL     1       2.774   6.060  19.114  0.00  0.00    +0.000 A 
ATOM     18  H   UNL     1       3.822   8.601  17.597  0.00  0.00    +0.000 HD
ENDROOT
BRANCH  13  19
ATOM     19  N   UNL     1       1.983   3.354  21.385  0.00  0.00    +0.000 N 
ATOM     20  O   UNL     1       2.569   3.374  22.476  0.00  0.00    +0.000 OA
ATOM     21  O   UNL     1       0.905   2.785  21.157  0.00  0.00    +0.000 OA
ENDBRANCH  13  19
BRANCH   7  22
ATOM     22  O   UNL     1       0.444  11.578  19.743  0.00  0.00    +0.000 OA
ATOM     23  C   UNL     1       0.261  12.517  20.785  0.00  0.00    +0.000 C 
ENDBRANCH   7  22
BRANCH   1  24
ATOM     24  C   UNL     1       4.966   6.611  16.196  0.00  0.00    +0.000 C 
BRANCH  24  25
ATOM     25  C   UNL     1       6.515   6.468  16.507  0.00  0.00    +0.000 C 
BRANCH  25  26
ATOM     26  N   UNL     1       7.124   5.123  16.291  0.00  0.00    +0.000 NA
BRANCH  26  28
ATOM     27  C   UNL     1       7.618   5.529  18.739  0.00  0.00    +0.000 C 
ATOM     28  C   UNL     1       7.668   4.583  17.544  0.00  0.00    +0.000 C 
ENDBRANCH  26  28
BRANCH  26  29
ATOM     29  C   UNL     1       6.247   4.186  15.560  0.00  0.00    +0.000 C 
ATOM     30  C   UNL     1       6.438   4.072  14.049  0.00  0.00    +0.000 C 
ENDBRANCH  26  29
ENDBRANCH  25  26
ENDBRANCH  24  25
ENDBRANCH   1  24
TORSDOF 7
ENDMDL
MODEL 2
REMARK VINA RESULT:      -7.4      0.303      1.493
REMARK  Name = 
REMARK  10 active torsions:
REMARK  status: ('A' for Active; 'I' for Inactive)
REMARK    1  A    between atoms: C_1  and  C_2
REMARK    2  A    between atoms: C_2  and  N_3
REMARK    3  A    between atoms: N_3  and  C_4
REMARK    4  A    between atoms: N_3  and  C_6
REMARK    5  A    between atoms: C_4  and  C_5
REMARK    6  A    between atoms: C_6  and  C_7
REMARK    7  A    between atoms: C_7  and  N_8
REMARK    8  A    between atoms: C_14  and  O_15
REMARK    9  A    between atoms: O_15  and  C_16
REMARK   10  A    between atoms: C_22  and  N_23
REMARK                            x       y       z     vdW  Elec       q    Type
REMARK                         _______ _______ _______ _____ _____    ______ ____
ROOT
ATOM      1  N   UNL     1       3.993   6.720  17.429  0.00  0.00    +0.000 N 
ATOM      2  N   UNL     1       3.223   7.828  17.771  0.00  0.00    +0.000 N 
ATOM      3  C   UNL     1       2.455   7.506  18.879  0.00  0.00    +0.000 A 
ATOM      4  C   UNL     1       1.622   8.290  19.658  0.00  0.00    +0.000 A 
ATOM      5  C   UNL     1       1.403   9.655  19.419  0.00  0.00    +0.000 A 
ATOM      6 CL   UNL     1       2.226  10.544  18.165  0.00  0.00    +0.000 Cl
ATOM      7  C   UNL     1       0.499  10.351  20.229  0.00  0.00    +0.000 A 
ATOM      8  C   UNL     1      -0.146   9.675  21.267  0.00  0.00    +0.000 A 
ATOM      9  C   UNL     1       0.113   8.312  21.501  0.00  0.00    +0.000 A 
ATOM     10  C   UNL     1       0.996   7.584  20.720  0.00  0.00    +0.000 A 
ATOM     11  N   UNL     1       1.218   6.266  20.991  0.00  0.00    +0.000 NA
ATOM     12  C   UNL     1       2.078   5.545  20.207  0.00  0.00    +0.000 A 
ATOM     13  C   UNL     1       2.488   4.215  20.324  0.00  0.00    +0.000 A 
ATOM     14  C   UNL     1       3.436   3.610  19.453  0.00  0.00    +0.000 A 
ATOM     15  C   UNL     1       4.021   4.343  18.389  0.00  0.00    +0.000 A 
ATOM     16  C   UNL     1       3.617   5.663  18.278  0.00  0.00    +0.000 A 
ATOM     17  C   UNL     1       2.671   6.178  19.164  0.00  0.00    +0.000 A 
ATOM     18  H   UNL     1       3.675   8.747  17.664  0.00  0.00    +0.000 HD
ENDROOT
BRANCH  13  19
ATOM     19  N   UNL     1       1.940   3.434  21.409  0.00  0.00    +0.000 N 
ATOM     20  O   UNL     1       2.517   3.483  22.504  0.00  0.00    +0.000 OA
ATOM     21  O   UNL     1       0.888   2.819  21.177  0.00  0.00    +0.000 OA
ENDBRANCH  13  19
BRANCH   7  22
ATOM     22  O   UNL     1       0.326  11.674  19.922  0.00  0.00    +0.000 OA
ATOM     23  C   UNL     1       0.856  12.645  20.804  0.00  0.00    +0.000 C 
ENDBRANCH   7  22
BRANCH   1  24
ATOM     24  C   UNL     1       4.800   6.784  16.211  0.00  0.00    +0.000 C 
BRANCH  24  25
ATOM     25  C   UNL     1       6.330   6.447  16.461  0.00  0.00    +0.000 C 
BRANCH  25  26
ATOM     26  N   UNL     1       6.712   5.004  16.454  0.00  0.00    +0.000 NA
BRANCH  26  28
ATOM     27  C   UNL     1       6.086   3.994  14.220  0.00  0.00    +0.000 C 
ATOM     28  C   UNL     1       7.165   4.585  15.121  0.00  0.00    +0.000 C 
ENDBRANCH  26  28
BRANCH  26  29
ATOM     29  C   UNL     1       7.631   4.630  17.548  0.00  0.00    +0.000 C 
ATOM     30  C   UNL     1       7.683   5.544  18.771  0.00  0.00    +0.000 C 
ENDBRANCH  26  29
ENDBRANCH  25  26
ENDBRANCH  24  25
ENDBRANCH   1  24
TORSDOF 7
ENDMDL
MODEL 3
REMARK VINA RESULT:      -7.4      0.860      1.669
REMARK  Name = 
REMARK  10 active torsions:
REMARK  status: ('A' for Active; 'I' for Inactive)
REMARK    1  A    between atoms: C_1  and  C_2
REMARK    2  A    between atoms: C_2  and  N_3
REMARK    3  A    between atoms: N_3  and  C_4
REMARK    4  A    between atoms: N_3  and  C_6
REMARK    5  A    between atoms: C_4  and  C_5
REMARK    6  A    between atoms: C_6  and  C_7
REMARK    7  A    between atoms: C_7  and  N_8
REMARK    8  A    between atoms: C_14  and  O_15
REMARK    9  A    between atoms: O_15  and  C_16
REMARK   10  A    between atoms: C_22  and  N_23
REMARK                            x       y       z     vdW  Elec       q    Type
REMARK                         _______ _______ _______ _____ _____    ______ ____
ROOT
ATOM      1  N   UNL     1       4.270   6.223  17.146  0.00  0.00    +0.000 N 
ATOM      2  N   UNL     1       3.502   7.324  17.510  0.00  0.00    +0.000 N 
ATOM      3  C   UNL     1       2.766   6.995  18.637  0.00  0.00    +0.000 A 
ATOM      4  C   UNL     1       1.949   7.773  19.439  0.00  0.00    +0.000 A 
ATOM      5  C   UNL     1       1.714   9.137  19.208  0.00  0.00    +0.000 A 
ATOM      6 CL   UNL     1       2.498  10.033  17.934  0.00  0.00    +0.000 Cl
ATOM      7  C   UNL     1       0.827   9.825  20.043  0.00  0.00    +0.000 A 
ATOM      8  C   UNL     1       0.214   9.143  21.096  0.00  0.00    +0.000 A 
ATOM      9  C   UNL     1       0.488   7.782  21.321  0.00  0.00    +0.000 A 
ATOM     10  C   UNL     1       1.355   7.060  20.516  0.00  0.00    +0.000 A 
ATOM     11  N   UNL     1       1.593   5.744  20.779  0.00  0.00    +0.000 NA
ATOM     12  C   UNL     1       2.437   5.030  19.971  0.00  0.00    +0.000 A 
ATOM     13  C   UNL     1       2.859   3.703  20.075  0.00  0.00    +0.000 A 
ATOM     14  C   UNL     1       3.788   3.106  19.179  0.00  0.00    +0.000 A 
ATOM     15  C   UNL     1       4.340   3.844  18.101  0.00  0.00    +0.000 A 
ATOM     16  C   UNL     1       3.924   5.161  18.002  0.00  0.00    +0.000 A 
ATOM     17  C   UNL     1       2.999   5.669  18.914  0.00  0.00    +0.000 A 
ATOM     18  H   UNL     1       3.945   8.246  17.393  0.00  0.00    +0.000 HD
ENDROOT
BRANCH  13  19
ATOM     19  N   UNL     1       2.345   2.917  21.173  0.00  0.00    +0.000 N 
ATOM     20  O   UNL     1       1.119   2.753  21.239  0.00  0.00    +0.000 OA
ATOM     21  O   UNL     1       3.181   2.409  21.935  0.00  0.00    +0.000 OA
ENDBRANCH  13  19
BRANCH   7  22
ATOM     22  O   UNL     1       0.637  11.147  19.743  0.00  0.00    +0.000 OA
ATOM     23  C   UNL     1       1.139  12.120  20.638  0.00  0.00    +0.000 C 
ENDBRANCH   7  22
BRANCH   1  24
ATOM     24  C   UNL     1       5.045   6.294  15.907  0.00  0.00    +0.000 C 
BRANCH  24  25
ATOM     25  C   UNL     1       6.458   5.581  16.016  0.00  0.00    +0.000 C 
BRANCH  25  26
ATOM     26  N   UNL     1       7.398   6.100  17.052  0.00  0.00    +0.000 NA
BRANCH  26  28
ATOM     27  C   UNL     1       8.111   8.466  17.599  0.00  0.00    +0.000 C 
ATOM     28  C   UNL     1       6.990   7.434  17.512  0.00  0.00    +0.000 C 
ENDBRANCH  26  28
BRANCH  26  29
ATOM     29  C   UNL     1       7.665   5.141  18.143  0.00  0.00    +0.000 C 
ATOM     30  C   UNL     1       7.404   5.610  19.574  0.00  0.00    +0.000 C 
ENDBRANCH  26  29
ENDBRANCH  25  26
ENDBRANCH  24  25
ENDBRANCH   1  24
TORSDOF 7
ENDMDL
MODEL 4
REMARK VINA RESULT:      -7.4      0.907      1.668
REMARK  Name = 
REMARK  10 active torsions:
REMARK  status: ('A' for Active; 'I' for Inactive)
REMARK    1  A    between atoms: C_1  and  C_2
REMARK    2  A    between atoms: C_2  and  N_3
REMARK    3  A    between atoms: N_3  and  C_4
REMARK    4  A    between atoms: N_3  and  C_6
REMARK    5  A    between atoms: C_4  and  C_5
REMARK    6  A    between atoms: C_6  and  C_7
REMARK    7  A    between atoms: C_7  and  N_8
REMARK    8  A    between atoms: C_14  and  O_15
REMARK    9  A    between atoms: O_15  and  C_16
REMARK   10  A    between atoms: C_22  and  N_23
REMARK                            x       y       z     vdW  Elec       q    Type
REMARK                         _______ _______ _______ _____ _____    ______ ____
ROOT
ATOM      1  N   UNL     1       4.075   6.546  17.355  0.00  0.00    +0.000 N 
ATOM      2  N   UNL     1       3.312   7.664  17.680  0.00  0.00    +0.000 N 
ATOM      3  C   UNL     1       2.539   7.362  18.790  0.00  0.00    +0.000 A 
ATOM      4  C   UNL     1       1.709   8.163  19.556  0.00  0.00    +0.000 A 
ATOM      5  C   UNL     1       1.501   9.526  19.298  0.00  0.00    +0.000 A 
ATOM      6 CL   UNL     1       2.334  10.392  18.035  0.00  0.00    +0.000 Cl
ATOM      7  C   UNL     1       0.599  10.239  20.096  0.00  0.00    +0.000 A 
ATOM      8  C   UNL     1      -0.054   9.581  21.141  0.00  0.00    +0.000 A 
ATOM      9  C   UNL     1       0.195   8.220  21.394  0.00  0.00    +0.000 A 
ATOM     10  C   UNL     1       1.074   7.475  20.625  0.00  0.00    +0.000 A 
ATOM     11  N   UNL     1       1.286   6.159  20.914  0.00  0.00    +0.000 NA
ATOM     12  C   UNL     1       2.143   5.421  20.142  0.00  0.00    +0.000 A 
ATOM     13  C   UNL     1       2.544   4.091  20.279  0.00  0.00    +0.000 A 
ATOM     14  C   UNL     1       3.491   3.467  19.419  0.00  0.00    +0.000 A 
ATOM     15  C   UNL     1       4.084   4.182  18.347  0.00  0.00    +0.000 A 
ATOM     16  C   UNL     1       3.689   5.503  18.217  0.00  0.00    +0.000 A 
ATOM     17  C   UNL     1       2.745   6.037  19.093  0.00  0.00    +0.000 A 
ATOM     18  H   UNL     1       3.771   8.578  17.563  0.00  0.00    +0.000 HD
ENDROOT
BRANCH  13  19
ATOM     19  N   UNL     1       1.987   3.328  21.372  0.00  0.00    +0.000 N 
ATOM     20  O   UNL     1       2.572   3.373  22.463  0.00  0.00    +0.000 OA
ATOM     21  O   UNL     1       0.922   2.733  21.151  0.00  0.00    +0.000 OA
ENDBRANCH  13  19
BRANCH   7  22
ATOM     22  O   UNL     1       0.436  11.558  19.771  0.00  0.00    +0.000 OA
ATOM     23  C   UNL     1       0.875  12.538  20.692  0.00  0.00    +0.000 C 
ENDBRANCH   7  22
BRANCH   1  24
ATOM     24  C   UNL     1       4.887   6.588  16.139  0.00  0.00    +0.000 C 
BRANCH  24  25
ATOM     25  C   UNL     1       6.439   6.420  16.421  0.00  0.00    +0.000 C 
BRANCH  25  26
ATOM     26  N   UNL     1       6.968   7.036  17.673  0.00  0.00    +0.000 NA
BRANCH  26  28
ATOM     27  C   UNL     1       7.711   4.629  17.919  0.00  0.00    +0.000 C 
ATOM     28  C   UNL     1       7.693   6.046  18.482  0.00  0.00    +0.000 C 
ENDBRANCH  26  28
BRANCH  26  29
ATOM     29  C   UNL     1       7.712   8.291  17.447  0.00  0.00    +0.000 C 
ATOM     30  C   UNL     1       8.595   8.803  18.584  0.00  0.00    +0.000 C 
ENDBRANCH  26  29
ENDBRANCH  25  26
ENDBRANCH  24  25
ENDBRANCH   1  24
TORSDOF 7
ENDMDL
MODEL 5
REMARK VINA RESULT:      -6.7      0.812      1.665
REMARK  Name = 
REMARK  10 active torsions:
REMARK  status: ('A' for Active; 'I' for Inactive)
REMARK    1  A    between atoms: C_1  and  C_2
REMARK    2  A    between atoms: C_2  and  N_3
REMARK    3  A    between atoms: N_3  and  C_4
REMARK    4  A    between atoms: N_3  and  C_6
REMARK    5  A    between atoms: C_4  and  C_5
REMARK    6  A    between atoms: C_6  and  C_7
REMARK    7  A    between atoms: C_7  and  N_8
REMARK    8  A    between atoms: C_14  and  O_15
REMARK    9  A    between atoms: O_15  and  C_16
REMARK   10  A    between atoms: C_22  and  N_23
REMARK                            x       y       z     vdW  Elec       q    Type
REMARK                         _______ _______ _______ _____ _____    ______ ____
ROOT
ATOM      1  N   UNL     1       4.170   6.092  17.178  0.00  0.00    +0.000 N 
ATOM      2  N   UNL     1       3.432   7.216  17.536  0.00  0.00    +0.000 N 
ATOM      3  C   UNL     1       2.706   6.920  18.679  0.00  0.00    +0.000 A 
ATOM      4  C   UNL     1       1.918   7.728  19.481  0.00  0.00    +0.000 A 
ATOM      5  C   UNL     1       1.710   9.093  19.233  0.00  0.00    +0.000 A 
ATOM      6 CL   UNL     1       2.495   9.953  17.935  0.00  0.00    +0.000 Cl
ATOM      7  C   UNL     1       0.851   9.814  20.070  0.00  0.00    +0.000 A 
ATOM      8  C   UNL     1       0.239   9.161  21.142  0.00  0.00    +0.000 A 
ATOM      9  C   UNL     1       0.486   7.797  21.383  0.00  0.00    +0.000 A 
ATOM     10  C   UNL     1       1.324   7.045  20.576  0.00  0.00    +0.000 A 
ATOM     11  N   UNL     1       1.536   5.727  20.856  0.00  0.00    +0.000 NA
ATOM     12  C   UNL     1       2.352   4.982  20.047  0.00  0.00    +0.000 A 
ATOM     13  C   UNL     1       2.746   3.648  20.165  0.00  0.00    +0.000 A 
ATOM     14  C   UNL     1       3.648   3.017  19.264  0.00  0.00    +0.000 A 
ATOM     15  C   UNL     1       4.200   3.727  18.168  0.00  0.00    +0.000 A 
ATOM     16  C   UNL     1       3.813   5.051  18.055  0.00  0.00    +0.000 A 
ATOM     17  C   UNL     1       2.912   5.593  18.972  0.00  0.00    +0.000 A 
ATOM     18  H   UNL     1       3.894   8.126  17.399  0.00  0.00    +0.000 HD
ENDROOT
BRANCH  13  19
ATOM     19  N   UNL     1       2.230   2.890  21.281  0.00  0.00    +0.000 N 
ATOM     20  O   UNL     1       3.043   2.461  22.111  0.00  0.00    +0.000 OA
ATOM     21  O   UNL     1       0.997   2.779  21.358  0.00  0.00    +0.000 OA
ENDBRANCH  13  19
BRANCH   7  22
ATOM     22  O   UNL     1       0.687  11.135  19.753  0.00  0.00    +0.000 OA
ATOM     23  C   UNL     1       1.039  12.108  20.717  0.00  0.00    +0.000 C 
ENDBRANCH   7  22
BRANCH   1  24
ATOM     24  C   UNL     1       4.928   6.127  15.928  0.00  0.00    +0.000 C 
BRANCH  24  25
ATOM     25  C   UNL     1       5.096   4.698  15.261  0.00  0.00    +0.000 C 
BRANCH  25  26
ATOM     26  N   UNL     1       6.488   4.256  14.953  0.00  0.00    +0.000 NA
BRANCH  26  28
ATOM     27  C   UNL     1       7.917   5.202  13.091  0.00  0.00    +0.000 C 
ATOM     28  C   UNL     1       6.751   4.312  13.509  0.00  0.00    +0.000 C 
ENDBRANCH  26  28
BRANCH  26  29
ATOM     29  C   UNL     1       7.516   4.921  15.779  0.00  0.00    +0.000 C 
ATOM     30  C   UNL     1       7.588   4.541  17.257  0.00  0.00    +0.000 C 
ENDBRANCH  26  29
ENDBRANCH  25  26
ENDBRANCH  24  25
ENDBRANCH   1  24
TORSDOF 7
ENDMDL
MODEL 6
REMARK VINA RESULT:      -6.7      1.234      1.700
REMARK  Name = 
REMARK  10 active torsions:
REMARK  status: ('A' for Active; 'I' for Inactive)
REMARK    1  A    between atoms: C_1  and  C_2
REMARK    2  A    between atoms: C_2  and  N_3
REMARK    3  A    between atoms: N_3  and  C_4
REMARK    4  A    between atoms: N_3  and  C_6
REMARK    5  A    between atoms: C_4  and  C_5
REMARK    6  A    between atoms: C_6  and  C_7
REMARK    7  A    between atoms: C_7  and  N_8
REMARK    8  A    between atoms: C_14  and  O_15
REMARK    9  A    between atoms: O_15  and  C_16
REMARK   10  A    between atoms: C_22  and  N_23
REMARK                            x       y       z     vdW  Elec       q    Type
REMARK                         _______ _______ _______ _____ _____    ______ ____
ROOT
ATOM      1  N   UNL     1       4.350   6.092  17.277  0.00  0.00    +0.000 N 
ATOM      2  N   UNL     1       3.566   7.197  17.595  0.00  0.00    +0.000 N 
ATOM      3  C   UNL     1       2.798   6.888  18.706  0.00  0.00    +0.000 A 
ATOM      4  C   UNL     1       1.953   7.677  19.467  0.00  0.00    +0.000 A 
ATOM      5  C   UNL     1       1.719   9.035  19.201  0.00  0.00    +0.000 A 
ATOM      6 CL   UNL     1       2.536   9.909  17.933  0.00  0.00    +0.000 Cl
ATOM      7  C   UNL     1       0.803   9.735  19.994  0.00  0.00    +0.000 A 
ATOM      8  C   UNL     1       0.162   9.071  21.043  0.00  0.00    +0.000 A 
ATOM      9  C   UNL     1       0.436   7.717  21.304  0.00  0.00    +0.000 A 
ATOM     10  C   UNL     1       1.330   6.984  20.540  0.00  0.00    +0.000 A 
ATOM     11  N   UNL     1       1.567   5.674  20.837  0.00  0.00    +0.000 NA
ATOM     12  C   UNL     1       2.438   4.948  20.070  0.00  0.00    +0.000 A 
ATOM     13  C   UNL     1       2.863   3.626  20.215  0.00  0.00    +0.000 A 
ATOM     14  C   UNL     1       3.822   3.015  19.358  0.00  0.00    +0.000 A 
ATOM     15  C   UNL     1       4.402   3.734  18.283  0.00  0.00    +0.000 A 
ATOM     16  C   UNL     1       3.983   5.047  18.145  0.00  0.00    +0.000 A 
ATOM     17  C   UNL     1       3.028   5.568  19.017  0.00  0.00    +0.000 A 
ATOM     18  H   UNL     1       4.008   8.119  17.472  0.00  0.00    +0.000 HD
ENDROOT
BRANCH  13  19
ATOM     19  N   UNL     1       2.320   2.860  21.312  0.00  0.00    +0.000 N 
ATOM     20  O   UNL     1       3.117   2.373  22.126  0.00  0.00    +0.000 OA
ATOM     21  O   UNL     1       1.084   2.800  21.392  0.00  0.00    +0.000 OA
ENDBRANCH  13  19
BRANCH   7  22
ATOM     22  O   UNL     1       0.616  11.049  19.661  0.00  0.00    +0.000 OA
ATOM     23  C   UNL     1       0.949  12.040  20.615  0.00  0.00    +0.000 C 
ENDBRANCH   7  22
BRANCH   1  24
ATOM     24  C   UNL     1       5.162   6.142  16.061  0.00  0.00    +0.000 C 
BRANCH  24  25
ATOM     25  C   UNL     1       5.321   4.728  15.361  0.00  0.00    +0.000 C 
BRANCH  25  26
ATOM     26  N   UNL     1       5.929   4.714  13.999  0.00  0.00    +0.000 NA
BRANCH  26  28
ATOM     27  C   UNL     1       7.991   5.362  12.681  0.00  0.00    +0.000 C 
ATOM     28  C   UNL     1       7.326   5.169  14.040  0.00  0.00    +0.000 C 
ENDBRANCH  26  28
BRANCH  26  29
ATOM     29  C   UNL     1       5.730   3.443  13.274  0.00  0.00    +0.000 C 
ATOM     30  C   UNL     1       4.933   3.491  11.971  0.00  0.00    +0.000 C 
ENDBRANCH  26  29
ENDBRANCH  25  26
ENDBRANCH  24  25
ENDBRANCH   1  24
TORSDOF 7
ENDMDL
MODEL 7
REMARK VINA RESULT:      -6.7      0.761      1.117
REMARK  Name = 
REMARK  10 active torsions:
REMARK  status: ('A' for Active; 'I' for Inactive)
REMARK    1  A    between atoms: C_1  and  C_2
REMARK    2  A    between atoms: C_2  and  N_3
REMARK    3  A    between atoms: N_3  and  C_4
REMARK    4  A    between atoms: N_3  and  C_6
REMARK    5  A    between atoms: C_4  and  C_5
REMARK    6  A    between atoms: C_6  and  C_7
REMARK    7  A    between atoms: C_7  and  N_8
REMARK    8  A    between atoms: C_14  and  O_15
REMARK    9  A    between atoms: O_15  and  C_16
REMARK   10  A    between atoms: C_22  and  N_23
REMARK                            x       y       z     vdW  Elec       q    Type
REMARK                         _______ _______ _______ _____ _____    ______ ____
ROOT
ATOM      1  N   UNL     1       4.060   6.667  17.438  0.00  0.00    +0.000 N 
ATOM      2  N   UNL     1       3.281   7.780  17.738  0.00  0.00    +0.000 N 
ATOM      3  C   UNL     1       2.494   7.482  18.840  0.00  0.00    +0.000 A 
ATOM      4  C   UNL     1       1.645   8.283  19.584  0.00  0.00    +0.000 A 
ATOM      5  C   UNL     1       1.427   9.641  19.309  0.00  0.00    +0.000 A 
ATOM      6 CL   UNL     1       2.270  10.502  18.048  0.00  0.00    +0.000 Cl
ATOM      7  C   UNL     1       0.506  10.353  20.085  0.00  0.00    +0.000 A 
ATOM      8  C   UNL     1      -0.156   9.700  21.127  0.00  0.00    +0.000 A 
ATOM      9  C   UNL     1       0.103   8.345  21.399  0.00  0.00    +0.000 A 
ATOM     10  C   UNL     1       1.001   7.600  20.652  0.00  0.00    +0.000 A 
ATOM     11  N   UNL     1       1.221   6.290  20.959  0.00  0.00    +0.000 NA
ATOM     12  C   UNL     1       2.097   5.552  20.208  0.00  0.00    +0.000 A 
ATOM     13  C   UNL     1       2.509   4.227  20.365  0.00  0.00    +0.000 A 
ATOM     14  C   UNL     1       3.475   3.605  19.526  0.00  0.00    +0.000 A 
ATOM     15  C   UNL     1       4.077   4.313  18.456  0.00  0.00    +0.000 A 
ATOM     16  C   UNL     1       3.671   5.629  18.305  0.00  0.00    +0.000 A 
ATOM     17  C   UNL     1       2.708   6.163  19.161  0.00  0.00    +0.000 A 
ATOM     18  H   UNL     1       3.733   8.697  17.618  0.00  0.00    +0.000 HD
ENDROOT
BRANCH  13  19
ATOM     19  N   UNL     1       1.943   3.472  21.458  0.00  0.00    +0.000 N 
ATOM     20  O   UNL     1       0.958   2.761  21.218  0.00  0.00    +0.000 OA
ATOM     21  O   UNL     1       2.530   3.543  22.548  0.00  0.00    +0.000 OA
ENDBRANCH  13  19
BRANCH   7  22
ATOM     22  O   UNL     1       0.336  11.667  19.743  0.00  0.00    +0.000 OA
ATOM     23  C   UNL     1      -0.856  12.318  20.140  0.00  0.00    +0.000 C 
ENDBRANCH   7  22
BRANCH   1  24
ATOM     24  C   UNL     1       4.889   6.703  16.234  0.00  0.00    +0.000 C 
BRANCH  24  25
ATOM     25  C   UNL     1       4.946   5.312  15.474  0.00  0.00    +0.000 C 
BRANCH  25  26
ATOM     26  N   UNL     1       6.154   5.047  14.640  0.00  0.00    +0.000 NA
BRANCH  26  28
ATOM     27  C   UNL     1       7.310   4.407  16.799  0.00  0.00    +0.000 C 
ATOM     28  C   UNL     1       7.379   5.115  15.449  0.00  0.00    +0.000 C 
ENDBRANCH  26  28
BRANCH  26  29
ATOM     29  C   UNL     1       6.047   3.830  13.811  0.00  0.00    +0.000 C 
ATOM     30  C   UNL     1       6.644   3.877  12.406  0.00  0.00    +0.000 C 
ENDBRANCH  26  29
ENDBRANCH  25  26
ENDBRANCH  24  25
ENDBRANCH   1  24
TORSDOF 7
ENDMDL
MODEL 8
REMARK VINA RESULT:      -6.7      7.478     10.077
REMARK  Name = 
REMARK  10 active torsions:
REMARK  status: ('A' for Active; 'I' for Inactive)
REMARK    1  A    between atoms: C_1  and  C_2
REMARK    2  A    between atoms: C_2  and  N_3
REMARK    3  A    between atoms: N_3  and  C_4
REMARK    4  A    between atoms: N_3  and  C_6
REMARK    5  A    between atoms: C_4  and  C_5
REMARK    6  A    between atoms: C_6  and  C_7
REMARK    7  A    between atoms: C_7  and  N_8
REMARK    8  A    between atoms: C_14  and  O_15
REMARK    9  A    between atoms: O_15  and  C_16
REMARK   10  A    between atoms: C_22  and  N_23
REMARK                            x       y       z     vdW  Elec       q    Type
REMARK                         _______ _______ _______ _____ _____    ______ ____
ROOT
ATOM      1  N   UNL     1      -5.071  12.203  18.550  0.00  0.00    +0.000 N 
ATOM      2  N   UNL     1      -3.840  12.596  19.065  0.00  0.00    +0.000 N 
ATOM      3  C   UNL     1      -3.945  12.675  20.445  0.00  0.00    +0.000 A 
ATOM      4  C   UNL     1      -2.981  12.910  21.411  0.00  0.00    +0.000 A 
ATOM      5  C   UNL     1      -1.628  13.130  21.112  0.00  0.00    +0.000 A 
ATOM      6 CL   UNL     1      -0.986  13.044  19.493  0.00  0.00    +0.000 Cl
ATOM      7  C   UNL     1      -0.739  13.415  22.154  0.00  0.00    +0.000 A 
ATOM      8  C   UNL     1      -1.217  13.451  23.467  0.00  0.00    +0.000 A 
ATOM      9  C   UNL     1      -2.574  13.200  23.740  0.00  0.00    +0.000 A 
ATOM     10  C   UNL     1      -3.489  12.921  22.738  0.00  0.00    +0.000 A 
ATOM     11  N   UNL     1      -4.793  12.678  23.055  0.00  0.00    +0.000 NA
ATOM     12  C   UNL     1      -5.699  12.419  22.061  0.00  0.00    +0.000 A 
ATOM     13  C   UNL     1      -7.055  12.100  22.152  0.00  0.00    +0.000 A 
ATOM     14  C   UNL     1      -7.866  11.805  21.021  0.00  0.00    +0.000 A 
ATOM     15  C   UNL     1      -7.327  11.829  19.710  0.00  0.00    +0.000 A 
ATOM     16  C   UNL     1      -5.980  12.140  19.622  0.00  0.00    +0.000 A 
ATOM     17  C   UNL     1      -5.256  12.431  20.777  0.00  0.00    +0.000 A 
ATOM     18  H   UNL     1      -3.007  12.209  18.599  0.00  0.00    +0.000 HD
ENDROOT
BRANCH  13  19
ATOM     19  N   UNL     1      -7.645  12.038  23.469  0.00  0.00    +0.000 N 
ATOM     20  O   UNL     1      -7.911  13.108  24.033  0.00  0.00    +0.000 OA
ATOM     21  O   UNL     1      -7.900  10.908  23.913  0.00  0.00    +0.000 OA
ENDBRANCH  13  19
BRANCH   7  22
ATOM     22  O   UNL     1       0.559  13.635  21.781  0.00  0.00    +0.000 OA
ATOM     23  C   UNL     1       1.075  14.949  21.878  0.00  0.00    +0.000 C 
ENDBRANCH   7  22
BRANCH   1  24
ATOM     24  C   UNL     1      -5.237  12.166  17.097  0.00  0.00    +0.000 C 
BRANCH  24  25
ATOM     25  C   UNL     1      -4.671  10.838  16.440  0.00  0.00    +0.000 C 
BRANCH  25  26
ATOM     26  N   UNL     1      -3.187  10.705  16.360  0.00  0.00    +0.000 NA
BRANCH  26  28
ATOM     27  C   UNL     1      -1.162   9.961  17.684  0.00  0.00    +0.000 C 
ATOM     28  C   UNL     1      -2.670   9.888  17.467  0.00  0.00    +0.000 C 
ENDBRANCH  26  28
BRANCH  26  29
ATOM     29  C   UNL     1      -2.700  10.291  15.028  0.00  0.00    +0.000 C 
ATOM     30  C   UNL     1      -3.743  10.054  13.937  0.00  0.00    +0.000 C 
ENDBRANCH  26  29
ENDBRANCH  25  26
ENDBRANCH  24  25
ENDBRANCH   1  24
TORSDOF 7
ENDMDL
MODEL 9
REMARK VINA RESULT:      -6.6      1.371      2.008
REMARK  Name = 
REMARK  10 active torsions:
REMARK  status: ('A' for Active; 'I' for Inactive)
REMARK    1  A    between atoms: C_1  and  C_2
REMARK    2  A    between atoms: C_2  and  N_3
REMARK    3  A    between atoms: N_3  and  C_4
REMARK    4  A    between atoms: N_3  and  C_6
REMARK    5  A    between atoms: C_4  and  C_5
REMARK    6  A    between atoms: C_6  and  C_7
REMARK    7  A    between atoms: C_7  and  N_8
REMARK    8  A    between atoms: C_14  and  O_15
REMARK    9  A    between atoms: O_15  and  C_16
REMARK   10  A    between atoms: C_22  and  N_23
REMARK                            x       y       z     vdW  Elec       q    Type
REMARK                         _______ _______ _______ _____ _____    ______ ____
ROOT
ATOM      1  N   UNL     1       4.422   5.947  17.019  0.00  0.00    +0.000 N 
ATOM      2  N   UNL     1       3.663   7.055  17.380  0.00  0.00    +0.000 N 
ATOM      3  C   UNL     1       2.932   6.738  18.514  0.00  0.00    +0.000 A 
ATOM      4  C   UNL     1       2.123   7.525  19.316  0.00  0.00    +0.000 A 
ATOM      5  C   UNL     1       1.895   8.889  19.077  0.00  0.00    +0.000 A 
ATOM      6 CL   UNL     1       2.676   9.773  17.793  0.00  0.00    +0.000 Cl
ATOM      7  C   UNL     1       1.017   9.588  19.913  0.00  0.00    +0.000 A 
ATOM      8  C   UNL     1       0.406   8.916  20.974  0.00  0.00    +0.000 A 
ATOM      9  C   UNL     1       0.674   7.555  21.207  0.00  0.00    +0.000 A 
ATOM     10  C   UNL     1       1.532   6.824  20.401  0.00  0.00    +0.000 A 
ATOM     11  N   UNL     1       1.764   5.507  20.671  0.00  0.00    +0.000 NA
ATOM     12  C   UNL     1       2.599   4.783  19.863  0.00  0.00    +0.000 A 
ATOM     13  C   UNL     1       3.014   3.454  19.974  0.00  0.00    +0.000 A 
ATOM     14  C   UNL     1       3.934   2.846  19.075  0.00  0.00    +0.000 A 
ATOM     15  C   UNL     1       4.484   3.574  17.990  0.00  0.00    +0.000 A 
ATOM     16  C   UNL     1       4.075   4.893  17.885  0.00  0.00    +0.000 A 
ATOM     17  C   UNL     1       3.158   5.412  18.798  0.00  0.00    +0.000 A 
ATOM     18  H   UNL     1       4.110   7.974  17.255  0.00  0.00    +0.000 HD
ENDROOT
BRANCH  13  19
ATOM     19  N   UNL     1       2.501   2.678  21.079  0.00  0.00    +0.000 N 
ATOM     20  O   UNL     1       3.300   2.333  21.960  0.00  0.00    +0.000 OA
ATOM     21  O   UNL     1       1.279   2.469  21.095  0.00  0.00    +0.000 OA
ENDBRANCH  13  19
BRANCH   7  22
ATOM     22  O   UNL     1       0.833  10.909  19.605  0.00  0.00    +0.000 OA
ATOM     23  C   UNL     1      -0.483  11.367  19.357  0.00  0.00    +0.000 C 
ENDBRANCH   7  22
BRANCH   1  24
ATOM     24  C   UNL     1       5.190   6.005  15.776  0.00  0.00    +0.000 C 
BRANCH  24  25
ATOM     25  C   UNL     1       5.126   4.658  14.941  0.00  0.00    +0.000 C 
BRANCH  25  26
ATOM     26  N   UNL     1       6.405   4.173  14.344  0.00  0.00    +0.000 NA
BRANCH  26  28
ATOM     27  C   UNL     1       4.829   3.685  12.425  0.00  0.00    +0.000 C 
ATOM     28  C   UNL     1       6.156   3.399  13.120  0.00  0.00    +0.000 C 
ENDBRANCH  26  28
BRANCH  26  29
ATOM     29  C   UNL     1       7.425   5.230  14.191  0.00  0.00    +0.000 C 
ATOM     30  C   UNL     1       8.071   5.396  12.816  0.00  0.00    +0.000 C 
ENDBRANCH  26  29
ENDBRANCH  25  26
ENDBRANCH  24  25
ENDBRANCH   1  24
TORSDOF 7
ENDMDL
