MODEL 1
REMARK VINA RESULT:      -7.6      0.000      0.000
REMARK  Name = 
REMARK  5 active torsions:
REMARK  status: ('A' for Active; 'I' for Inactive)
REMARK    1  A    between atoms: C_1  and  N_2
REMARK    2  A    between atoms: C_5  and  C_6
REMARK    3  A    between atoms: C_6  and  N_7
REMARK    4  A    between atoms: N_14  and  C_15
REMARK    5  A    between atoms: C_15  and  C_16
REMARK                            x       y       z     vdW  Elec       q    Type
REMARK                         _______ _______ _______ _____ _____    ______ ____
ROOT
ATOM      1  N   UNL     1       1.994   6.827  19.623  0.00  0.00    +0.000 N 
ATOM      2  C   UNL     1       1.584   5.807  20.554  0.00  0.00    +0.000 C 
ATOM      3  C   UNL     1       1.773   4.515  19.753  0.00  0.00    +0.000 C 
ATOM      4  C   UNL     1       3.076   4.807  18.982  0.00  0.00    +0.000 C 
ATOM      5  C   UNL     1       4.258   4.605  19.953  0.00  0.00    +0.000 C 
ATOM      6  C   UNL     1       5.551   5.058  19.309  0.00  0.00    +0.000 C 
ATOM      7  C   UNL     1       5.798   4.302  18.012  0.00  0.00    +0.000 C 
ATOM      8  N   UNL     1       4.652   4.315  17.090  0.00  0.00    +0.000 NA
ATOM      9  C   UNL     1       3.359   3.964  17.721  0.00  0.00    +0.000 C 
ATOM     10  C   UNL     1       2.835   6.288  18.642  0.00  0.00    +0.000 C 
ATOM     11  O   UNL     1       3.338   6.930  17.733  0.00  0.00    +0.000 OA
ENDROOT
BRANCH   1  12
ATOM     12  C   UNL     1       2.110   8.227  20.011  0.00  0.00    +0.000 C 
BRANCH  12  17
ATOM     13  C   UNL     1      -1.359  11.688  23.032  0.00  0.00    +0.000 C 
ATOM     14  N   UNL     1      -0.277  11.006  22.318  0.00  0.00    +0.000 NA
ATOM     15  C   UNL     1       0.009   9.710  22.948  0.00  0.00    +0.000 C 
ATOM     16  C   UNL     1       1.166   8.992  22.246  0.00  0.00    +0.000 C 
ATOM     17  C   UNL     1       0.891   8.810  20.748  0.00  0.00    +0.000 C 
ATOM     18  C   UNL     1       0.503  10.163  20.128  0.00  0.00    +0.000 C 
ATOM     19  C   UNL     1      -0.632  10.835  20.902  0.00  0.00    +0.000 C 
ENDBRANCH  12  17
ENDBRANCH   1  12
BRANCH   8  20
ATOM     20  C   UNL     1       4.920   3.533  15.873  0.00  0.00    +0.000 C 
BRANCH  20  21
ATOM     21  C   UNL     1       6.001   4.190  15.069  0.00  0.00    +0.000 A 
ATOM     22  C   UNL     1       6.297   3.993  13.683  0.00  0.00    +0.000 A 
ATOM     23  C   UNL     1       7.326   4.849  13.373  0.00  0.00    +0.000 A 
ATOM     24  O   UNL     1       7.700   5.551  14.473  0.00  0.00    +0.000 OA
ATOM     25  C   UNL     1       6.896   5.154  15.492  0.00  0.00    +0.000 A 
ENDBRANCH  20  21
ENDBRANCH   8  20
TORSDOF 4
ENDMDL
MODEL 2
REMARK VINA RESULT:      -7.4      3.271      8.372
REMARK  Name = 
REMARK  5 active torsions:
REMARK  status: ('A' for Active; 'I' for Inactive)
REMARK    1  A    between atoms: C_1  and  N_2
REMARK    2  A    between atoms: C_5  and  C_6
REMARK    3  A    between atoms: C_6  and  N_7
REMARK    4  A    between atoms: N_14  and  C_15
REMARK    5  A    between atoms: C_15  and  C_16
REMARK                            x       y       z     vdW  Elec       q    Type
REMARK                         _______ _______ _______ _____ _____    ______ ____
ROOT
ATOM      1  N   UNL     1       2.036   8.295  19.218  0.00  0.00    +0.000 N 
ATOM      2  C   UNL     1       1.417   7.934  20.467  0.00  0.00    +0.000 C 
ATOM      3  C   UNL     1       1.093   9.292  21.097  0.00  0.00    +0.000 C 
ATOM      4  C   UNL     1       0.642  10.110  19.870  0.00  0.00    +0.000 C 
ATOM      5  C   UNL     1      -0.809   9.703  19.535  0.00  0.00    +0.000 C 
ATOM      6  C   UNL     1      -1.243  10.334  18.228  0.00  0.00    +0.000 C 
ATOM      7  C   UNL     1      -1.122  11.849  18.298  0.00  0.00    +0.000 C 
ATOM      8  N   UNL     1       0.192  12.319  18.763  0.00  0.00    +0.000 NA
ATOM      9  C   UNL     1       0.678  11.649  19.991  0.00  0.00    +0.000 C 
ATOM     10  C   UNL     1       1.657   9.589  18.839  0.00  0.00    +0.000 C 
ATOM     11  O   UNL     1       2.025  10.146  17.817  0.00  0.00    +0.000 OA
ENDROOT
BRANCH   1  12
ATOM     12  C   UNL     1       2.388   7.302  18.213  0.00  0.00    +0.000 C 
BRANCH  12  17
ATOM     13  C   UNL     1       3.575   1.685  18.638  0.00  0.00    +0.000 C 
ATOM     14  N   UNL     1       3.385   3.089  18.267  0.00  0.00    +0.000 NA
ATOM     15  C   UNL     1       1.954   3.423  18.256  0.00  0.00    +0.000 C 
ATOM     16  C   UNL     1       1.723   4.876  17.831  0.00  0.00    +0.000 C 
ATOM     17  C   UNL     1       2.494   5.854  18.726  0.00  0.00    +0.000 C 
ATOM     18  C   UNL     1       3.971   5.432  18.797  0.00  0.00    +0.000 C 
ATOM     19  C   UNL     1       4.121   3.963  19.193  0.00  0.00    +0.000 C 
ENDBRANCH  12  17
ENDBRANCH   1  12
BRANCH   8  20
ATOM     20  C   UNL     1       0.245  13.785  18.858  0.00  0.00    +0.000 C 
BRANCH  20  21
ATOM     21  C   UNL     1       1.669  14.251  18.818  0.00  0.00    +0.000 A 
ATOM     22  C   UNL     1       2.755  13.669  18.090  0.00  0.00    +0.000 A 
ATOM     23  C   UNL     1       3.851  14.469  18.310  0.00  0.00    +0.000 A 
ATOM     24  O   UNL     1       3.525  15.495  19.137  0.00  0.00    +0.000 OA
ATOM     25  C   UNL     1       2.208  15.362  19.437  0.00  0.00    +0.000 A 
ENDBRANCH  20  21
ENDBRANCH   8  20
TORSDOF 4
ENDMDL
MODEL 3
REMARK VINA RESULT:      -7.3      1.412      2.169
REMARK  Name = 
REMARK  5 active torsions:
REMARK  status: ('A' for Active; 'I' for Inactive)
REMARK    1  A    between atoms: C_1  and  N_2
REMARK    2  A    between atoms: C_5  and  C_6
REMARK    3  A    between atoms: C_6  and  N_7
REMARK    4  A    between atoms: N_14  and  C_15
REMARK    5  A    between atoms: C_15  and  C_16
REMARK                            x       y       z     vdW  Elec       q    Type
REMARK                         _______ _______ _______ _____ _____    ______ ____
ROOT
ATOM      1  N   UNL     1       1.946   7.785  20.032  0.00  0.00    +0.000 N 
ATOM      2  C   UNL     1       1.683   8.534  18.830  0.00  0.00    +0.000 C 
ATOM      3  C   UNL     1       2.778   8.048  17.876  0.00  0.00    +0.000 C 
ATOM      4  C   UNL     1       2.848   6.544  18.212  0.00  0.00    +0.000 C 
ATOM      5  C   UNL     1       1.661   5.846  17.514  0.00  0.00    +0.000 C 
ATOM      6  C   UNL     1       1.567   4.402  17.959  0.00  0.00    +0.000 C 
ATOM      7  C   UNL     1       2.863   3.663  17.661  0.00  0.00    +0.000 C 
ATOM      8  N   UNL     1       4.065   4.348  18.162  0.00  0.00    +0.000 NA
ATOM      9  C   UNL     1       4.133   5.787  17.816  0.00  0.00    +0.000 C 
ATOM     10  C   UNL     1       2.674   6.625  19.739  0.00  0.00    +0.000 C 
ATOM     11  O   UNL     1       3.024   5.800  20.567  0.00  0.00    +0.000 OA
ENDROOT
BRANCH   1  12
ATOM     12  C   UNL     1       1.051   7.826  21.181  0.00  0.00    +0.000 C 
BRANCH  12  17
ATOM     13  C   UNL     1      -0.944  12.962  22.852  0.00  0.00    +0.000 C 
ATOM     14  N   UNL     1      -0.246  11.692  22.637  0.00  0.00    +0.000 NA
ATOM     15  C   UNL     1      -1.158  10.564  22.873  0.00  0.00    +0.000 C 
ATOM     16  C   UNL     1      -0.443   9.222  22.696  0.00  0.00    +0.000 C 
ATOM     17  C   UNL     1       0.204   9.106  21.310  0.00  0.00    +0.000 C 
ATOM     18  C   UNL     1       1.082  10.342  21.048  0.00  0.00    +0.000 C 
ATOM     19  C   UNL     1       0.311  11.641  21.278  0.00  0.00    +0.000 C 
ENDBRANCH  12  17
ENDBRANCH   1  12
BRANCH   8  20
ATOM     20  C   UNL     1       5.294   3.622  17.810  0.00  0.00    +0.000 C 
BRANCH  20  21
ATOM     21  C   UNL     1       5.950   4.265  16.626  0.00  0.00    +0.000 A 
ATOM     22  C   UNL     1       5.523   4.214  15.261  0.00  0.00    +0.000 A 
ATOM     23  C   UNL     1       6.397   4.998  14.545  0.00  0.00    +0.000 A 
ATOM     24  O   UNL     1       7.345   5.515  15.367  0.00  0.00    +0.000 OA
ATOM     25  C   UNL     1       7.070   5.074  16.621  0.00  0.00    +0.000 A 
ENDBRANCH  20  21
ENDBRANCH   8  20
TORSDOF 4
ENDMDL
MODEL 4
REMARK VINA RESULT:      -7.3      2.307      8.319
REMARK  Name = 
REMARK  5 active torsions:
REMARK  status: ('A' for Active; 'I' for Inactive)
REMARK    1  A    between atoms: C_1  and  N_2
REMARK    2  A    between atoms: C_5  and  C_6
REMARK    3  A    between atoms: C_6  and  N_7
REMARK    4  A    between atoms: N_14  and  C_15
REMARK    5  A    between atoms: C_15  and  C_16
REMARK                            x       y       z     vdW  Elec       q    Type
REMARK                         _______ _______ _______ _____ _____    ______ ____
ROOT
ATOM      1  N   UNL     1       6.832   5.712  16.848  0.00  0.00    +0.000 N 
ATOM      2  C   UNL     1       7.414   4.663  17.645  0.00  0.00    +0.000 C 
ATOM      3  C   UNL     1       6.674   4.795  18.980  0.00  0.00    +0.000 C 
ATOM      4  C   UNL     1       5.241   5.125  18.517  0.00  0.00    +0.000 C 
ATOM      5  C   UNL     1       4.575   3.810  18.059  0.00  0.00    +0.000 C 
ATOM      6  C   UNL     1       3.233   4.097  17.417  0.00  0.00    +0.000 C 
ATOM      7  C   UNL     1       2.324   4.840  18.385  0.00  0.00    +0.000 C 
ATOM      8  N   UNL     1       2.945   6.028  18.990  0.00  0.00    +0.000 NA
ATOM      9  C   UNL     1       4.299   5.792  19.542  0.00  0.00    +0.000 C 
ATOM     10  C   UNL     1       5.571   6.064  17.343  0.00  0.00    +0.000 C 
ATOM     11  O   UNL     1       4.849   6.918  16.854  0.00  0.00    +0.000 OA
ENDROOT
BRANCH   1  12
ATOM     12  C   UNL     1       7.143   5.872  15.434  0.00  0.00    +0.000 C 
BRANCH  12  17
ATOM     13  C   UNL     1       5.262   2.457  11.198  0.00  0.00    +0.000 C 
ATOM     14  N   UNL     1       5.594   3.530  12.138  0.00  0.00    +0.000 NA
ATOM     15  C   UNL     1       5.052   3.225  13.470  0.00  0.00    +0.000 C 
ATOM     16  C   UNL     1       5.349   4.350  14.464  0.00  0.00    +0.000 C 
ATOM     17  C   UNL     1       6.852   4.643  14.552  0.00  0.00    +0.000 C 
ATOM     18  C   UNL     1       7.416   4.869  13.139  0.00  0.00    +0.000 C 
ATOM     19  C   UNL     1       7.050   3.723  12.196  0.00  0.00    +0.000 C 
ENDBRANCH  12  17
ENDBRANCH   1  12
BRANCH   8  20
ATOM     20  C   UNL     1       2.047   6.685  19.952  0.00  0.00    +0.000 C 
BRANCH  20  21
ATOM     21  C   UNL     1       1.749   8.083  19.503  0.00  0.00    +0.000 A 
ATOM     22  C   UNL     1       2.024   8.665  18.225  0.00  0.00    +0.000 A 
ATOM     23  C   UNL     1       1.521   9.944  18.257  0.00  0.00    +0.000 A 
ATOM     24  O   UNL     1       0.970  10.202  19.470  0.00  0.00    +0.000 OA
ATOM     25  C   UNL     1       1.106   9.076  20.217  0.00  0.00    +0.000 A 
ENDBRANCH  20  21
ENDBRANCH   8  20
TORSDOF 4
ENDMDL
MODEL 5
REMARK VINA RESULT:      -7.1      1.198      1.450
REMARK  Name = 
REMARK  5 active torsions:
REMARK  status: ('A' for Active; 'I' for Inactive)
REMARK    1  A    between atoms: C_1  and  N_2
REMARK    2  A    between atoms: C_5  and  C_6
REMARK    3  A    between atoms: C_6  and  N_7
REMARK    4  A    between atoms: N_14  and  C_15
REMARK    5  A    between atoms: C_15  and  C_16
REMARK                            x       y       z     vdW  Elec       q    Type
REMARK                         _______ _______ _______ _____ _____    ______ ____
ROOT
ATOM      1  N   UNL     1       2.189   7.051  18.958  0.00  0.00    +0.000 N 
ATOM      2  C   UNL     1       1.769   6.158  20.007  0.00  0.00    +0.000 C 
ATOM      3  C   UNL     1       2.063   4.774  19.420  0.00  0.00    +0.000 C 
ATOM      4  C   UNL     1       3.398   5.019  18.687  0.00  0.00    +0.000 C 
ATOM      5  C   UNL     1       4.525   5.024  19.741  0.00  0.00    +0.000 C 
ATOM      6  C   UNL     1       5.835   5.445  19.107  0.00  0.00    +0.000 C 
ATOM      7  C   UNL     1       6.194   4.521  17.954  0.00  0.00    +0.000 C 
ATOM      8  N   UNL     1       5.108   4.338  16.979  0.00  0.00    +0.000 NA
ATOM      9  C   UNL     1       3.795   4.015  17.584  0.00  0.00    +0.000 C 
ATOM     10  C   UNL     1       3.113   6.419  18.116  0.00  0.00    +0.000 C 
ATOM     11  O   UNL     1       3.643   6.946  17.151  0.00  0.00    +0.000 OA
ENDROOT
BRANCH   1  12
ATOM     12  C   UNL     1       2.220   8.496  19.137  0.00  0.00    +0.000 C 
BRANCH  12  17
ATOM     13  C   UNL     1      -2.029  12.359  19.551  0.00  0.00    +0.000 C 
ATOM     14  N   UNL     1      -0.785  11.604  19.384  0.00  0.00    +0.000 NA
ATOM     15  C   UNL     1      -0.414  10.950  20.647  0.00  0.00    +0.000 C 
ATOM     16  C   UNL     1       0.907  10.186  20.513  0.00  0.00    +0.000 C 
ATOM     17  C   UNL     1       0.851   9.159  19.376  0.00  0.00    +0.000 C 
ATOM     18  C   UNL     1       0.371   9.846  18.086  0.00  0.00    +0.000 C 
ATOM     19  C   UNL     1      -0.931  10.616  18.306  0.00  0.00    +0.000 C 
ENDBRANCH  12  17
ENDBRANCH   1  12
BRANCH   8  20
ATOM     20  C   UNL     1       5.486   3.401  15.909  0.00  0.00    +0.000 C 
BRANCH  20  21
ATOM     21  C   UNL     1       6.324   4.103  14.884  0.00  0.00    +0.000 A 
ATOM     22  C   UNL     1       6.321   3.898  13.469  0.00  0.00    +0.000 A 
ATOM     23  C   UNL     1       7.206   4.805  12.936  0.00  0.00    +0.000 A 
ATOM     24  O   UNL     1       7.770   5.546  13.924  0.00  0.00    +0.000 OA
ATOM     25  C   UNL     1       7.232   5.123  15.097  0.00  0.00    +0.000 A 
ENDBRANCH  20  21
ENDBRANCH   8  20
TORSDOF 4
ENDMDL
MODEL 6
REMARK VINA RESULT:      -7.1      4.532      6.846
REMARK  Name = 
REMARK  5 active torsions:
REMARK  status: ('A' for Active; 'I' for Inactive)
REMARK    1  A    between atoms: C_1  and  N_2
REMARK    2  A    between atoms: C_5  and  C_6
REMARK    3  A    between atoms: C_6  and  N_7
REMARK    4  A    between atoms: N_14  and  C_15
REMARK    5  A    between atoms: C_15  and  C_16
REMARK                            x       y       z     vdW  Elec       q    Type
REMARK                         _______ _______ _______ _____ _____    ______ ____
ROOT
ATOM      1  N   UNL     1       7.511   7.557  18.207  0.00  0.00    +0.000 N 
ATOM      2  C   UNL     1       8.403   6.726  18.973  0.00  0.00    +0.000 C 
ATOM      3  C   UNL     1       7.506   5.561  19.402  0.00  0.00    +0.000 C 
ATOM      4  C   UNL     1       6.647   5.340  18.140  0.00  0.00    +0.000 C 
ATOM      5  C   UNL     1       7.499   4.559  17.117  0.00  0.00    +0.000 C 
ATOM      6  C   UNL     1       6.778   4.475  15.788  0.00  0.00    +0.000 C 
ATOM      7  C   UNL     1       5.418   3.815  15.957  0.00  0.00    +0.000 C 
ATOM      8  N   UNL     1       4.599   4.406  17.026  0.00  0.00    +0.000 NA
ATOM      9  C   UNL     1       5.314   4.583  18.312  0.00  0.00    +0.000 C 
ATOM     10  C   UNL     1       6.428   6.808  17.732  0.00  0.00    +0.000 C 
ATOM     11  O   UNL     1       5.525   7.256  17.044  0.00  0.00    +0.000 OA
ENDROOT
BRANCH   1  12
ATOM     12  C   UNL     1       7.979   8.727  17.477  0.00  0.00    +0.000 C 
BRANCH  12  17
ATOM     13  C   UNL     1      10.176  13.542  19.743  0.00  0.00    +0.000 C 
ATOM     14  N   UNL     1       9.864  12.306  19.022  0.00  0.00    +0.000 NA
ATOM     15  C   UNL     1       9.695  11.194  19.968  0.00  0.00    +0.000 C 
ATOM     16  C   UNL     1       9.409   9.879  19.238  0.00  0.00    +0.000 C 
ATOM     17  C   UNL     1       8.182   9.996  18.326  0.00  0.00    +0.000 C 
ATOM     18  C   UNL     1       8.339  11.220  17.408  0.00  0.00    +0.000 C 
ATOM     19  C   UNL     1       8.657  12.486  18.203  0.00  0.00    +0.000 C 
ENDBRANCH  12  17
ENDBRANCH   1  12
BRANCH   8  20
ATOM     20  C   UNL     1       3.315   3.707  17.183  0.00  0.00    +0.000 C 
BRANCH  20  21
ATOM     21  C   UNL     1       2.689   4.070  18.495  0.00  0.00    +0.000 A 
ATOM     22  C   UNL     1       2.339   5.376  18.961  0.00  0.00    +0.000 A 
ATOM     23  C   UNL     1       1.741   5.211  20.188  0.00  0.00    +0.000 A 
ATOM     24  O   UNL     1       1.713   3.896  20.523  0.00  0.00    +0.000 OA
ATOM     25  C   UNL     1       2.282   3.211  19.498  0.00  0.00    +0.000 A 
ENDBRANCH  20  21
ENDBRANCH   8  20
TORSDOF 4
ENDMDL
MODEL 7
REMARK VINA RESULT:      -7.1      3.290      8.466
REMARK  Name = 
REMARK  5 active torsions:
REMARK  status: ('A' for Active; 'I' for Inactive)
REMARK    1  A    between atoms: C_1  and  N_2
REMARK    2  A    between atoms: C_5  and  C_6
REMARK    3  A    between atoms: C_6  and  N_7
REMARK    4  A    between atoms: N_14  and  C_15
REMARK    5  A    between atoms: C_15  and  C_16
REMARK                            x       y       z     vdW  Elec       q    Type
REMARK                         _______ _______ _______ _____ _____    ______ ____
ROOT
ATOM      1  N   UNL     1       1.954   8.359  19.326  0.00  0.00    +0.000 N 
ATOM      2  C   UNL     1       1.329   8.063  20.590  0.00  0.00    +0.000 C 
ATOM      3  C   UNL     1       1.026   9.453  21.158  0.00  0.00    +0.000 C 
ATOM      4  C   UNL     1       0.588  10.223  19.895  0.00  0.00    +0.000 C 
ATOM      5  C   UNL     1      -0.869   9.824  19.578  0.00  0.00    +0.000 C 
ATOM      6  C   UNL     1      -1.293  10.402  18.244  0.00  0.00    +0.000 C 
ATOM      7  C   UNL     1      -1.148  11.917  18.245  0.00  0.00    +0.000 C 
ATOM      8  N   UNL     1       0.173  12.387  18.690  0.00  0.00    +0.000 NA
ATOM      9  C   UNL     1       0.649  11.764  19.947  0.00  0.00    +0.000 C 
ATOM     10  C   UNL     1       1.596   9.640  18.889  0.00  0.00    +0.000 C 
ATOM     11  O   UNL     1       1.972  10.145  17.843  0.00  0.00    +0.000 OA
ENDROOT
BRANCH   1  12
ATOM     12  C   UNL     1       2.290   7.316  18.366  0.00  0.00    +0.000 C 
BRANCH  12  17
ATOM     13  C   UNL     1       7.204   4.548  17.212  0.00  0.00    +0.000 C 
ATOM     14  N   UNL     1       5.843   5.082  17.304  0.00  0.00    +0.000 NA
ATOM     15  C   UNL     1       5.289   4.833  18.642  0.00  0.00    +0.000 C 
ATOM     16  C   UNL     1       3.850   5.344  18.754  0.00  0.00    +0.000 C 
ATOM     17  C   UNL     1       3.752   6.834  18.403  0.00  0.00    +0.000 C 
ATOM     18  C   UNL     1       4.420   7.086  17.041  0.00  0.00    +0.000 C 
ATOM     19  C   UNL     1       5.838   6.518  16.993  0.00  0.00    +0.000 C 
ENDBRANCH  12  17
ENDBRANCH   1  12
BRANCH   8  20
ATOM     20  C   UNL     1       0.250  13.855  18.719  0.00  0.00    +0.000 C 
BRANCH  20  21
ATOM     21  C   UNL     1       1.682  14.293  18.777  0.00  0.00    +0.000 A 
ATOM     22  C   UNL     1       2.792  13.737  18.066  0.00  0.00    +0.000 A 
ATOM     23  C   UNL     1       3.889  14.500  18.390  0.00  0.00    +0.000 A 
ATOM     24  O   UNL     1       3.541  15.477  19.264  0.00  0.00    +0.000 OA
ATOM     25  C   UNL     1       2.208  15.352  19.492  0.00  0.00    +0.000 A 
ENDBRANCH  20  21
ENDBRANCH   8  20
TORSDOF 4
ENDMDL
MODEL 8
REMARK VINA RESULT:      -7.1      3.212      8.644
REMARK  Name = 
REMARK  5 active torsions:
REMARK  status: ('A' for Active; 'I' for Inactive)
REMARK    1  A    between atoms: C_1  and  N_2
REMARK    2  A    between atoms: C_5  and  C_6
REMARK    3  A    between atoms: C_6  and  N_7
REMARK    4  A    between atoms: N_14  and  C_15
REMARK    5  A    between atoms: C_15  and  C_16
REMARK                            x       y       z     vdW  Elec       q    Type
REMARK                         _______ _______ _______ _____ _____    ______ ____
ROOT
ATOM      1  N   UNL     1       2.081   8.077  19.251  0.00  0.00    +0.000 N 
ATOM      2  C   UNL     1       1.491   7.711  20.514  0.00  0.00    +0.000 C 
ATOM      3  C   UNL     1       1.272   9.065  21.196  0.00  0.00    +0.000 C 
ATOM      4  C   UNL     1       0.821   9.947  20.014  0.00  0.00    +0.000 C 
ATOM      5  C   UNL     1      -0.663   9.635  19.727  0.00  0.00    +0.000 C 
ATOM      6  C   UNL     1      -1.110  10.330  18.458  0.00  0.00    +0.000 C 
ATOM      7  C   UNL     1      -0.899  11.833  18.567  0.00  0.00    +0.000 C 
ATOM      8  N   UNL     1       0.458  12.212  18.991  0.00  0.00    +0.000 NA
ATOM      9  C   UNL     1       0.953  11.476  20.178  0.00  0.00    +0.000 C 
ATOM     10  C   UNL     1       1.763   9.401  18.926  0.00  0.00    +0.000 C 
ATOM     11  O   UNL     1       2.122   9.968  17.907  0.00  0.00    +0.000 OA
ENDROOT
BRANCH   1  12
ATOM     12  C   UNL     1       2.333   7.097  18.203  0.00  0.00    +0.000 C 
BRANCH  12  17
ATOM     13  C   UNL     1       3.584   1.485  18.485  0.00  0.00    +0.000 C 
ATOM     14  N   UNL     1       3.377   2.895  18.149  0.00  0.00    +0.000 NA
ATOM     15  C   UNL     1       1.942   3.214  18.157  0.00  0.00    +0.000 C 
ATOM     16  C   UNL     1       1.692   4.674  17.769  0.00  0.00    +0.000 C 
ATOM     17  C   UNL     1       2.459   5.639  18.681  0.00  0.00    +0.000 C 
ATOM     18  C   UNL     1       3.941   5.231  18.731  0.00  0.00    +0.000 C 
ATOM     19  C   UNL     1       4.110   3.755  19.090  0.00  0.00    +0.000 C 
ENDBRANCH  12  17
ENDBRANCH   1  12
BRANCH   8  20
ATOM     20  C   UNL     1       0.601  13.669  19.127  0.00  0.00    +0.000 C 
BRANCH  20  21
ATOM     21  C   UNL     1       1.574  13.989  20.221  0.00  0.00    +0.000 A 
ATOM     22  C   UNL     1       3.002  14.024  20.134  0.00  0.00    +0.000 A 
ATOM     23  C   UNL     1       3.463  14.422  21.366  0.00  0.00    +0.000 A 
ATOM     24  O   UNL     1       2.423  14.620  22.215  0.00  0.00    +0.000 OA
ATOM     25  C   UNL     1       1.286  14.362  21.520  0.00  0.00    +0.000 A 
ENDBRANCH  20  21
ENDBRANCH   8  20
TORSDOF 4
ENDMDL
MODEL 9
REMARK VINA RESULT:      -7.1      1.428      2.630
REMARK  Name = 
REMARK  5 active torsions:
REMARK  status: ('A' for Active; 'I' for Inactive)
REMARK    1  A    between atoms: C_1  and  N_2
REMARK    2  A    between atoms: C_5  and  C_6
REMARK    3  A    between atoms: C_6  and  N_7
REMARK    4  A    between atoms: N_14  and  C_15
REMARK    5  A    between atoms: C_15  and  C_16
REMARK                            x       y       z     vdW  Elec       q    Type
REMARK                         _______ _______ _______ _____ _____    ______ ____
ROOT
ATOM      1  N   UNL     1       1.642   8.222  19.831  0.00  0.00    +0.000 N 
ATOM      2  C   UNL     1       1.616   8.856  18.538  0.00  0.00    +0.000 C 
ATOM      3  C   UNL     1       2.860   8.285  17.850  0.00  0.00    +0.000 C 
ATOM      4  C   UNL     1       2.842   6.819  18.329  0.00  0.00    +0.000 C 
ATOM      5  C   UNL     1       1.793   6.058  17.491  0.00  0.00    +0.000 C 
ATOM      6  C   UNL     1       1.595   4.661  18.041  0.00  0.00    +0.000 C 
ATOM      7  C   UNL     1       2.912   3.899  18.056  0.00  0.00    +0.000 C 
ATOM      8  N   UNL     1       4.012   4.629  18.704  0.00  0.00    +0.000 NA
ATOM      9  C   UNL     1       4.166   6.030  18.248  0.00  0.00    +0.000 C 
ATOM     10  C   UNL     1       2.392   7.041  19.784  0.00  0.00    +0.000 C 
ATOM     11  O   UNL     1       2.571   6.296  20.734  0.00  0.00    +0.000 OA
ENDROOT
BRANCH   1  12
ATOM     12  C   UNL     1       0.552   8.369  20.786  0.00  0.00    +0.000 C 
BRANCH  12  17
ATOM     13  C   UNL     1      -2.237  13.148  22.375  0.00  0.00    +0.000 C 
ATOM     14  N   UNL     1      -1.790  11.818  21.954  0.00  0.00    +0.000 NA
ATOM     15  C   UNL     1      -1.110  11.898  20.654  0.00  0.00    +0.000 C 
ATOM     16  C   UNL     1      -0.667  10.515  20.169  0.00  0.00    +0.000 C 
ATOM     17  C   UNL     1       0.229   9.816  21.199  0.00  0.00    +0.000 C 
ATOM     18  C   UNL     1      -0.463   9.826  22.573  0.00  0.00    +0.000 C 
ATOM     19  C   UNL     1      -0.906  11.233  22.973  0.00  0.00    +0.000 C 
ENDBRANCH  12  17
ENDBRANCH   1  12
BRANCH   8  20
ATOM     20  C   UNL     1       5.274   3.875  18.653  0.00  0.00    +0.000 C 
BRANCH  20  21
ATOM     21  C   UNL     1       6.006   4.185  17.383  0.00  0.00    +0.000 A 
ATOM     22  C   UNL     1       5.569   3.939  16.043  0.00  0.00    +0.000 A 
ATOM     23  C   UNL     1       6.541   4.443  15.212  0.00  0.00    +0.000 A 
ATOM     24  O   UNL     1       7.558   4.967  15.942  0.00  0.00    +0.000 OA
ATOM     25  C   UNL     1       7.230   4.813  17.251  0.00  0.00    +0.000 A 
ENDBRANCH  20  21
ENDBRANCH   8  20
TORSDOF 4
ENDMDL
