MODEL 1
REMARK VINA RESULT:      -6.8      0.000      0.000
REMARK  Name = 
REMARK  2 active torsions:
REMARK  status: ('A' for Active; 'I' for Inactive)
REMARK    1  A    between atoms: C_2  and  C_3
REMARK    2  A    between atoms: C_15  and  N_16
REMARK                            x       y       z     vdW  Elec       q    Type
REMARK                         _______ _______ _______ _____ _____    ______ ____
ROOT
ATOM      1  O   UNL     1       3.586   8.848  17.449  0.00  0.00    +0.000 OA
ATOM      2  C   UNL     1       2.806   8.081  18.016  0.00  0.00    +0.000 C 
ATOM      3  N   UNL     1       2.979   6.682  17.979  0.00  0.00    +0.000 N 
ATOM      4  C   UNL     1       2.028   5.676  18.449  0.00  0.00    +0.000 C 
ATOM      5  C   UNL     1       2.395   5.148  19.838  0.00  0.00    +0.000 C 
ATOM      6  C   UNL     1       3.640   4.279  19.899  0.00  0.00    +0.000 C 
ATOM      7  C   UNL     1       4.878   4.952  19.300  0.00  0.00    +0.000 C 
ATOM      8  C   UNL     1       4.854   4.892  17.750  0.00  0.00    +0.000 C 
ATOM      9  C   UNL     1       4.121   6.167  17.198  0.00  0.00    +0.000 C 
ENDROOT
BRANCH   2  10
ATOM     10  C   UNL     1       1.640   8.737  18.710  0.00  0.00    +0.000 A 
ATOM     11  C   UNL     1       0.650   9.487  18.066  0.00  0.00    +0.000 A 
ATOM     12  C   UNL     1      -0.376  10.117  18.770  0.00  0.00    +0.000 A 
ATOM     13  C   UNL     1      -0.475   9.940  20.141  0.00  0.00    +0.000 A 
ATOM     14  C   UNL     1       0.448   9.122  20.781  0.00  0.00    +0.000 A 
ATOM     15  F   UNL     1       0.322   8.908  22.098  0.00  0.00    +0.000 F 
ATOM     16  C   UNL     1       1.498   8.524  20.088  0.00  0.00    +0.000 A 
ENDBRANCH   2  10
BRANCH   8  17
ATOM     17  N   UNL     1       6.229   4.770  17.189  0.00  0.00    +0.000 NA
ATOM     18  C   UNL     1       7.286   4.697  18.214  0.00  0.00    +0.000 C 
ATOM     19  C   UNL     1       7.654   6.135  18.534  0.00  0.00    +0.000 C 
ATOM     20  C   UNL     1       7.385   6.891  17.247  0.00  0.00    +0.000 C 
ATOM     21  C   UNL     1       6.649   5.908  16.350  0.00  0.00    +0.000 C 
ENDBRANCH   8  17
TORSDOF 2
ENDMDL
MODEL 2
REMARK VINA RESULT:      -6.8      1.396      2.153
REMARK  Name = 
REMARK  2 active torsions:
REMARK  status: ('A' for Active; 'I' for Inactive)
REMARK    1  A    between atoms: C_2  and  C_3
REMARK    2  A    between atoms: C_15  and  N_16
REMARK                            x       y       z     vdW  Elec       q    Type
REMARK                         _______ _______ _______ _____ _____    ______ ____
ROOT
ATOM      1  O   UNL     1       2.618   9.565  17.677  0.00  0.00    +0.000 OA
ATOM      2  C   UNL     1       2.254   8.629  18.392  0.00  0.00    +0.000 C 
ATOM      3  N   UNL     1       2.661   7.303  18.145  0.00  0.00    +0.000 N 
ATOM      4  C   UNL     1       2.150   6.100  18.802  0.00  0.00    +0.000 C 
ATOM      5  C   UNL     1       3.088   5.615  19.911  0.00  0.00    +0.000 C 
ATOM      6  C   UNL     1       4.409   5.031  19.441  0.00  0.00    +0.000 C 
ATOM      7  C   UNL     1       5.197   5.973  18.527  0.00  0.00    +0.000 C 
ATOM      8  C   UNL     1       4.626   5.964  17.085  0.00  0.00    +0.000 C 
ATOM      9  C   UNL     1       3.517   7.071  16.964  0.00  0.00    +0.000 C 
ENDROOT
BRANCH   2  10
ATOM     10  C   UNL     1       1.318   8.996  19.514  0.00  0.00    +0.000 A 
ATOM     11  C   UNL     1       1.418   8.516  20.824  0.00  0.00    +0.000 A 
ATOM     12  C   UNL     1       0.487   8.849  21.808  0.00  0.00    +0.000 A 
ATOM     13  C   UNL     1      -0.529   9.744  21.513  0.00  0.00    +0.000 A 
ATOM     14  C   UNL     1      -0.587  10.299  20.242  0.00  0.00    +0.000 A 
ATOM     15  F   UNL     1      -1.540  11.204  19.971  0.00  0.00    +0.000 F 
ATOM     16  C   UNL     1       0.315   9.938  19.245  0.00  0.00    +0.000 A 
ENDBRANCH   2  10
BRANCH   8  17
ATOM     17  N   UNL     1       5.700   6.158  16.073  0.00  0.00    +0.000 NA
ATOM     18  C   UNL     1       5.533   5.335  14.861  0.00  0.00    +0.000 C 
ATOM     19  C   UNL     1       6.203   4.007  15.168  0.00  0.00    +0.000 C 
ATOM     20  C   UNL     1       7.306   4.355  16.148  0.00  0.00    +0.000 C 
ATOM     21  C   UNL     1       7.053   5.802  16.541  0.00  0.00    +0.000 C 
ENDBRANCH   8  17
TORSDOF 2
ENDMDL
MODEL 3
REMARK VINA RESULT:      -6.7      0.989      1.433
REMARK  Name = 
REMARK  2 active torsions:
REMARK  status: ('A' for Active; 'I' for Inactive)
REMARK    1  A    between atoms: C_2  and  C_3
REMARK    2  A    between atoms: C_15  and  N_16
REMARK                            x       y       z     vdW  Elec       q    Type
REMARK                         _______ _______ _______ _____ _____    ______ ____
ROOT
ATOM      1  O   UNL     1       3.443   8.659  17.767  0.00  0.00    +0.000 OA
ATOM      2  C   UNL     1       2.747   7.849  18.382  0.00  0.00    +0.000 C 
ATOM      3  N   UNL     1       2.933   6.458  18.251  0.00  0.00    +0.000 N 
ATOM      4  C   UNL     1       2.059   5.411  18.777  0.00  0.00    +0.000 C 
ATOM      5  C   UNL     1       2.599   4.820  20.082  0.00  0.00    +0.000 C 
ATOM      6  C   UNL     1       3.853   3.973  19.947  0.00  0.00    +0.000 C 
ATOM      7  C   UNL     1       5.000   4.700  19.240  0.00  0.00    +0.000 C 
ATOM      8  C   UNL     1       4.790   4.719  17.703  0.00  0.00    +0.000 C 
ATOM      9  C   UNL     1       3.979   6.006  17.311  0.00  0.00    +0.000 C 
ENDROOT
BRANCH   2  10
ATOM     10  C   UNL     1       1.665   8.446  19.245  0.00  0.00    +0.000 A 
ATOM     11  C   UNL     1       1.466   8.143  20.596  0.00  0.00    +0.000 A 
ATOM     12  C   UNL     1       0.412   8.687  21.329  0.00  0.00    +0.000 A 
ATOM     13  C   UNL     1      -0.426   9.618  20.735  0.00  0.00    +0.000 A 
ATOM     14  C   UNL     1      -0.184   9.997  19.421  0.00  0.00    +0.000 A 
ATOM     15  F   UNL     1      -0.962  10.935  18.863  0.00  0.00    +0.000 F 
ATOM     16  C   UNL     1       0.842   9.426  18.673  0.00  0.00    +0.000 A 
ENDBRANCH   2  10
BRANCH   8  17
ATOM     17  N   UNL     1       6.088   4.652  16.975  0.00  0.00    +0.000 NA
ATOM     18  C   UNL     1       7.259   4.502  17.858  0.00  0.00    +0.000 C 
ATOM     19  C   UNL     1       7.666   5.912  18.249  0.00  0.00    +0.000 C 
ATOM     20  C   UNL     1       7.249   6.769  17.070  0.00  0.00    +0.000 C 
ATOM     21  C   UNL     1       6.409   5.858  16.189  0.00  0.00    +0.000 C 
ENDBRANCH   8  17
TORSDOF 2
ENDMDL
MODEL 4
REMARK VINA RESULT:      -6.7      1.303      1.821
REMARK  Name = 
REMARK  2 active torsions:
REMARK  status: ('A' for Active; 'I' for Inactive)
REMARK    1  A    between atoms: C_2  and  C_3
REMARK    2  A    between atoms: C_15  and  N_16
REMARK                            x       y       z     vdW  Elec       q    Type
REMARK                         _______ _______ _______ _____ _____    ______ ____
ROOT
ATOM      1  O   UNL     1       3.659   7.990  17.535  0.00  0.00    +0.000 OA
ATOM      2  C   UNL     1       2.935   7.284  18.240  0.00  0.00    +0.000 C 
ATOM      3  N   UNL     1       2.969   5.877  18.166  0.00  0.00    +0.000 N 
ATOM      4  C   UNL     1       2.037   4.950  18.807  0.00  0.00    +0.000 C 
ATOM      5  C   UNL     1       2.613   4.363  20.098  0.00  0.00    +0.000 C 
ATOM      6  C   UNL     1       3.761   3.386  19.916  0.00  0.00    +0.000 C 
ATOM      7  C   UNL     1       4.919   3.957  19.093  0.00  0.00    +0.000 C 
ATOM      8  C   UNL     1       4.594   3.931  17.576  0.00  0.00    +0.000 C 
ATOM      9  C   UNL     1       3.889   5.278  17.178  0.00  0.00    +0.000 C 
ENDROOT
BRANCH   2  10
ATOM     10  C   UNL     1       1.988   8.028  19.146  0.00  0.00    +0.000 A 
ATOM     11  C   UNL     1       1.788   7.736  20.500  0.00  0.00    +0.000 A 
ATOM     12  C   UNL     1       0.856   8.425  21.275  0.00  0.00    +0.000 A 
ATOM     13  C   UNL     1       0.154   9.485  20.722  0.00  0.00    +0.000 A 
ATOM     14  C   UNL     1       0.410   9.844  19.404  0.00  0.00    +0.000 A 
ATOM     15  F   UNL     1      -0.230  10.901  18.884  0.00  0.00    +0.000 F 
ATOM     16  C   UNL     1       1.309   9.133  18.615  0.00  0.00    +0.000 A 
ENDBRANCH   2  10
BRANCH   8  17
ATOM     17  N   UNL     1       5.819   3.699  16.761  0.00  0.00    +0.000 NA
ATOM     18  C   UNL     1       6.993   4.466  17.217  0.00  0.00    +0.000 C 
ATOM     19  C   UNL     1       6.905   5.811  16.517  0.00  0.00    +0.000 C 
ATOM     20  C   UNL     1       6.193   5.515  15.212  0.00  0.00    +0.000 C 
ATOM     21  C   UNL     1       5.692   4.085  15.343  0.00  0.00    +0.000 C 
ENDBRANCH   8  17
TORSDOF 2
ENDMDL
MODEL 5
REMARK VINA RESULT:      -6.7      2.120      3.721
REMARK  Name = 
REMARK  2 active torsions:
REMARK  status: ('A' for Active; 'I' for Inactive)
REMARK    1  A    between atoms: C_2  and  C_3
REMARK    2  A    between atoms: C_15  and  N_16
REMARK                            x       y       z     vdW  Elec       q    Type
REMARK                         _______ _______ _______ _____ _____    ______ ____
ROOT
ATOM      1  O   UNL     1       1.550   6.277  20.545  0.00  0.00    +0.000 OA
ATOM      2  C   UNL     1       2.291   6.828  19.729  0.00  0.00    +0.000 C 
ATOM      3  N   UNL     1       3.450   6.199  19.233  0.00  0.00    +0.000 N 
ATOM      4  C   UNL     1       4.493   6.818  18.417  0.00  0.00    +0.000 C 
ATOM      5  C   UNL     1       4.326   6.489  16.931  0.00  0.00    +0.000 C 
ATOM      6  C   UNL     1       4.610   5.048  16.545  0.00  0.00    +0.000 C 
ATOM      7  C   UNL     1       3.798   4.032  17.353  0.00  0.00    +0.000 C 
ATOM      8  C   UNL     1       4.407   3.824  18.765  0.00  0.00    +0.000 C 
ATOM      9  C   UNL     1       3.763   4.855  19.760  0.00  0.00    +0.000 C 
ENDROOT
BRANCH   2  10
ATOM     10  C   UNL     1       1.895   8.229  19.336  0.00  0.00    +0.000 A 
ATOM     11  C   UNL     1       2.094   8.787  18.069  0.00  0.00    +0.000 A 
ATOM     12  C   UNL     1       1.756  10.109  17.782  0.00  0.00    +0.000 A 
ATOM     13  C   UNL     1       1.132  10.882  18.748  0.00  0.00    +0.000 A 
ATOM     14  C   UNL     1       0.845  10.311  19.982  0.00  0.00    +0.000 A 
ATOM     15  F   UNL     1       0.195  11.042  20.899  0.00  0.00    +0.000 F 
ATOM     16  C   UNL     1       1.218   9.005  20.287  0.00  0.00    +0.000 A 
ENDBRANCH   2  10
BRANCH   8  17
ATOM     17  N   UNL     1       4.220   2.424  19.237  0.00  0.00    +0.000 NA
ATOM     18  C   UNL     1       3.333   1.619  18.377  0.00  0.00    +0.000 C 
ATOM     19  C   UNL     1       1.924   1.871  18.884  0.00  0.00    +0.000 C 
ATOM     20  C   UNL     1       2.097   2.161  20.362  0.00  0.00    +0.000 C 
ATOM     21  C   UNL     1       3.597   2.307  20.569  0.00  0.00    +0.000 C 
ENDBRANCH   8  17
TORSDOF 2
ENDMDL
MODEL 6
REMARK VINA RESULT:      -6.5      0.886      1.117
REMARK  Name = 
REMARK  2 active torsions:
REMARK  status: ('A' for Active; 'I' for Inactive)
REMARK    1  A    between atoms: C_2  and  C_3
REMARK    2  A    between atoms: C_15  and  N_16
REMARK                            x       y       z     vdW  Elec       q    Type
REMARK                         _______ _______ _______ _____ _____    ______ ____
ROOT
ATOM      1  O   UNL     1       3.937   8.106  17.359  0.00  0.00    +0.000 OA
ATOM      2  C   UNL     1       3.080   7.453  17.957  0.00  0.00    +0.000 C 
ATOM      3  N   UNL     1       3.059   6.044  17.922  0.00  0.00    +0.000 N 
ATOM      4  C   UNL     1       1.996   5.178  18.430  0.00  0.00    +0.000 C 
ATOM      5  C   UNL     1       2.337   4.606  19.809  0.00  0.00    +0.000 C 
ATOM      6  C   UNL     1       3.452   3.575  19.831  0.00  0.00    +0.000 C 
ATOM      7  C   UNL     1       4.749   4.071  19.186  0.00  0.00    +0.000 C 
ATOM      8  C   UNL     1       4.663   4.014  17.638  0.00  0.00    +0.000 C 
ATOM      9  C   UNL     1       4.092   5.377  17.104  0.00  0.00    +0.000 C 
ENDROOT
BRANCH   2  10
ATOM     10  C   UNL     1       2.040   8.263  18.687  0.00  0.00    +0.000 A 
ATOM     11  C   UNL     1       1.169   9.174  18.080  0.00  0.00    +0.000 A 
ATOM     12  C   UNL     1       0.264   9.937  18.817  0.00  0.00    +0.000 A 
ATOM     13  C   UNL     1       0.158   9.741  20.185  0.00  0.00    +0.000 A 
ATOM     14  C   UNL     1       0.952   8.774  20.788  0.00  0.00    +0.000 A 
ATOM     15  F   UNL     1       0.813   8.548  22.102  0.00  0.00    +0.000 F 
ATOM     16  C   UNL     1       1.886   8.039  20.063  0.00  0.00    +0.000 A 
ENDBRANCH   2  10
BRANCH   8  17
ATOM     17  N   UNL     1       5.987   3.705  17.031  0.00  0.00    +0.000 NA
ATOM     18  C   UNL     1       7.077   4.580  17.501  0.00  0.00    +0.000 C 
ATOM     19  C   UNL     1       7.055   5.794  16.588  0.00  0.00    +0.000 C 
ATOM     20  C   UNL     1       6.524   5.269  15.269  0.00  0.00    +0.000 C 
ATOM     21  C   UNL     1       6.037   3.859  15.565  0.00  0.00    +0.000 C 
ENDBRANCH   8  17
TORSDOF 2
ENDMDL
MODEL 7
REMARK VINA RESULT:      -6.5      1.140      1.666
REMARK  Name = 
REMARK  2 active torsions:
REMARK  status: ('A' for Active; 'I' for Inactive)
REMARK    1  A    between atoms: C_2  and  C_3
REMARK    2  A    between atoms: C_15  and  N_16
REMARK                            x       y       z     vdW  Elec       q    Type
REMARK                         _______ _______ _______ _____ _____    ______ ____
ROOT
ATOM      1  O   UNL     1       2.688   9.800  17.524  0.00  0.00    +0.000 OA
ATOM      2  C   UNL     1       2.231   8.888  18.217  0.00  0.00    +0.000 C 
ATOM      3  N   UNL     1       2.601   7.544  18.013  0.00  0.00    +0.000 N 
ATOM      4  C   UNL     1       1.991   6.371  18.638  0.00  0.00    +0.000 C 
ATOM      5  C   UNL     1       2.817   5.861  19.822  0.00  0.00    +0.000 C 
ATOM      6  C   UNL     1       4.146   5.218  19.463  0.00  0.00    +0.000 C 
ATOM      7  C   UNL     1       5.042   6.117  18.607  0.00  0.00    +0.000 C 
ATOM      8  C   UNL     1       4.586   6.114  17.124  0.00  0.00    +0.000 C 
ATOM      9  C   UNL     1       3.538   7.264  16.906  0.00  0.00    +0.000 C 
ENDROOT
BRANCH   2  10
ATOM     10  C   UNL     1       1.225   9.306  19.258  0.00  0.00    +0.000 A 
ATOM     11  C   UNL     1       0.027   9.974  18.985  0.00  0.00    +0.000 A 
ATOM     12  C   UNL     1      -0.839  10.384  19.998  0.00  0.00    +0.000 A 
ATOM     13  C   UNL     1      -0.555  10.059  21.315  0.00  0.00    +0.000 A 
ATOM     14  C   UNL     1       0.585   9.316  21.592  0.00  0.00    +0.000 A 
ATOM     15  F   UNL     1       0.834   8.958  22.860  0.00  0.00    +0.000 F 
ATOM     16  C   UNL     1       1.474   8.940  20.588  0.00  0.00    +0.000 A 
ENDBRANCH   2  10
BRANCH   8  17
ATOM     17  N   UNL     1       5.744   6.253  16.198  0.00  0.00    +0.000 NA
ATOM     18  C   UNL     1       5.674   5.371  15.019  0.00  0.00    +0.000 C 
ATOM     19  C   UNL     1       6.304   4.057  15.447  0.00  0.00    +0.000 C 
ATOM     20  C   UNL     1       7.323   4.449  16.500  0.00  0.00    +0.000 C 
ATOM     21  C   UNL     1       7.049   5.915  16.797  0.00  0.00    +0.000 C 
ENDBRANCH   8  17
TORSDOF 2
ENDMDL
MODEL 8
REMARK VINA RESULT:      -6.4      7.974     10.638
REMARK  Name = 
REMARK  2 active torsions:
REMARK  status: ('A' for Active; 'I' for Inactive)
REMARK    1  A    between atoms: C_2  and  C_3
REMARK    2  A    between atoms: C_15  and  N_16
REMARK                            x       y       z     vdW  Elec       q    Type
REMARK                         _______ _______ _______ _____ _____    ______ ____
ROOT
ATOM      1  O   UNL     1       7.488  12.474  16.947  0.00  0.00    +0.000 OA
ATOM      2  C   UNL     1       8.076  13.297  17.651  0.00  0.00    +0.000 C 
ATOM      3  N   UNL     1       7.445  14.474  18.103  0.00  0.00    +0.000 N 
ATOM      4  C   UNL     1       8.089  15.601  18.776  0.00  0.00    +0.000 C 
ATOM      5  C   UNL     1       7.888  15.550  20.293  0.00  0.00    +0.000 C 
ATOM      6  C   UNL     1       6.473  15.820  20.774  0.00  0.00    +0.000 C 
ATOM      7  C   UNL     1       5.427  14.912  20.123  0.00  0.00    +0.000 C 
ATOM      8  C   UNL     1       5.082  15.393  18.689  0.00  0.00    +0.000 C 
ATOM      9  C   UNL     1       6.053  14.700  17.666  0.00  0.00    +0.000 C 
ENDROOT
BRANCH   2  10
ATOM     10  C   UNL     1       9.517  12.980  17.955  0.00  0.00    +0.000 A 
ATOM     11  C   UNL     1      10.591  13.259  17.103  0.00  0.00    +0.000 A 
ATOM     12  C   UNL     1      11.899  12.891  17.416  0.00  0.00    +0.000 A 
ATOM     13  C   UNL     1      12.170  12.299  18.640  0.00  0.00    +0.000 A 
ATOM     14  C   UNL     1      11.126  12.098  19.534  0.00  0.00    +0.000 A 
ATOM     15  F   UNL     1      11.394  11.573  20.738  0.00  0.00    +0.000 F 
ATOM     16  C   UNL     1       9.812  12.427  19.209  0.00  0.00    +0.000 A 
ENDBRANCH   2  10
BRANCH   8  17
ATOM     17  N   UNL     1       3.656  15.123  18.353  0.00  0.00    +0.000 NA
ATOM     18  C   UNL     1       3.003  16.215  17.608  0.00  0.00    +0.000 C 
ATOM     19  C   UNL     1       2.468  17.171  18.659  0.00  0.00    +0.000 C 
ATOM     20  C   UNL     1       2.169  16.291  19.857  0.00  0.00    +0.000 C 
ATOM     21  C   UNL     1       2.777  14.938  19.523  0.00  0.00    +0.000 C 
ENDBRANCH   8  17
TORSDOF 2
ENDMDL
MODEL 9
REMARK VINA RESULT:      -6.4      3.260      6.778
REMARK  Name = 
REMARK  2 active torsions:
REMARK  status: ('A' for Active; 'I' for Inactive)
REMARK    1  A    between atoms: C_2  and  C_3
REMARK    2  A    between atoms: C_15  and  N_16
REMARK                            x       y       z     vdW  Elec       q    Type
REMARK                         _______ _______ _______ _____ _____    ______ ____
ROOT
ATOM      1  O   UNL     1       2.295   6.959  17.843  0.00  0.00    +0.000 OA
ATOM      2  C   UNL     1       2.085   6.902  19.056  0.00  0.00    +0.000 C 
ATOM      3  N   UNL     1       1.825   8.057  19.821  0.00  0.00    +0.000 N 
ATOM      4  C   UNL     1       1.750   8.134  21.280  0.00  0.00    +0.000 C 
ATOM      5  C   UNL     1       0.302   8.130  21.777  0.00  0.00    +0.000 C 
ATOM      6  C   UNL     1      -0.496   9.387  21.476  0.00  0.00    +0.000 C 
ATOM      7  C   UNL     1      -0.502   9.760  19.991  0.00  0.00    +0.000 C 
ATOM      8  C   UNL     1       0.826  10.448  19.581  0.00  0.00    +0.000 C 
ATOM      9  C   UNL     1       1.850   9.352  19.113  0.00  0.00    +0.000 C 
ENDROOT
BRANCH   2  10
ATOM     10  C   UNL     1       2.168   5.526  19.665  0.00  0.00    +0.000 A 
ATOM     11  C   UNL     1       1.111   4.876  20.310  0.00  0.00    +0.000 A 
ATOM     12  C   UNL     1       1.264   3.623  20.903  0.00  0.00    +0.000 A 
ATOM     13  C   UNL     1       2.473   2.955  20.790  0.00  0.00    +0.000 A 
ATOM     14  C   UNL     1       3.504   3.549  20.072  0.00  0.00    +0.000 A 
ATOM     15  F   UNL     1       4.656   2.882  19.918  0.00  0.00    +0.000 F 
ATOM     16  C   UNL     1       3.368   4.818  19.514  0.00  0.00    +0.000 A 
ENDBRANCH   2  10
BRANCH   8  17
ATOM     17  N   UNL     1       0.605  11.472  18.522  0.00  0.00    +0.000 NA
ATOM     18  C   UNL     1       1.498  12.641  18.627  0.00  0.00    +0.000 C 
ATOM     19  C   UNL     1       0.802  13.610  19.567  0.00  0.00    +0.000 C 
ATOM     20  C   UNL     1      -0.676  13.338  19.368  0.00  0.00    +0.000 C 
ATOM     21  C   UNL     1      -0.742  12.073  18.525  0.00  0.00    +0.000 C 
ENDBRANCH   8  17
TORSDOF 2
ENDMDL
