MODEL 1
REMARK VINA RESULT:      -7.5      0.000      0.000
REMARK  Name = 
REMARK  8 active torsions:
REMARK  status: ('A' for Active; 'I' for Inactive)
REMARK    1  A    between atoms: C_1  and  C_2
REMARK    2  A    between atoms: C_2  and  O_3
REMARK    3  A    between atoms: O_3  and  C_4
REMARK    4  A    between atoms: C_4  and  C_6
REMARK    5  A    between atoms: C_6  and  N_7
REMARK    6  A    between atoms: C_9  and  C_10
REMARK    7  A    between atoms: C_11  and  C_12
REMARK    8  A    between atoms: C_18  and  N_19
REMARK                            x       y       z     vdW  Elec       q    Type
REMARK                         _______ _______ _______ _____ _____    ______ ____
ROOT
ATOM      1  N   UNL     1       4.772   5.770  16.664  0.00  0.00    +0.000 N 
ATOM      2  N   UNL     1       4.149   6.926  16.962  0.00  0.00    +0.000 NA
ATOM      3  C   UNL     1       3.267   6.584  17.909  0.00  0.00    +0.000 A 
ATOM      4  C   UNL     1       2.434   7.649  18.525  0.00  0.00    +0.000 C 
ATOM      5  C   UNL     1       3.292   5.179  18.187  0.00  0.00    +0.000 A 
ATOM      6  C   UNL     1       4.247   4.677  17.311  0.00  0.00    +0.000 A 
ENDROOT
BRANCH   5   7
ATOM      7  C   UNL     1       2.545   4.395  19.171  0.00  0.00    +0.000 A 
ATOM      8  C   UNL     1       1.500   3.548  18.775  0.00  0.00    +0.000 A 
ATOM      9  C   UNL     1       0.754   2.834  19.719  0.00  0.00    +0.000 A 
ATOM     10  C   UNL     1       1.063   2.931  21.072  0.00  0.00    +0.000 A 
ATOM     11  C   UNL     1       2.101   3.762  21.485  0.00  0.00    +0.000 A 
ATOM     12  C   UNL     1       2.818   4.505  20.543  0.00  0.00    +0.000 A 
ENDBRANCH   5   7
BRANCH   6  13
ATOM     13  N   UNL     1       4.662   3.415  17.037  0.00  0.00    +0.000 N 
ATOM     14  H   UNL     1       5.207   3.241  16.195  0.00  0.00    +0.000 HD
ATOM     15  H   UNL     1       4.106   2.606  17.302  0.00  0.00    +0.000 HD
ENDBRANCH   6  13
BRANCH   1  16
ATOM     16  C   UNL     1       5.848   5.796  15.701  0.00  0.00    +0.000 C 
BRANCH  16  17
ATOM     17  C   UNL     1       7.174   5.648  16.393  0.00  0.00    +0.000 C 
ATOM     18  O   UNL     1       7.691   4.597  16.744  0.00  0.00    +0.000 OA
BRANCH  17  19
ATOM     19  O   UNL     1       7.737   6.884  16.555  0.00  0.00    +0.000 OA
BRANCH  19  21
ATOM     20  C   UNL     1       8.015   8.871  17.842  0.00  0.00    +0.000 C 
ATOM     21  C   UNL     1       7.767   7.375  17.902  0.00  0.00    +0.000 C 
ENDBRANCH  19  21
ENDBRANCH  17  19
ENDBRANCH  16  17
ENDBRANCH   1  16
TORSDOF 6
ENDMDL
MODEL 2
REMARK VINA RESULT:      -7.3      1.338      1.813
REMARK  Name = 
REMARK  8 active torsions:
REMARK  status: ('A' for Active; 'I' for Inactive)
REMARK    1  A    between atoms: C_1  and  C_2
REMARK    2  A    between atoms: C_2  and  O_3
REMARK    3  A    between atoms: O_3  and  C_4
REMARK    4  A    between atoms: C_4  and  C_6
REMARK    5  A    between atoms: C_6  and  N_7
REMARK    6  A    between atoms: C_9  and  C_10
REMARK    7  A    between atoms: C_11  and  C_12
REMARK    8  A    between atoms: C_18  and  N_19
REMARK                            x       y       z     vdW  Elec       q    Type
REMARK                         _______ _______ _______ _____ _____    ______ ____
ROOT
ATOM      1  N   UNL     1       5.656   6.034  17.727  0.00  0.00    +0.000 N 
ATOM      2  N   UNL     1       4.848   7.083  17.486  0.00  0.00    +0.000 NA
ATOM      3  C   UNL     1       3.640   6.658  17.876  0.00  0.00    +0.000 A 
ATOM      4  C   UNL     1       2.497   7.604  17.806  0.00  0.00    +0.000 C 
ATOM      5  C   UNL     1       3.666   5.300  18.327  0.00  0.00    +0.000 A 
ATOM      6  C   UNL     1       4.990   4.911  18.158  0.00  0.00    +0.000 A 
ENDROOT
BRANCH   5   7
ATOM      7  C   UNL     1       2.600   4.465  18.881  0.00  0.00    +0.000 A 
ATOM      8  C   UNL     1       2.195   4.603  20.216  0.00  0.00    +0.000 A 
ATOM      9  C   UNL     1       1.209   3.773  20.760  0.00  0.00    +0.000 A 
ATOM     10  C   UNL     1       0.587   2.815  19.966  0.00  0.00    +0.000 A 
ATOM     11  C   UNL     1       0.970   2.666  18.636  0.00  0.00    +0.000 A 
ATOM     12  C   UNL     1       1.985   3.468  18.107  0.00  0.00    +0.000 A 
ENDBRANCH   5   7
BRANCH   6  13
ATOM     13  N   UNL     1       5.623   3.723  18.326  0.00  0.00    +0.000 N 
ATOM     14  H   UNL     1       6.639   3.688  18.278  0.00  0.00    +0.000 HD
ATOM     15  H   UNL     1       5.199   2.851  18.021  0.00  0.00    +0.000 HD
ENDBRANCH   6  13
BRANCH   1  16
ATOM     16  C   UNL     1       7.070   6.180  17.470  0.00  0.00    +0.000 C 
BRANCH  16  17
ATOM     17  C   UNL     1       7.827   6.303  18.763  0.00  0.00    +0.000 C 
ATOM     18  O   UNL     1       7.857   5.475  19.663  0.00  0.00    +0.000 OA
BRANCH  17  19
ATOM     19  O   UNL     1       8.506   7.489  18.774  0.00  0.00    +0.000 OA
BRANCH  19  21
ATOM     20  C   UNL     1       8.632   9.809  18.239  0.00  0.00    +0.000 C 
ATOM     21  C   UNL     1       8.050   8.469  17.830  0.00  0.00    +0.000 C 
ENDBRANCH  19  21
ENDBRANCH  17  19
ENDBRANCH  16  17
ENDBRANCH   1  16
TORSDOF 6
ENDMDL
MODEL 3
REMARK VINA RESULT:      -7.2      1.217      2.194
REMARK  Name = 
REMARK  8 active torsions:
REMARK  status: ('A' for Active; 'I' for Inactive)
REMARK    1  A    between atoms: C_1  and  C_2
REMARK    2  A    between atoms: C_2  and  O_3
REMARK    3  A    between atoms: O_3  and  C_4
REMARK    4  A    between atoms: C_4  and  C_6
REMARK    5  A    between atoms: C_6  and  N_7
REMARK    6  A    between atoms: C_9  and  C_10
REMARK    7  A    between atoms: C_11  and  C_12
REMARK    8  A    between atoms: C_18  and  N_19
REMARK                            x       y       z     vdW  Elec       q    Type
REMARK                         _______ _______ _______ _____ _____    ______ ____
ROOT
ATOM      1  N   UNL     1       5.441   6.156  17.599  0.00  0.00    +0.000 N 
ATOM      2  N   UNL     1       4.509   7.106  17.396  0.00  0.00    +0.000 NA
ATOM      3  C   UNL     1       3.422   6.632  18.017  0.00  0.00    +0.000 A 
ATOM      4  C   UNL     1       2.197   7.471  18.048  0.00  0.00    +0.000 C 
ATOM      5  C   UNL     1       3.648   5.336  18.583  0.00  0.00    +0.000 A 
ATOM      6  C   UNL     1       4.960   5.037  18.236  0.00  0.00    +0.000 A 
ENDROOT
BRANCH   5   7
ATOM      7  C   UNL     1       2.764   4.484  19.381  0.00  0.00    +0.000 A 
ATOM      8  C   UNL     1       1.754   3.724  18.775  0.00  0.00    +0.000 A 
ATOM      9  C   UNL     1       0.879   2.947  19.541  0.00  0.00    +0.000 A 
ATOM     10  C   UNL     1       1.023   2.891  20.924  0.00  0.00    +0.000 A 
ATOM     11  C   UNL     1       2.023   3.634  21.544  0.00  0.00    +0.000 A 
ATOM     12  C   UNL     1       2.870   4.442  20.780  0.00  0.00    +0.000 A 
ENDBRANCH   5   7
BRANCH   6  13
ATOM     13  N   UNL     1       5.722   3.928  18.409  0.00  0.00    +0.000 N 
ATOM     14  H   UNL     1       6.364   3.645  17.672  0.00  0.00    +0.000 HD
ATOM     15  H   UNL     1       5.382   3.132  18.943  0.00  0.00    +0.000 HD
ENDBRANCH   6  13
BRANCH   1  16
ATOM     16  C   UNL     1       6.778   6.385  17.101  0.00  0.00    +0.000 C 
BRANCH  16  17
ATOM     17  C   UNL     1       7.151   5.328  16.099  0.00  0.00    +0.000 C 
ATOM     18  O   UNL     1       7.949   4.418  16.274  0.00  0.00    +0.000 OA
BRANCH  17  19
ATOM     19  O   UNL     1       6.433   5.523  14.952  0.00  0.00    +0.000 OA
BRANCH  19  21
ATOM     20  C   UNL     1       6.235   3.830  13.285  0.00  0.00    +0.000 C 
ATOM     21  C   UNL     1       5.617   4.417  14.540  0.00  0.00    +0.000 C 
ENDBRANCH  19  21
ENDBRANCH  17  19
ENDBRANCH  16  17
ENDBRANCH   1  16
TORSDOF 6
ENDMDL
MODEL 4
REMARK VINA RESULT:      -7.2      1.259      1.403
REMARK  Name = 
REMARK  8 active torsions:
REMARK  status: ('A' for Active; 'I' for Inactive)
REMARK    1  A    between atoms: C_1  and  C_2
REMARK    2  A    between atoms: C_2  and  O_3
REMARK    3  A    between atoms: O_3  and  C_4
REMARK    4  A    between atoms: C_4  and  C_6
REMARK    5  A    between atoms: C_6  and  N_7
REMARK    6  A    between atoms: C_9  and  C_10
REMARK    7  A    between atoms: C_11  and  C_12
REMARK    8  A    between atoms: C_18  and  N_19
REMARK                            x       y       z     vdW  Elec       q    Type
REMARK                         _______ _______ _______ _____ _____    ______ ____
ROOT
ATOM      1  N   UNL     1       5.657   6.092  17.629  0.00  0.00    +0.000 N 
ATOM      2  N   UNL     1       4.799   7.110  17.426  0.00  0.00    +0.000 NA
ATOM      3  C   UNL     1       3.626   6.637  17.862  0.00  0.00    +0.000 A 
ATOM      4  C   UNL     1       2.444   7.537  17.844  0.00  0.00    +0.000 C 
ATOM      5  C   UNL     1       3.723   5.279  18.306  0.00  0.00    +0.000 A 
ATOM      6  C   UNL     1       5.054   4.943  18.081  0.00  0.00    +0.000 A 
ENDROOT
BRANCH   5   7
ATOM      7  C   UNL     1       2.714   4.402  18.899  0.00  0.00    +0.000 A 
ATOM      8  C   UNL     1       1.953   3.535  18.102  0.00  0.00    +0.000 A 
ATOM      9  C   UNL     1       0.955   2.730  18.662  0.00  0.00    +0.000 A 
ATOM     10  C   UNL     1       0.725   2.756  20.034  0.00  0.00    +0.000 A 
ATOM     11  C   UNL     1       1.474   3.605  20.843  0.00  0.00    +0.000 A 
ATOM     12  C   UNL     1       2.442   4.438  20.276  0.00  0.00    +0.000 A 
ENDBRANCH   5   7
BRANCH   6  13
ATOM     13  N   UNL     1       5.738   3.780  18.218  0.00  0.00    +0.000 N 
ATOM     14  H   UNL     1       5.431   2.957  17.705  0.00  0.00    +0.000 HD
ATOM     15  H   UNL     1       6.191   3.534  19.095  0.00  0.00    +0.000 HD
ENDBRANCH   6  13
BRANCH   1  16
ATOM     16  C   UNL     1       7.053   6.294  17.316  0.00  0.00    +0.000 C 
BRANCH  16  17
ATOM     17  C   UNL     1       7.875   6.304  18.575  0.00  0.00    +0.000 C 
ATOM     18  O   UNL     1       8.084   5.347  19.306  0.00  0.00    +0.000 OA
BRANCH  17  19
ATOM     19  O   UNL     1       8.383   7.558  18.770  0.00  0.00    +0.000 OA
BRANCH  19  21
ATOM     20  C   UNL     1       8.575   9.868  18.211  0.00  0.00    +0.000 C 
ATOM     21  C   UNL     1       8.071   8.514  17.746  0.00  0.00    +0.000 C 
ENDBRANCH  19  21
ENDBRANCH  17  19
ENDBRANCH  16  17
ENDBRANCH   1  16
TORSDOF 6
ENDMDL
MODEL 5
REMARK VINA RESULT:      -7.0      1.967      3.206
REMARK  Name = 
REMARK  8 active torsions:
REMARK  status: ('A' for Active; 'I' for Inactive)
REMARK    1  A    between atoms: C_1  and  C_2
REMARK    2  A    between atoms: C_2  and  O_3
REMARK    3  A    between atoms: O_3  and  C_4
REMARK    4  A    between atoms: C_4  and  C_6
REMARK    5  A    between atoms: C_6  and  N_7
REMARK    6  A    between atoms: C_9  and  C_10
REMARK    7  A    between atoms: C_11  and  C_12
REMARK    8  A    between atoms: C_18  and  N_19
REMARK                            x       y       z     vdW  Elec       q    Type
REMARK                         _______ _______ _______ _____ _____    ______ ____
ROOT
ATOM      1  N   UNL     1       5.777   5.100  16.516  0.00  0.00    +0.000 N 
ATOM      2  N   UNL     1       5.366   6.382  16.544  0.00  0.00    +0.000 NA
ATOM      3  C   UNL     1       4.239   6.345  17.264  0.00  0.00    +0.000 A 
ATOM      4  C   UNL     1       3.537   7.622  17.553  0.00  0.00    +0.000 C 
ATOM      5  C   UNL     1       3.896   5.012  17.661  0.00  0.00    +0.000 A 
ATOM      6  C   UNL     1       4.895   4.224  17.101  0.00  0.00    +0.000 A 
ENDROOT
BRANCH   5   7
ATOM      7  C   UNL     1       2.792   4.525  18.488  0.00  0.00    +0.000 A 
ATOM      8  C   UNL     1       2.671   4.909  19.831  0.00  0.00    +0.000 A 
ATOM      9  C   UNL     1       1.643   4.406  20.635  0.00  0.00    +0.000 A 
ATOM     10  C   UNL     1       0.699   3.536  20.098  0.00  0.00    +0.000 A 
ATOM     11  C   UNL     1       0.797   3.148  18.766  0.00  0.00    +0.000 A 
ATOM     12  C   UNL     1       1.849   3.619  17.976  0.00  0.00    +0.000 A 
ENDBRANCH   5   7
BRANCH   6  13
ATOM     13  N   UNL     1       5.080   2.881  17.052  0.00  0.00    +0.000 N 
ATOM     14  H   UNL     1       5.676   2.486  16.328  0.00  0.00    +0.000 HD
ATOM     15  H   UNL     1       4.346   2.236  17.332  0.00  0.00    +0.000 HD
ENDBRANCH   6  13
BRANCH   1  16
ATOM     16  C   UNL     1       7.025   4.791  15.857  0.00  0.00    +0.000 C 
BRANCH  16  17
ATOM     17  C   UNL     1       6.858   4.852  14.364  0.00  0.00    +0.000 C 
ATOM     18  O   UNL     1       7.425   5.625  13.605  0.00  0.00    +0.000 OA
BRANCH  17  19
ATOM     19  O   UNL     1       5.978   3.882  13.971  0.00  0.00    +0.000 OA
BRANCH  19  21
ATOM     20  C   UNL     1       4.802   3.393  11.956  0.00  0.00    +0.000 C 
ATOM     21  C   UNL     1       6.159   3.391  12.635  0.00  0.00    +0.000 C 
ENDBRANCH  19  21
ENDBRANCH  17  19
ENDBRANCH  16  17
ENDBRANCH   1  16
TORSDOF 6
ENDMDL
MODEL 6
REMARK VINA RESULT:      -7.0      0.775      1.475
REMARK  Name = 
REMARK  8 active torsions:
REMARK  status: ('A' for Active; 'I' for Inactive)
REMARK    1  A    between atoms: C_1  and  C_2
REMARK    2  A    between atoms: C_2  and  O_3
REMARK    3  A    between atoms: O_3  and  C_4
REMARK    4  A    between atoms: C_4  and  C_6
REMARK    5  A    between atoms: C_6  and  N_7
REMARK    6  A    between atoms: C_9  and  C_10
REMARK    7  A    between atoms: C_11  and  C_12
REMARK    8  A    between atoms: C_18  and  N_19
REMARK                            x       y       z     vdW  Elec       q    Type
REMARK                         _______ _______ _______ _____ _____    ______ ____
ROOT
ATOM      1  N   UNL     1       4.790   5.788  16.713  0.00  0.00    +0.000 N 
ATOM      2  N   UNL     1       4.146   6.942  16.967  0.00  0.00    +0.000 NA
ATOM      3  C   UNL     1       3.230   6.607  17.884  0.00  0.00    +0.000 A 
ATOM      4  C   UNL     1       2.364   7.674  18.447  0.00  0.00    +0.000 C 
ATOM      5  C   UNL     1       3.257   5.208  18.187  0.00  0.00    +0.000 A 
ATOM      6  C   UNL     1       4.251   4.700  17.357  0.00  0.00    +0.000 A 
ENDROOT
BRANCH   5   7
ATOM      7  C   UNL     1       2.479   4.433  19.153  0.00  0.00    +0.000 A 
ATOM      8  C   UNL     1       2.771   4.484  20.523  0.00  0.00    +0.000 A 
ATOM      9  C   UNL     1       2.058   3.708  21.442  0.00  0.00    +0.000 A 
ATOM     10  C   UNL     1       1.018   2.892  21.009  0.00  0.00    +0.000 A 
ATOM     11  C   UNL     1       0.707   2.832  19.653  0.00  0.00    +0.000 A 
ATOM     12  C   UNL     1       1.448   3.577  18.733  0.00  0.00    +0.000 A 
ENDBRANCH   5   7
BRANCH   6  13
ATOM     13  N   UNL     1       4.688   3.438  17.122  0.00  0.00    +0.000 N 
ATOM     14  H   UNL     1       4.724   3.093  16.165  0.00  0.00    +0.000 HD
ATOM     15  H   UNL     1       4.522   2.688  17.788  0.00  0.00    +0.000 HD
ENDBRANCH   6  13
BRANCH   1  16
ATOM     16  C   UNL     1       5.904   5.808  15.792  0.00  0.00    +0.000 C 
BRANCH  16  17
ATOM     17  C   UNL     1       7.186   5.499  16.515  0.00  0.00    +0.000 C 
ATOM     18  O   UNL     1       7.879   4.504  16.361  0.00  0.00    +0.000 OA
BRANCH  17  19
ATOM     19  O   UNL     1       7.479   6.528  17.367  0.00  0.00    +0.000 OA
BRANCH  19  21
ATOM     20  C   UNL     1       6.850   5.560  19.452  0.00  0.00    +0.000 C 
ATOM     21  C   UNL     1       7.998   6.138  18.646  0.00  0.00    +0.000 C 
ENDBRANCH  19  21
ENDBRANCH  17  19
ENDBRANCH  16  17
ENDBRANCH   1  16
TORSDOF 6
ENDMDL
MODEL 7
REMARK VINA RESULT:      -7.0      1.146      1.788
REMARK  Name = 
REMARK  8 active torsions:
REMARK  status: ('A' for Active; 'I' for Inactive)
REMARK    1  A    between atoms: C_1  and  C_2
REMARK    2  A    between atoms: C_2  and  O_3
REMARK    3  A    between atoms: O_3  and  C_4
REMARK    4  A    between atoms: C_4  and  C_6
REMARK    5  A    between atoms: C_6  and  N_7
REMARK    6  A    between atoms: C_9  and  C_10
REMARK    7  A    between atoms: C_11  and  C_12
REMARK    8  A    between atoms: C_18  and  N_19
REMARK                            x       y       z     vdW  Elec       q    Type
REMARK                         _______ _______ _______ _____ _____    ______ ____
ROOT
ATOM      1  N   UNL     1       4.921   4.540  16.456  0.00  0.00    +0.000 N 
ATOM      2  N   UNL     1       4.507   5.816  16.570  0.00  0.00    +0.000 NA
ATOM      3  C   UNL     1       3.632   5.783  17.582  0.00  0.00    +0.000 A 
ATOM      4  C   UNL     1       3.013   7.058  18.030  0.00  0.00    +0.000 C 
ATOM      5  C   UNL     1       3.446   4.458  18.092  0.00  0.00    +0.000 A 
ATOM      6  C   UNL     1       4.262   3.668  17.289  0.00  0.00    +0.000 A 
ENDROOT
BRANCH   5   7
ATOM      7  C   UNL     1       2.635   3.979  19.211  0.00  0.00    +0.000 A 
ATOM      8  C   UNL     1       3.050   4.167  20.537  0.00  0.00    +0.000 A 
ATOM      9  C   UNL     1       2.298   3.668  21.605  0.00  0.00    +0.000 A 
ATOM     10  C   UNL     1       1.101   3.000  21.365  0.00  0.00    +0.000 A 
ATOM     11  C   UNL     1       0.668   2.808  20.057  0.00  0.00    +0.000 A 
ATOM     12  C   UNL     1       1.442   3.272  18.990  0.00  0.00    +0.000 A 
ENDBRANCH   5   7
BRANCH   6  13
ATOM     13  N   UNL     1       4.455   2.328  17.221  0.00  0.00    +0.000 N 
ATOM     14  H   UNL     1       4.979   1.861  17.959  0.00  0.00    +0.000 HD
ATOM     15  H   UNL     1       4.554   1.853  16.328  0.00  0.00    +0.000 HD
ENDBRANCH   6  13
BRANCH   1  16
ATOM     16  C   UNL     1       5.936   4.230  15.475  0.00  0.00    +0.000 C 
BRANCH  16  17
ATOM     17  C   UNL     1       7.197   4.994  15.770  0.00  0.00    +0.000 C 
ATOM     18  O   UNL     1       7.780   5.747  15.003  0.00  0.00    +0.000 OA
BRANCH  17  19
ATOM     19  O   UNL     1       7.589   4.735  17.053  0.00  0.00    +0.000 OA
BRANCH  19  21
ATOM     20  C   UNL     1       6.956   5.479  19.228  0.00  0.00    +0.000 C 
ATOM     21  C   UNL     1       7.629   5.873  17.926  0.00  0.00    +0.000 C 
ENDBRANCH  19  21
ENDBRANCH  17  19
ENDBRANCH  16  17
ENDBRANCH   1  16
TORSDOF 6
ENDMDL
MODEL 8
REMARK VINA RESULT:      -7.0      2.014      3.062
REMARK  Name = 
REMARK  8 active torsions:
REMARK  status: ('A' for Active; 'I' for Inactive)
REMARK    1  A    between atoms: C_1  and  C_2
REMARK    2  A    between atoms: C_2  and  O_3
REMARK    3  A    between atoms: O_3  and  C_4
REMARK    4  A    between atoms: C_4  and  C_6
REMARK    5  A    between atoms: C_6  and  N_7
REMARK    6  A    between atoms: C_9  and  C_10
REMARK    7  A    between atoms: C_11  and  C_12
REMARK    8  A    between atoms: C_18  and  N_19
REMARK                            x       y       z     vdW  Elec       q    Type
REMARK                         _______ _______ _______ _____ _____    ______ ____
ROOT
ATOM      1  N   UNL     1       5.790   5.071  16.435  0.00  0.00    +0.000 N 
ATOM      2  N   UNL     1       5.379   6.352  16.475  0.00  0.00    +0.000 NA
ATOM      3  C   UNL     1       4.267   6.313  17.219  0.00  0.00    +0.000 A 
ATOM      4  C   UNL     1       3.570   7.589  17.525  0.00  0.00    +0.000 C 
ATOM      5  C   UNL     1       3.935   4.980  17.622  0.00  0.00    +0.000 A 
ATOM      6  C   UNL     1       4.922   4.193  17.039  0.00  0.00    +0.000 A 
ENDROOT
BRANCH   5   7
ATOM      7  C   UNL     1       2.850   4.490  18.472  0.00  0.00    +0.000 A 
ATOM      8  C   UNL     1       1.861   3.637  17.962  0.00  0.00    +0.000 A 
ATOM      9  C   UNL     1       0.797   3.207  18.762  0.00  0.00    +0.000 A 
ATOM     10  C   UNL     1       0.724   3.596  20.096  0.00  0.00    +0.000 A 
ATOM     11  C   UNL     1       1.700   4.437  20.623  0.00  0.00    +0.000 A 
ATOM     12  C   UNL     1       2.739   4.899  19.811  0.00  0.00    +0.000 A 
ENDBRANCH   5   7
BRANCH   6  13
ATOM     13  N   UNL     1       5.107   2.851  16.984  0.00  0.00    +0.000 N 
ATOM     14  H   UNL     1       6.044   2.482  16.835  0.00  0.00    +0.000 HD
ATOM     15  H   UNL     1       4.393   2.234  16.605  0.00  0.00    +0.000 HD
ENDBRANCH   6  13
BRANCH   1  16
ATOM     16  C   UNL     1       7.023   4.764  15.748  0.00  0.00    +0.000 C 
BRANCH  16  17
ATOM     17  C   UNL     1       6.832   4.864  14.260  0.00  0.00    +0.000 C 
ATOM     18  O   UNL     1       7.447   5.601  13.502  0.00  0.00    +0.000 OA
BRANCH  17  19
ATOM     19  O   UNL     1       5.868   3.976  13.871  0.00  0.00    +0.000 OA
BRANCH  19  21
ATOM     20  C   UNL     1       4.725   3.346  11.876  0.00  0.00    +0.000 C 
ATOM     21  C   UNL     1       6.067   3.377  12.582  0.00  0.00    +0.000 C 
ENDBRANCH  19  21
ENDBRANCH  17  19
ENDBRANCH  16  17
ENDBRANCH   1  16
TORSDOF 6
ENDMDL
MODEL 9
REMARK VINA RESULT:      -7.0      0.887      1.298
REMARK  Name = 
REMARK  8 active torsions:
REMARK  status: ('A' for Active; 'I' for Inactive)
REMARK    1  A    between atoms: C_1  and  C_2
REMARK    2  A    between atoms: C_2  and  O_3
REMARK    3  A    between atoms: O_3  and  C_4
REMARK    4  A    between atoms: C_4  and  C_6
REMARK    5  A    between atoms: C_6  and  N_7
REMARK    6  A    between atoms: C_9  and  C_10
REMARK    7  A    between atoms: C_11  and  C_12
REMARK    8  A    between atoms: C_18  and  N_19
REMARK                            x       y       z     vdW  Elec       q    Type
REMARK                         _______ _______ _______ _____ _____    ______ ____
ROOT
ATOM      1  N   UNL     1       4.829   5.747  16.715  0.00  0.00    +0.000 N 
ATOM      2  N   UNL     1       4.175   6.895  16.972  0.00  0.00    +0.000 NA
ATOM      3  C   UNL     1       3.259   6.549  17.885  0.00  0.00    +0.000 A 
ATOM      4  C   UNL     1       2.384   7.607  18.451  0.00  0.00    +0.000 C 
ATOM      5  C   UNL     1       3.296   5.149  18.181  0.00  0.00    +0.000 A 
ATOM      6  C   UNL     1       4.295   4.652  17.352  0.00  0.00    +0.000 A 
ENDROOT
BRANCH   5   7
ATOM      7  C   UNL     1       2.520   4.363  19.141  0.00  0.00    +0.000 A 
ATOM      8  C   UNL     1       1.466   3.542  18.718  0.00  0.00    +0.000 A 
ATOM      9  C   UNL     1       0.693   2.828  19.640  0.00  0.00    +0.000 A 
ATOM     10  C   UNL     1       0.985   2.898  20.998  0.00  0.00    +0.000 A 
ATOM     11  C   UNL     1       2.032   3.703  21.438  0.00  0.00    +0.000 A 
ATOM     12  C   UNL     1       2.776   4.447  20.519  0.00  0.00    +0.000 A 
ENDBRANCH   5   7
BRANCH   6  13
ATOM     13  N   UNL     1       4.742   3.395  17.111  0.00  0.00    +0.000 N 
ATOM     14  H   UNL     1       5.584   3.263  16.554  0.00  0.00    +0.000 HD
ATOM     15  H   UNL     1       4.098   2.614  17.015  0.00  0.00    +0.000 HD
ENDBRANCH   6  13
BRANCH   1  16
ATOM     16  C   UNL     1       5.945   5.780  15.797  0.00  0.00    +0.000 C 
BRANCH  16  17
ATOM     17  C   UNL     1       7.224   6.049  16.539  0.00  0.00    +0.000 C 
ATOM     18  O   UNL     1       7.857   7.095  16.530  0.00  0.00    +0.000 OA
BRANCH  17  19
ATOM     19  O   UNL     1       7.568   4.938  17.259  0.00  0.00    +0.000 OA
BRANCH  19  21
ATOM     20  C   UNL     1       6.850   5.446  19.475  0.00  0.00    +0.000 C 
ATOM     21  C   UNL     1       8.052   5.190  18.586  0.00  0.00    +0.000 C 
ENDBRANCH  19  21
ENDBRANCH  17  19
ENDBRANCH  16  17
ENDBRANCH   1  16
TORSDOF 6
ENDMDL
