MODEL 1
REMARK VINA RESULT:      -8.7      0.000      0.000
REMARK  Name = 
REMARK  4 active torsions:
REMARK  status: ('A' for Active; 'I' for Inactive)
REMARK    1  A    between atoms: C_2  and  C_13
REMARK    2  A    between atoms: N_3  and  C_4
REMARK    3  A    between atoms: C_4  and  C_5
REMARK    4  A    between atoms: C_18  and  C_19
REMARK                            x       y       z     vdW  Elec       q    Type
REMARK                         _______ _______ _______ _____ _____    ______ ____
ROOT
ATOM      1  C   UNL     1       2.528   6.921  19.544  0.00  0.00    +0.000 A 
ATOM      2  C   UNL     1       1.755   7.130  20.798  0.00  0.00    +0.000 A 
ATOM      3  C   UNL     1       1.435   8.411  21.085  0.00  0.00    +0.000 A 
ATOM      4  C   UNL     1       0.809   9.071  19.984  0.00  0.00    +0.000 A 
ATOM      5  N   UNL     1      -0.288   9.772  19.896  0.00  0.00    +0.000 NA
ATOM      6  C   UNL     1      -0.453  10.022  18.553  0.00  0.00    +0.000 A 
ATOM      7  C   UNL     1       0.650   9.585  17.835  0.00  0.00    +0.000 A 
ATOM      8  N   UNL     1       1.365   8.817  18.734  0.00  0.00    +0.000 N 
ATOM      9  C   UNL     1       2.329   7.806  18.540  0.00  0.00    +0.000 A 
ENDROOT
BRANCH   6  10
ATOM     10  C   UNL     1      -1.689  10.631  18.082  0.00  0.00    +0.000 A 
ATOM     11  C   UNL     1      -2.128  10.303  16.780  0.00  0.00    +0.000 A 
ATOM     12  C   UNL     1      -3.351  10.763  16.291  0.00  0.00    +0.000 A 
ATOM     13  C   UNL     1      -4.137  11.562  17.097  0.00  0.00    +0.000 A 
ATOM     14  F   UNL     1      -5.337  11.964  16.660  0.00  0.00    +0.000 F 
ATOM     15  C   UNL     1      -3.699  11.952  18.364  0.00  0.00    +0.000 A 
ATOM     16  C   UNL     1      -2.469  11.496  18.854  0.00  0.00    +0.000 A 
ENDBRANCH   6  10
BRANCH   1  18
ATOM     17  O   UNL     1       2.726   4.579  19.099  0.00  0.00    +0.000 OA
ATOM     18  C   UNL     1       3.274   5.616  19.452  0.00  0.00    +0.000 C 
ATOM     19  N   UNL     1       4.614   5.724  19.653  0.00  0.00    +0.000 N 
ATOM     20  H   UNL     1       5.033   6.619  19.868  0.00  0.00    +0.000 HD
BRANCH  19  21
ATOM     21  C   UNL     1       5.561   4.697  19.256  0.00  0.00    +0.000 C 
BRANCH  21  22
ATOM     22  C   UNL     1       6.217   5.212  18.027  0.00  0.00    +0.000 A 
ATOM     23  N   UNL     1       7.050   6.248  17.979  0.00  0.00    +0.000 NA
ATOM     24  N   UNL     1       7.440   6.456  16.669  0.00  0.00    +0.000 NA
ATOM     25  C   UNL     1       6.829   5.547  15.964  0.00  0.00    +0.000 A 
ATOM     26  N   UNL     1       6.062   4.765  16.766  0.00  0.00    +0.000 N 
ATOM     27  C   UNL     1       5.335   3.754  16.038  0.00  0.00    +0.000 C 
ATOM     28  C   UNL     1       6.039   3.780  14.661  0.00  0.00    +0.000 C 
ATOM     29  C   UNL     1       6.738   5.159  14.552  0.00  0.00    +0.000 C 
ENDBRANCH  21  22
ENDBRANCH  19  21
ENDBRANCH   1  18
TORSDOF 4
ENDMDL
MODEL 2
REMARK VINA RESULT:      -8.5      2.277      3.522
REMARK  Name = 
REMARK  4 active torsions:
REMARK  status: ('A' for Active; 'I' for Inactive)
REMARK    1  A    between atoms: C_2  and  C_13
REMARK    2  A    between atoms: N_3  and  C_4
REMARK    3  A    between atoms: C_4  and  C_5
REMARK    4  A    between atoms: C_18  and  C_19
REMARK                            x       y       z     vdW  Elec       q    Type
REMARK                         _______ _______ _______ _____ _____    ______ ____
ROOT
ATOM      1  C   UNL     1       2.850   7.522  18.440  0.00  0.00    +0.000 A 
ATOM      2  C   UNL     1       2.217   7.166  19.739  0.00  0.00    +0.000 A 
ATOM      3  C   UNL     1       1.806   8.205  20.498  0.00  0.00    +0.000 A 
ATOM      4  C   UNL     1       0.987   9.118  19.766  0.00  0.00    +0.000 A 
ATOM      5  N   UNL     1      -0.177   9.645  20.024  0.00  0.00    +0.000 NA
ATOM      6  C   UNL     1      -0.528  10.329  18.883  0.00  0.00    +0.000 A 
ATOM      7  C   UNL     1       0.517  10.331  17.973  0.00  0.00    +0.000 A 
ATOM      8  N   UNL     1       1.411   9.401  18.471  0.00  0.00    +0.000 N 
ATOM      9  C   UNL     1       2.441   8.669  17.848  0.00  0.00    +0.000 A 
ENDROOT
BRANCH   6  10
ATOM     10  C   UNL     1      -1.868  10.887  18.763  0.00  0.00    +0.000 A 
ATOM     11  C   UNL     1      -2.725  10.335  17.787  0.00  0.00    +0.000 A 
ATOM     12  C   UNL     1      -4.055  10.743  17.675  0.00  0.00    +0.000 A 
ATOM     13  C   UNL     1      -4.531  11.715  18.532  0.00  0.00    +0.000 A 
ATOM     14  F   UNL     1      -5.819  12.075  18.471  0.00  0.00    +0.000 F 
ATOM     15  C   UNL     1      -3.688  12.322  19.464  0.00  0.00    +0.000 A 
ATOM     16  C   UNL     1      -2.353  11.917  19.575  0.00  0.00    +0.000 A 
ENDBRANCH   6  10
BRANCH   1  18
ATOM     17  O   UNL     1       4.921   6.580  17.702  0.00  0.00    +0.000 OA
ATOM     18  C   UNL     1       3.708   6.451  17.821  0.00  0.00    +0.000 C 
ATOM     19  N   UNL     1       3.048   5.295  17.547  0.00  0.00    +0.000 N 
ATOM     20  H   UNL     1       2.057   5.210  17.736  0.00  0.00    +0.000 HD
BRANCH  19  21
ATOM     21  C   UNL     1       3.724   4.034  17.305  0.00  0.00    +0.000 C 
BRANCH  21  22
ATOM     22  C   UNL     1       3.844   3.382  18.634  0.00  0.00    +0.000 A 
ATOM     23  N   UNL     1       4.952   2.826  19.119  0.00  0.00    +0.000 NA
ATOM     24  N   UNL     1       4.683   2.293  20.366  0.00  0.00    +0.000 NA
ATOM     25  C   UNL     1       3.424   2.536  20.596  0.00  0.00    +0.000 A 
ATOM     26  N   UNL     1       2.872   3.201  19.549  0.00  0.00    +0.000 N 
ATOM     27  C   UNL     1       1.468   3.473  19.733  0.00  0.00    +0.000 C 
ATOM     28  C   UNL     1       1.279   3.189  21.241  0.00  0.00    +0.000 C 
ATOM     29  C   UNL     1       2.455   2.272  21.665  0.00  0.00    +0.000 C 
ENDBRANCH  21  22
ENDBRANCH  19  21
ENDBRANCH   1  18
TORSDOF 4
ENDMDL
MODEL 3
REMARK VINA RESULT:      -8.5      1.329      1.735
REMARK  Name = 
REMARK  4 active torsions:
REMARK  status: ('A' for Active; 'I' for Inactive)
REMARK    1  A    between atoms: C_2  and  C_13
REMARK    2  A    between atoms: N_3  and  C_4
REMARK    3  A    between atoms: C_4  and  C_5
REMARK    4  A    between atoms: C_18  and  C_19
REMARK                            x       y       z     vdW  Elec       q    Type
REMARK                         _______ _______ _______ _____ _____    ______ ____
ROOT
ATOM      1  C   UNL     1       3.260   6.585  18.772  0.00  0.00    +0.000 A 
ATOM      2  C   UNL     1       2.435   6.393  19.996  0.00  0.00    +0.000 A 
ATOM      3  C   UNL     1       2.034   7.523  20.618  0.00  0.00    +0.000 A 
ATOM      4  C   UNL     1       1.408   8.440  19.721  0.00  0.00    +0.000 A 
ATOM      5  N   UNL     1       0.277   9.087  19.782  0.00  0.00    +0.000 NA
ATOM      6  C   UNL     1       0.143   9.703  18.559  0.00  0.00    +0.000 A 
ATOM      7  C   UNL     1       1.291   9.539  17.800  0.00  0.00    +0.000 A 
ATOM      8  N   UNL     1       2.019   8.579  18.478  0.00  0.00    +0.000 N 
ATOM      9  C   UNL     1       3.044   7.710  18.052  0.00  0.00    +0.000 A 
ENDROOT
BRANCH   6  10
ATOM     10  C   UNL     1      -1.110  10.365  18.220  0.00  0.00    +0.000 A 
ATOM     11  C   UNL     1      -1.759   9.973  17.029  0.00  0.00    +0.000 A 
ATOM     12  C   UNL     1      -3.011  10.484  16.684  0.00  0.00    +0.000 A 
ATOM     13  C   UNL     1      -3.615  11.399  17.524  0.00  0.00    +0.000 A 
ATOM     14  F   UNL     1      -4.839  11.855  17.232  0.00  0.00    +0.000 F 
ATOM     15  C   UNL     1      -2.967  11.850  18.676  0.00  0.00    +0.000 A 
ATOM     16  C   UNL     1      -1.709  11.342  19.020  0.00  0.00    +0.000 A 
ENDBRANCH   6  10
BRANCH   1  18
ATOM     17  O   UNL     1       4.358   4.490  19.129  0.00  0.00    +0.000 OA
ATOM     18  C   UNL     1       4.081   5.395  18.351  0.00  0.00    +0.000 C 
ATOM     19  N   UNL     1       4.357   5.350  17.021  0.00  0.00    +0.000 N 
ATOM     20  H   UNL     1       4.040   6.085  16.403  0.00  0.00    +0.000 HD
BRANCH  19  21
ATOM     21  C   UNL     1       4.798   4.144  16.343  0.00  0.00    +0.000 C 
BRANCH  21  22
ATOM     22  C   UNL     1       5.912   4.567  15.457  0.00  0.00    +0.000 A 
ATOM     23  N   UNL     1       6.923   5.352  15.818  0.00  0.00    +0.000 NA
ATOM     24  N   UNL     1       7.750   5.556  14.729  0.00  0.00    +0.000 NA
ATOM     25  C   UNL     1       7.214   4.895  13.742  0.00  0.00    +0.000 A 
ATOM     26  N   UNL     1       6.077   4.277  14.152  0.00  0.00    +0.000 N 
ATOM     27  C   UNL     1       5.419   3.550  13.094  0.00  0.00    +0.000 C 
ATOM     28  C   UNL     1       6.516   3.502  12.005  0.00  0.00    +0.000 C 
ATOM     29  C   UNL     1       7.500   4.658  12.323  0.00  0.00    +0.000 C 
ENDBRANCH  21  22
ENDBRANCH  19  21
ENDBRANCH   1  18
TORSDOF 4
ENDMDL
MODEL 4
REMARK VINA RESULT:      -8.4      3.027      3.605
REMARK  Name = 
REMARK  4 active torsions:
REMARK  status: ('A' for Active; 'I' for Inactive)
REMARK    1  A    between atoms: C_2  and  C_13
REMARK    2  A    between atoms: N_3  and  C_4
REMARK    3  A    between atoms: C_4  and  C_5
REMARK    4  A    between atoms: C_18  and  C_19
REMARK                            x       y       z     vdW  Elec       q    Type
REMARK                         _______ _______ _______ _____ _____    ______ ____
ROOT
ATOM      1  C   UNL     1       2.261   7.066  19.636  0.00  0.00    +0.000 A 
ATOM      2  C   UNL     1       2.655   7.651  18.326  0.00  0.00    +0.000 A 
ATOM      3  C   UNL     1       1.788   8.538  17.792  0.00  0.00    +0.000 A 
ATOM      4  C   UNL     1       1.427   9.563  18.719  0.00  0.00    +0.000 A 
ATOM      5  N   UNL     1       1.410  10.864  18.619  0.00  0.00    +0.000 NA
ATOM      6  C   UNL     1       1.117  11.322  19.882  0.00  0.00    +0.000 A 
ATOM      7  C   UNL     1       0.807  10.267  20.727  0.00  0.00    +0.000 A 
ATOM      8  N   UNL     1       1.186   9.139  20.022  0.00  0.00    +0.000 N 
ATOM      9  C   UNL     1       1.497   7.832  20.450  0.00  0.00    +0.000 A 
ENDROOT
BRANCH   6  10
ATOM     10  C   UNL     1       1.202  12.748  20.168  0.00  0.00    +0.000 A 
ATOM     11  C   UNL     1       1.941  13.554  19.274  0.00  0.00    +0.000 A 
ATOM     12  C   UNL     1       1.988  14.941  19.419  0.00  0.00    +0.000 A 
ATOM     13  C   UNL     1       1.305  15.529  20.464  0.00  0.00    +0.000 A 
ATOM     14  F   UNL     1       1.296  16.862  20.581  0.00  0.00    +0.000 F 
ATOM     15  C   UNL     1       0.617  14.751  21.397  0.00  0.00    +0.000 A 
ATOM     16  C   UNL     1       0.573  13.358  21.257  0.00  0.00    +0.000 A 
ENDBRANCH   6  10
BRANCH   1  18
ATOM     17  O   UNL     1       2.433   4.962  20.760  0.00  0.00    +0.000 OA
ATOM     18  C   UNL     1       2.947   5.778  20.005  0.00  0.00    +0.000 C 
ATOM     19  N   UNL     1       4.099   5.543  19.322  0.00  0.00    +0.000 N 
ATOM     20  H   UNL     1       4.445   6.214  18.649  0.00  0.00    +0.000 HD
BRANCH  19  21
ATOM     21  C   UNL     1       4.718   4.233  19.236  0.00  0.00    +0.000 C 
BRANCH  21  22
ATOM     22  C   UNL     1       5.833   4.379  18.267  0.00  0.00    +0.000 A 
ATOM     23  N   UNL     1       7.118   4.500  18.590  0.00  0.00    +0.000 NA
ATOM     24  N   UNL     1       7.864   4.646  17.435  0.00  0.00    +0.000 NA
ATOM     25  C   UNL     1       7.011   4.614  16.450  0.00  0.00    +0.000 A 
ATOM     26  N   UNL     1       5.749   4.456  16.925  0.00  0.00    +0.000 N 
ATOM     27  C   UNL     1       4.753   4.442  15.882  0.00  0.00    +0.000 C 
ATOM     28  C   UNL     1       5.617   4.257  14.613  0.00  0.00    +0.000 C 
ATOM     29  C   UNL     1       7.050   4.718  14.988  0.00  0.00    +0.000 C 
ENDBRANCH  21  22
ENDBRANCH  19  21
ENDBRANCH   1  18
TORSDOF 4
ENDMDL
MODEL 5
REMARK VINA RESULT:      -8.4      4.131     10.084
REMARK  Name = 
REMARK  4 active torsions:
REMARK  status: ('A' for Active; 'I' for Inactive)
REMARK    1  A    between atoms: C_2  and  C_13
REMARK    2  A    between atoms: N_3  and  C_4
REMARK    3  A    between atoms: C_4  and  C_5
REMARK    4  A    between atoms: C_18  and  C_19
REMARK                            x       y       z     vdW  Elec       q    Type
REMARK                         _______ _______ _______ _____ _____    ______ ____
ROOT
ATOM      1  C   UNL     1       0.373   9.818  19.675  0.00  0.00    +0.000 A 
ATOM      2  C   UNL     1       0.650   9.810  18.212  0.00  0.00    +0.000 A 
ATOM      3  C   UNL     1       1.882   9.391  17.850  0.00  0.00    +0.000 A 
ATOM      4  C   UNL     1       2.221   8.135  18.440  0.00  0.00    +0.000 A 
ATOM      5  N   UNL     1       2.687   7.029  17.930  0.00  0.00    +0.000 NA
ATOM      6  C   UNL     1       2.671   6.118  18.961  0.00  0.00    +0.000 A 
ATOM      7  C   UNL     1       2.324   6.734  20.153  0.00  0.00    +0.000 A 
ATOM      8  N   UNL     1       1.862   7.981  19.775  0.00  0.00    +0.000 N 
ATOM      9  C   UNL     1       1.023   8.905  20.432  0.00  0.00    +0.000 A 
ENDROOT
BRANCH   6  10
ATOM     10  C   UNL     1       2.958   4.717  18.687  0.00  0.00    +0.000 A 
ATOM     11  C   UNL     1       4.069   4.134  19.336  0.00  0.00    +0.000 A 
ATOM     12  C   UNL     1       4.352   2.774  19.207  0.00  0.00    +0.000 A 
ATOM     13  C   UNL     1       3.532   1.991  18.419  0.00  0.00    +0.000 A 
ATOM     14  F   UNL     1       3.761   0.675  18.332  0.00  0.00    +0.000 F 
ATOM     15  C   UNL     1       2.464   2.553  17.717  0.00  0.00    +0.000 A 
ATOM     16  C   UNL     1       2.182   3.919  17.842  0.00  0.00    +0.000 A 
ENDBRANCH   6  10
BRANCH   1  18
ATOM     17  O   UNL     1      -0.965  10.967  21.291  0.00  0.00    +0.000 OA
ATOM     18  C   UNL     1      -0.772  10.692  20.112  0.00  0.00    +0.000 C 
ATOM     19  N   UNL     1      -1.469  11.253  19.089  0.00  0.00    +0.000 N 
ATOM     20  H   UNL     1      -1.224  11.056  18.128  0.00  0.00    +0.000 HD
BRANCH  19  21
ATOM     21  C   UNL     1      -2.351  12.394  19.261  0.00  0.00    +0.000 C 
BRANCH  21  22
ATOM     22  C   UNL     1      -3.687  11.942  18.798  0.00  0.00    +0.000 A 
ATOM     23  N   UNL     1      -3.942  11.388  17.615  0.00  0.00    +0.000 NA
ATOM     24  N   UNL     1      -5.295  11.124  17.519  0.00  0.00    +0.000 NA
ATOM     25  C   UNL     1      -5.819  11.529  18.641  0.00  0.00    +0.000 A 
ATOM     26  N   UNL     1      -4.859  12.044  19.452  0.00  0.00    +0.000 N 
ATOM     27  C   UNL     1      -5.384  12.538  20.702  0.00  0.00    +0.000 C 
ATOM     28  C   UNL     1      -6.805  11.928  20.719  0.00  0.00    +0.000 C 
ATOM     29  C   UNL     1      -7.154  11.590  19.246  0.00  0.00    +0.000 C 
ENDBRANCH  21  22
ENDBRANCH  19  21
ENDBRANCH   1  18
TORSDOF 4
ENDMDL
MODEL 6
REMARK VINA RESULT:      -8.3      3.405      4.620
REMARK  Name = 
REMARK  4 active torsions:
REMARK  status: ('A' for Active; 'I' for Inactive)
REMARK    1  A    between atoms: C_2  and  C_13
REMARK    2  A    between atoms: N_3  and  C_4
REMARK    3  A    between atoms: C_4  and  C_5
REMARK    4  A    between atoms: C_18  and  C_19
REMARK                            x       y       z     vdW  Elec       q    Type
REMARK                         _______ _______ _______ _____ _____    ______ ____
ROOT
ATOM      1  C   UNL     1       1.283   9.411  19.765  0.00  0.00    +0.000 A 
ATOM      2  C   UNL     1       1.004   8.570  20.960  0.00  0.00    +0.000 A 
ATOM      3  C   UNL     1       0.907   9.230  22.135  0.00  0.00    +0.000 A 
ATOM      4  C   UNL     1      -0.002  10.329  22.062  0.00  0.00    +0.000 A 
ATOM      5  N   UNL     1      -1.002  10.686  22.820  0.00  0.00    +0.000 NA
ATOM      6  C   UNL     1      -1.594  11.742  22.167  0.00  0.00    +0.000 A 
ATOM      7  C   UNL     1      -0.842  12.120  21.065  0.00  0.00    +0.000 A 
ATOM      8  N   UNL     1       0.072  11.096  20.903  0.00  0.00    +0.000 N 
ATOM      9  C   UNL     1       0.826  10.685  19.785  0.00  0.00    +0.000 A 
ENDROOT
BRANCH   6  10
ATOM     10  C   UNL     1      -2.863  12.267  22.652  0.00  0.00    +0.000 A 
ATOM     11  C   UNL     1      -3.782  12.753  21.697  0.00  0.00    +0.000 A 
ATOM     12  C   UNL     1      -5.057  13.179  22.068  0.00  0.00    +0.000 A 
ATOM     13  C   UNL     1      -5.418  13.131  23.400  0.00  0.00    +0.000 A 
ATOM     14  F   UNL     1      -6.657  13.484  23.762  0.00  0.00    +0.000 F 
ATOM     15  C   UNL     1      -4.508  12.713  24.373  0.00  0.00    +0.000 A 
ATOM     16  C   UNL     1      -3.225  12.291  24.002  0.00  0.00    +0.000 A 
ENDBRANCH   6  10
BRANCH   1  18
ATOM     17  O   UNL     1       1.859   9.180  17.455  0.00  0.00    +0.000 OA
ATOM     18  C   UNL     1       1.845   8.681  18.574  0.00  0.00    +0.000 C 
ATOM     19  N   UNL     1       2.451   7.503  18.876  0.00  0.00    +0.000 N 
ATOM     20  H   UNL     1       2.481   7.168  19.830  0.00  0.00    +0.000 HD
BRANCH  19  21
ATOM     21  C   UNL     1       3.366   6.827  17.974  0.00  0.00    +0.000 C 
BRANCH  21  22
ATOM     22  C   UNL     1       3.558   5.468  18.542  0.00  0.00    +0.000 A 
ATOM     23  N   UNL     1       4.640   5.057  19.197  0.00  0.00    +0.000 NA
ATOM     24  N   UNL     1       4.479   3.730  19.551  0.00  0.00    +0.000 NA
ATOM     25  C   UNL     1       3.310   3.377  19.096  0.00  0.00    +0.000 A 
ATOM     26  N   UNL     1       2.715   4.421  18.463  0.00  0.00    +0.000 N 
ATOM     27  C   UNL     1       1.427   4.084  17.910  0.00  0.00    +0.000 C 
ATOM     28  C   UNL     1       1.121   2.735  18.603  0.00  0.00    +0.000 C 
ATOM     29  C   UNL     1       2.485   2.165  19.072  0.00  0.00    +0.000 C 
ENDBRANCH  21  22
ENDBRANCH  19  21
ENDBRANCH   1  18
TORSDOF 4
ENDMDL
MODEL 7
REMARK VINA RESULT:      -8.3      3.972      5.305
REMARK  Name = 
REMARK  4 active torsions:
REMARK  status: ('A' for Active; 'I' for Inactive)
REMARK    1  A    between atoms: C_2  and  C_13
REMARK    2  A    between atoms: N_3  and  C_4
REMARK    3  A    between atoms: C_4  and  C_5
REMARK    4  A    between atoms: C_18  and  C_19
REMARK                            x       y       z     vdW  Elec       q    Type
REMARK                         _______ _______ _______ _____ _____    ______ ____
ROOT
ATOM      1  C   UNL     1       0.891   9.427  20.656  0.00  0.00    +0.000 A 
ATOM      2  C   UNL     1       0.478   8.708  21.892  0.00  0.00    +0.000 A 
ATOM      3  C   UNL     1       0.289   9.478  22.986  0.00  0.00    +0.000 A 
ATOM      4  C   UNL     1      -0.578  10.583  22.725  0.00  0.00    +0.000 A 
ATOM      5  N   UNL     1      -1.634  11.028  23.346  0.00  0.00    +0.000 NA
ATOM      6  C   UNL     1      -2.134  12.029  22.544  0.00  0.00    +0.000 A 
ATOM      7  C   UNL     1      -1.272  12.286  21.489  0.00  0.00    +0.000 A 
ATOM      8  N   UNL     1      -0.375  11.235  21.512  0.00  0.00    +0.000 N 
ATOM      9  C   UNL     1       0.469  10.705  20.515  0.00  0.00    +0.000 A 
ENDROOT
BRANCH   6  10
ATOM     10  C   UNL     1      -3.427  12.621  22.855  0.00  0.00    +0.000 A 
ATOM     11  C   UNL     1      -4.070  13.365  21.841  0.00  0.00    +0.000 A 
ATOM     12  C   UNL     1      -5.354  13.880  22.022  0.00  0.00    +0.000 A 
ATOM     13  C   UNL     1      -5.999  13.661  23.223  0.00  0.00    +0.000 A 
ATOM     14  F   UNL     1      -7.252  14.101  23.389  0.00  0.00    +0.000 F 
ATOM     15  C   UNL     1      -5.364  12.982  24.264  0.00  0.00    +0.000 A 
ATOM     16  C   UNL     1      -4.073  12.470  24.085  0.00  0.00    +0.000 A 
ENDBRANCH   6  10
BRANCH   1  18
ATOM     17  O   UNL     1       1.654   8.957  18.438  0.00  0.00    +0.000 OA
ATOM     18  C   UNL     1       1.542   8.577  19.598  0.00  0.00    +0.000 C 
ATOM     19  N   UNL     1       2.110   7.436  20.069  0.00  0.00    +0.000 N 
ATOM     20  H   UNL     1       2.058   7.201  21.052  0.00  0.00    +0.000 HD
BRANCH  19  21
ATOM     21  C   UNL     1       3.089   6.669  19.321  0.00  0.00    +0.000 C 
BRANCH  21  22
ATOM     22  C   UNL     1       2.401   5.413  18.929  0.00  0.00    +0.000 A 
ATOM     23  N   UNL     1       2.056   5.082  17.688  0.00  0.00    +0.000 NA
ATOM     24  N   UNL     1       1.409   3.860  17.707  0.00  0.00    +0.000 NA
ATOM     25  C   UNL     1       1.376   3.491  18.956  0.00  0.00    +0.000 A 
ATOM     26  N   UNL     1       1.974   4.425  19.740  0.00  0.00    +0.000 N 
ATOM     27  C   UNL     1       1.944   4.087  21.141  0.00  0.00    +0.000 C 
ATOM     28  C   UNL     1       1.541   2.594  21.104  0.00  0.00    +0.000 C 
ATOM     29  C   UNL     1       0.859   2.358  19.731  0.00  0.00    +0.000 C 
ENDBRANCH  21  22
ENDBRANCH  19  21
ENDBRANCH   1  18
TORSDOF 4
ENDMDL
MODEL 8
REMARK VINA RESULT:      -8.3      2.388      3.258
REMARK  Name = 
REMARK  4 active torsions:
REMARK  status: ('A' for Active; 'I' for Inactive)
REMARK    1  A    between atoms: C_2  and  C_13
REMARK    2  A    between atoms: N_3  and  C_4
REMARK    3  A    between atoms: C_4  and  C_5
REMARK    4  A    between atoms: C_18  and  C_19
REMARK                            x       y       z     vdW  Elec       q    Type
REMARK                         _______ _______ _______ _____ _____    ______ ____
ROOT
ATOM      1  C   UNL     1       2.784   4.946  18.589  0.00  0.00    +0.000 A 
ATOM      2  C   UNL     1       2.031   4.495  19.791  0.00  0.00    +0.000 A 
ATOM      3  C   UNL     1       2.125   5.292  20.878  0.00  0.00    +0.000 A 
ATOM      4  C   UNL     1       1.831   6.656  20.575  0.00  0.00    +0.000 A 
ATOM      5  N   UNL     1       1.031   7.522  21.134  0.00  0.00    +0.000 NA
ATOM      6  C   UNL     1       1.056   8.625  20.312  0.00  0.00    +0.000 A 
ATOM      7  C   UNL     1       2.005   8.470  19.314  0.00  0.00    +0.000 A 
ATOM      8  N   UNL     1       2.364   7.137  19.382  0.00  0.00    +0.000 N 
ATOM      9  C   UNL     1       2.958   6.279  18.433  0.00  0.00    +0.000 A 
ENDROOT
BRANCH   6  10
ATOM     10  C   UNL     1       0.123   9.718  20.548  0.00  0.00    +0.000 A 
ATOM     11  C   UNL     1      -0.134  10.085  21.887  0.00  0.00    +0.000 A 
ATOM     12  C   UNL     1      -0.935  11.185  22.196  0.00  0.00    +0.000 A 
ATOM     13  C   UNL     1      -1.491  11.918  21.168  0.00  0.00    +0.000 A 
ATOM     14  F   UNL     1      -2.215  13.008  21.450  0.00  0.00    +0.000 F 
ATOM     15  C   UNL     1      -1.303  11.541  19.836  0.00  0.00    +0.000 A 
ATOM     16  C   UNL     1      -0.504  10.435  19.525  0.00  0.00    +0.000 A 
ENDBRANCH   6  10
BRANCH   1  18
ATOM     17  O   UNL     1       2.171   3.276  16.990  0.00  0.00    +0.000 OA
ATOM     18  C   UNL     1       3.069   3.880  17.565  0.00  0.00    +0.000 C 
ATOM     19  N   UNL     1       4.383   3.755  17.240  0.00  0.00    +0.000 N 
ATOM     20  H   UNL     1       5.082   4.332  17.689  0.00  0.00    +0.000 HD
BRANCH  19  21
ATOM     21  C   UNL     1       4.842   3.077  16.042  0.00  0.00    +0.000 C 
BRANCH  21  22
ATOM     22  C   UNL     1       5.911   3.941  15.477  0.00  0.00    +0.000 A 
ATOM     23  N   UNL     1       6.655   4.795  16.175  0.00  0.00    +0.000 NA
ATOM     24  N   UNL     1       7.522   5.446  15.318  0.00  0.00    +0.000 NA
ATOM     25  C   UNL     1       7.274   4.973  14.129  0.00  0.00    +0.000 A 
ATOM     26  N   UNL     1       6.283   4.046  14.188  0.00  0.00    +0.000 N 
ATOM     27  C   UNL     1       5.942   3.505  12.895  0.00  0.00    +0.000 C 
ATOM     28  C   UNL     1       7.131   3.975  12.025  0.00  0.00    +0.000 C 
ATOM     29  C   UNL     1       7.763   5.184  12.763  0.00  0.00    +0.000 C 
ENDBRANCH  21  22
ENDBRANCH  19  21
ENDBRANCH   1  18
TORSDOF 4
ENDMDL
MODEL 9
REMARK VINA RESULT:      -8.2      3.441      4.101
REMARK  Name = 
REMARK  4 active torsions:
REMARK  status: ('A' for Active; 'I' for Inactive)
REMARK    1  A    between atoms: C_2  and  C_13
REMARK    2  A    between atoms: N_3  and  C_4
REMARK    3  A    between atoms: C_4  and  C_5
REMARK    4  A    between atoms: C_18  and  C_19
REMARK                            x       y       z     vdW  Elec       q    Type
REMARK                         _______ _______ _______ _____ _____    ______ ____
ROOT
ATOM      1  C   UNL     1       1.916   7.458  19.727  0.00  0.00    +0.000 A 
ATOM      2  C   UNL     1       2.395   7.935  18.401  0.00  0.00    +0.000 A 
ATOM      3  C   UNL     1       1.647   8.897  17.816  0.00  0.00    +0.000 A 
ATOM      4  C   UNL     1       1.399   9.995  18.694  0.00  0.00    +0.000 A 
ATOM      5  N   UNL     1       1.539  11.283  18.541  0.00  0.00    +0.000 NA
ATOM      6  C   UNL     1       1.286  11.826  19.780  0.00  0.00    +0.000 A 
ATOM      7  C   UNL     1       0.841  10.852  20.660  0.00  0.00    +0.000 A 
ATOM      8  N   UNL     1       1.092   9.659  20.009  0.00  0.00    +0.000 N 
ATOM      9  C   UNL     1       1.238   8.343  20.494  0.00  0.00    +0.000 A 
ENDROOT
BRANCH   6  10
ATOM     10  C   UNL     1       1.538  13.242  20.009  0.00  0.00    +0.000 A 
ATOM     11  C   UNL     1       1.167  13.782  21.260  0.00  0.00    +0.000 A 
ATOM     12  C   UNL     1       1.465  15.103  21.597  0.00  0.00    +0.000 A 
ATOM     13  C   UNL     1       2.126  15.895  20.680  0.00  0.00    +0.000 A 
ATOM     14  F   UNL     1       2.466  17.146  21.012  0.00  0.00    +0.000 F 
ATOM     15  C   UNL     1       2.449  15.406  19.413  0.00  0.00    +0.000 A 
ATOM     16  C   UNL     1       2.146  14.082  19.071  0.00  0.00    +0.000 A 
ENDBRANCH   6  10
BRANCH   1  18
ATOM     17  O   UNL     1       1.735   5.307  20.757  0.00  0.00    +0.000 OA
ATOM     18  C   UNL     1       2.437   6.113  20.159  0.00  0.00    +0.000 C 
ATOM     19  N   UNL     1       3.687   5.827  19.707  0.00  0.00    +0.000 N 
ATOM     20  H   UNL     1       4.200   6.497  19.149  0.00  0.00    +0.000 HD
BRANCH  19  21
ATOM     21  C   UNL     1       4.232   4.482  19.680  0.00  0.00    +0.000 C 
BRANCH  21  22
ATOM     22  C   UNL     1       5.477   4.570  18.876  0.00  0.00    +0.000 A 
ATOM     23  N   UNL     1       6.694   4.789  19.368  0.00  0.00    +0.000 NA
ATOM     24  N   UNL     1       7.602   4.838  18.327  0.00  0.00    +0.000 NA
ATOM     25  C   UNL     1       6.911   4.653  17.239  0.00  0.00    +0.000 A 
ATOM     26  N   UNL     1       5.596   4.490  17.537  0.00  0.00    +0.000 N 
ATOM     27  C   UNL     1       4.772   4.310  16.367  0.00  0.00    +0.000 C 
ATOM     28  C   UNL     1       5.825   4.023  15.272  0.00  0.00    +0.000 C 
ATOM     29  C   UNL     1       7.169   4.592  15.796  0.00  0.00    +0.000 C 
ENDBRANCH  21  22
ENDBRANCH  19  21
ENDBRANCH   1  18
TORSDOF 4
ENDMDL
