MODEL 1
REMARK VINA RESULT:      -6.4      0.000      0.000
REMARK  Name = 
REMARK  3 active torsions:
REMARK  status: ('A' for Active; 'I' for Inactive)
REMARK    1  A    between atoms: O_1  and  C_2
REMARK    2  A    between atoms: C_2  and  C_3
REMARK    3  A    between atoms: C_2  and  C_8
REMARK                            x       y       z     vdW  Elec       q    Type
REMARK                         _______ _______ _______ _____ _____    ______ ____
ROOT
ATOM      1  C   UNL     1       4.507   4.430  18.005  0.00  0.00    +0.000 C 
ENDROOT
BRANCH   1   2
ATOM      2  C   UNL     1       3.586   4.245  19.252  0.00  0.00    +0.000 C 
ATOM      3  C   UNL     1       3.526   2.796  19.797  0.00  0.00    +0.000 C 
ATOM      4  C   UNL     1       2.067   2.379  20.028  0.00  0.00    +0.000 C 
ATOM      5  C   UNL     1       1.411   3.387  20.988  0.00  0.00    +0.000 C 
ATOM      6  C   UNL     1       1.564   4.813  20.430  0.00  0.00    +0.000 C 
ATOM      7  N   UNL     1       2.191   4.802  19.081  0.00  0.00    +0.000 NA
ATOM      8  C   UNL     1       1.337   3.942  18.227  0.00  0.00    +0.000 C 
ATOM      9  C   UNL     1       1.361   2.476  18.672  0.00  0.00    +0.000 C 
ENDBRANCH   1   2
BRANCH   1  10
ATOM     10  C   UNL     1       5.791   5.169  18.328  0.00  0.00    +0.000 A 
ATOM     11  N   UNL     1       6.597   4.916  19.344  0.00  0.00    +0.000 NA
ATOM     12  C   UNL     1       7.693   5.756  19.302  0.00  0.00    +0.000 A 
ATOM     13  C   UNL     1       7.702   6.671  18.271  0.00  0.00    +0.000 A 
ATOM     14  S   UNL     1       6.303   6.466  17.304  0.00  0.00    +0.000 S 
ENDBRANCH   1  10
BRANCH   1  15
ATOM     15  O   UNL     1       4.890   3.184  17.415  0.00  0.00    +0.000 OA
ATOM     16  H   UNL     1       5.358   2.695  18.108  0.00  0.00    +0.000 HD
ENDBRANCH   1  15
TORSDOF 3
ENDMDL
MODEL 2
REMARK VINA RESULT:      -6.4      2.240      5.149
REMARK  Name = 
REMARK  3 active torsions:
REMARK  status: ('A' for Active; 'I' for Inactive)
REMARK    1  A    between atoms: O_1  and  C_2
REMARK    2  A    between atoms: C_2  and  C_3
REMARK    3  A    between atoms: C_2  and  C_8
REMARK                            x       y       z     vdW  Elec       q    Type
REMARK                         _______ _______ _______ _____ _____    ______ ____
ROOT
ATOM      1  C   UNL     1       4.538   3.832  19.411  0.00  0.00    +0.000 C 
ENDROOT
BRANCH   1   2
ATOM      2  C   UNL     1       4.534   4.622  18.064  0.00  0.00    +0.000 C 
ATOM      3  C   UNL     1       4.816   3.756  16.810  0.00  0.00    +0.000 C 
ATOM      4  C   UNL     1       5.880   4.429  15.933  0.00  0.00    +0.000 C 
ATOM      5  C   UNL     1       5.395   5.841  15.564  0.00  0.00    +0.000 C 
ATOM      6  C   UNL     1       5.064   6.629  16.843  0.00  0.00    +0.000 C 
ATOM      7  N   UNL     1       5.412   5.852  18.063  0.00  0.00    +0.000 NA
ATOM      8  C   UNL     1       6.853   5.520  17.953  0.00  0.00    +0.000 C 
ATOM      9  C   UNL     1       7.141   4.561  16.793  0.00  0.00    +0.000 C 
ENDBRANCH   1   2
BRANCH   1  10
ATOM     10  C   UNL     1       3.142   3.561  19.936  0.00  0.00    +0.000 A 
ATOM     11  N   UNL     1       2.844   2.915  21.050  0.00  0.00    +0.000 NA
ATOM     12  C   UNL     1       1.475   2.896  21.236  0.00  0.00    +0.000 A 
ATOM     13  C   UNL     1       0.730   3.498  20.244  0.00  0.00    +0.000 A 
ATOM     14  S   UNL     1       1.774   4.130  19.042  0.00  0.00    +0.000 S 
ENDBRANCH   1  10
BRANCH   1  15
ATOM     15  O   UNL     1       5.188   2.563  19.302  0.00  0.00    +0.000 OA
ATOM     16  H   UNL     1       4.991   2.240  18.410  0.00  0.00    +0.000 HD
ENDBRANCH   1  15
TORSDOF 3
ENDMDL
MODEL 3
REMARK VINA RESULT:      -6.4      1.878      2.563
REMARK  Name = 
REMARK  3 active torsions:
REMARK  status: ('A' for Active; 'I' for Inactive)
REMARK    1  A    between atoms: O_1  and  C_2
REMARK    2  A    between atoms: C_2  and  C_3
REMARK    3  A    between atoms: C_2  and  C_8
REMARK                            x       y       z     vdW  Elec       q    Type
REMARK                         _______ _______ _______ _____ _____    ______ ____
ROOT
ATOM      1  C   UNL     1       4.824   4.299  19.272  0.00  0.00    +0.000 C 
ENDROOT
BRANCH   1   2
ATOM      2  C   UNL     1       3.397   3.731  18.988  0.00  0.00    +0.000 C 
ATOM      3  C   UNL     1       2.245   4.740  19.228  0.00  0.00    +0.000 C 
ATOM      4  C   UNL     1       1.140   4.087  20.069  0.00  0.00    +0.000 C 
ATOM      5  C   UNL     1       0.656   2.816  19.349  0.00  0.00    +0.000 C 
ATOM      6  C   UNL     1       1.851   1.887  19.075  0.00  0.00    +0.000 C 
ATOM      7  N   UNL     1       3.102   2.420  19.679  0.00  0.00    +0.000 NA
ATOM      8  C   UNL     1       2.830   2.590  21.127  0.00  0.00    +0.000 C 
ATOM      9  C   UNL     1       1.781   3.674  21.398  0.00  0.00    +0.000 C 
ENDBRANCH   1   2
BRANCH   1  10
ATOM     10  C   UNL     1       5.680   4.384  18.024  0.00  0.00    +0.000 A 
ATOM     11  N   UNL     1       6.967   4.681  17.985  0.00  0.00    +0.000 NA
ATOM     12  C   UNL     1       7.429   4.621  16.684  0.00  0.00    +0.000 A 
ATOM     13  C   UNL     1       6.484   4.313  15.730  0.00  0.00    +0.000 A 
ATOM     14  S   UNL     1       4.964   4.068  16.481  0.00  0.00    +0.000 S 
ENDBRANCH   1  10
BRANCH   1  15
ATOM     15  O   UNL     1       4.791   5.613  19.837  0.00  0.00    +0.000 OA
ATOM     16  H   UNL     1       5.402   6.145  19.304  0.00  0.00    +0.000 HD
ENDBRANCH   1  15
TORSDOF 3
ENDMDL
MODEL 4
REMARK VINA RESULT:      -6.4      1.640      2.310
REMARK  Name = 
REMARK  3 active torsions:
REMARK  status: ('A' for Active; 'I' for Inactive)
REMARK    1  A    between atoms: O_1  and  C_2
REMARK    2  A    between atoms: C_2  and  C_3
REMARK    3  A    between atoms: C_2  and  C_8
REMARK                            x       y       z     vdW  Elec       q    Type
REMARK                         _______ _______ _______ _____ _____    ______ ____
ROOT
ATOM      1  C   UNL     1       4.342   5.038  19.526  0.00  0.00    +0.000 C 
ENDROOT
BRANCH   1   2
ATOM      2  C   UNL     1       3.268   4.040  18.989  0.00  0.00    +0.000 C 
ATOM      3  C   UNL     1       1.819   4.589  19.002  0.00  0.00    +0.000 C 
ATOM      4  C   UNL     1       0.871   3.559  19.631  0.00  0.00    +0.000 C 
ATOM      5  C   UNL     1       0.983   2.240  18.846  0.00  0.00    +0.000 C 
ATOM      6  C   UNL     1       2.451   1.782  18.806  0.00  0.00    +0.000 C 
ATOM      7  N   UNL     1       3.318   2.671  19.626  0.00  0.00    +0.000 NA
ATOM      8  C   UNL     1       2.753   2.661  20.996  0.00  0.00    +0.000 C 
ATOM      9  C   UNL     1       1.368   3.314  21.058  0.00  0.00    +0.000 C 
ENDBRANCH   1   2
BRANCH   1  10
ATOM     10  C   UNL     1       5.540   5.162  18.605  0.00  0.00    +0.000 A 
ATOM     11  N   UNL     1       6.655   4.458  18.684  0.00  0.00    +0.000 NA
ATOM     12  C   UNL     1       7.510   4.804  17.654  0.00  0.00    +0.000 A 
ATOM     13  C   UNL     1       7.056   5.798  16.814  0.00  0.00    +0.000 A 
ATOM     14  S   UNL     1       5.498   6.307  17.310  0.00  0.00    +0.000 S 
ENDBRANCH   1  10
BRANCH   1  15
ATOM     15  O   UNL     1       3.826   6.359  19.706  0.00  0.00    +0.000 OA
ATOM     16  H   UNL     1       2.904   6.247  19.986  0.00  0.00    +0.000 HD
ENDBRANCH   1  15
TORSDOF 3
ENDMDL
MODEL 5
REMARK VINA RESULT:      -6.4      2.067      2.744
REMARK  Name = 
REMARK  3 active torsions:
REMARK  status: ('A' for Active; 'I' for Inactive)
REMARK    1  A    between atoms: O_1  and  C_2
REMARK    2  A    between atoms: C_2  and  C_3
REMARK    3  A    between atoms: C_2  and  C_8
REMARK                            x       y       z     vdW  Elec       q    Type
REMARK                         _______ _______ _______ _____ _____    ______ ____
ROOT
ATOM      1  C   UNL     1       4.828   4.218  18.883  0.00  0.00    +0.000 C 
ENDROOT
BRANCH   1   2
ATOM      2  C   UNL     1       3.342   3.743  18.822  0.00  0.00    +0.000 C 
ATOM      3  C   UNL     1       2.306   4.821  19.230  0.00  0.00    +0.000 C 
ATOM      4  C   UNL     1       1.302   4.235  20.232  0.00  0.00    +0.000 C 
ATOM      5  C   UNL     1       0.636   3.000  19.600  0.00  0.00    +0.000 C 
ATOM      6  C   UNL     1       1.714   1.999  19.152  0.00  0.00    +0.000 C 
ATOM      7  N   UNL     1       3.073   2.450  19.556  0.00  0.00    +0.000 NA
ATOM      8  C   UNL     1       3.036   2.629  21.027  0.00  0.00    +0.000 C 
ATOM      9  C   UNL     1       2.111   3.776  21.449  0.00  0.00    +0.000 C 
ENDBRANCH   1   2
BRANCH   1  10
ATOM     10  C   UNL     1       5.473   4.302  17.514  0.00  0.00    +0.000 A 
ATOM     11  N   UNL     1       4.882   4.047  16.360  0.00  0.00    +0.000 NA
ATOM     12  C   UNL     1       5.759   4.271  15.317  0.00  0.00    +0.000 A 
ATOM     13  C   UNL     1       7.029   4.664  15.680  0.00  0.00    +0.000 A 
ATOM     14  S   UNL     1       7.131   4.780  17.386  0.00  0.00    +0.000 S 
ENDBRANCH   1  10
BRANCH   1  15
ATOM     15  O   UNL     1       4.969   5.509  19.482  0.00  0.00    +0.000 OA
ATOM     16  H   UNL     1       4.428   6.110  18.947  0.00  0.00    +0.000 HD
ENDBRANCH   1  15
TORSDOF 3
ENDMDL
MODEL 6
REMARK VINA RESULT:      -6.4      2.364      5.259
REMARK  Name = 
REMARK  3 active torsions:
REMARK  status: ('A' for Active; 'I' for Inactive)
REMARK    1  A    between atoms: O_1  and  C_2
REMARK    2  A    between atoms: C_2  and  C_3
REMARK    3  A    between atoms: C_2  and  C_8
REMARK                            x       y       z     vdW  Elec       q    Type
REMARK                         _______ _______ _______ _____ _____    ______ ____
ROOT
ATOM      1  C   UNL     1       4.576   4.143  19.316  0.00  0.00    +0.000 C 
ENDROOT
BRANCH   1   2
ATOM      2  C   UNL     1       4.567   4.778  17.890  0.00  0.00    +0.000 C 
ATOM      3  C   UNL     1       4.823   3.773  16.738  0.00  0.00    +0.000 C 
ATOM      4  C   UNL     1       5.886   4.329  15.780  0.00  0.00    +0.000 C 
ATOM      5  C   UNL     1       5.414   5.698  15.260  0.00  0.00    +0.000 C 
ATOM      6  C   UNL     1       5.108   6.628  16.447  0.00  0.00    +0.000 C 
ATOM      7  N   UNL     1       5.460   5.987  17.742  0.00  0.00    +0.000 NA
ATOM      8  C   UNL     1       6.895   5.625  17.655  0.00  0.00    +0.000 C 
ATOM      9  C   UNL     1       7.158   4.539  16.607  0.00  0.00    +0.000 C 
ENDBRANCH   1   2
BRANCH   1  10
ATOM     10  C   UNL     1       3.183   3.923  19.870  0.00  0.00    +0.000 A 
ATOM     11  N   UNL     1       2.104   4.620  19.556  0.00  0.00    +0.000 NA
ATOM     12  C   UNL     1       1.002   4.113  20.217  0.00  0.00    +0.000 A 
ATOM     13  C   UNL     1       1.249   3.052  21.061  0.00  0.00    +0.000 A 
ATOM     14  S   UNL     1       2.915   2.655  21.016  0.00  0.00    +0.000 S 
ENDBRANCH   1  10
BRANCH   1  15
ATOM     15  O   UNL     1       5.234   2.873  19.349  0.00  0.00    +0.000 OA
ATOM     16  H   UNL     1       4.609   2.261  19.768  0.00  0.00    +0.000 HD
ENDBRANCH   1  15
TORSDOF 3
ENDMDL
MODEL 7
REMARK VINA RESULT:      -6.3      1.057      1.373
REMARK  Name = 
REMARK  3 active torsions:
REMARK  status: ('A' for Active; 'I' for Inactive)
REMARK    1  A    between atoms: O_1  and  C_2
REMARK    2  A    between atoms: C_2  and  C_3
REMARK    3  A    between atoms: C_2  and  C_8
REMARK                            x       y       z     vdW  Elec       q    Type
REMARK                         _______ _______ _______ _____ _____    ______ ____
ROOT
ATOM      1  C   UNL     1       5.111   4.149  17.151  0.00  0.00    +0.000 C 
ENDROOT
BRANCH   1   2
ATOM      2  C   UNL     1       4.164   3.518  18.220  0.00  0.00    +0.000 C 
ATOM      3  C   UNL     1       3.129   2.516  17.649  0.00  0.00    +0.000 C 
ATOM      4  C   UNL     1       1.731   2.833  18.196  0.00  0.00    +0.000 C 
ATOM      5  C   UNL     1       1.783   2.800  19.734  0.00  0.00    +0.000 C 
ATOM      6  C   UNL     1       2.874   3.760  20.238  0.00  0.00    +0.000 C 
ATOM      7  N   UNL     1       3.483   4.525  19.117  0.00  0.00    +0.000 NA
ATOM      8  C   UNL     1       2.370   5.231  18.437  0.00  0.00    +0.000 C 
ATOM      9  C   UNL     1       1.398   4.262  17.755  0.00  0.00    +0.000 C 
ENDBRANCH   1   2
BRANCH   1  10
ATOM     10  C   UNL     1       6.188   5.023  17.763  0.00  0.00    +0.000 A 
ATOM     11  N   UNL     1       6.995   4.681  18.752  0.00  0.00    +0.000 NA
ATOM     12  C   UNL     1       7.880   5.707  19.020  0.00  0.00    +0.000 A 
ATOM     13  C   UNL     1       7.722   6.844  18.258  0.00  0.00    +0.000 A 
ATOM     14  S   UNL     1       6.435   6.621  17.149  0.00  0.00    +0.000 S 
ENDBRANCH   1  10
BRANCH   1  15
ATOM     15  O   UNL     1       5.783   3.164  16.361  0.00  0.00    +0.000 OA
ATOM     16  H   UNL     1       5.260   2.353  16.447  0.00  0.00    +0.000 HD
ENDBRANCH   1  15
TORSDOF 3
ENDMDL
MODEL 8
REMARK VINA RESULT:      -6.2      1.952      5.364
REMARK  Name = 
REMARK  3 active torsions:
REMARK  status: ('A' for Active; 'I' for Inactive)
REMARK    1  A    between atoms: O_1  and  C_2
REMARK    2  A    between atoms: C_2  and  C_3
REMARK    3  A    between atoms: C_2  and  C_8
REMARK                            x       y       z     vdW  Elec       q    Type
REMARK                         _______ _______ _______ _____ _____    ______ ____
ROOT
ATOM      1  C   UNL     1       4.786   3.790  18.857  0.00  0.00    +0.000 C 
ENDROOT
BRANCH   1   2
ATOM      2  C   UNL     1       5.615   5.107  18.729  0.00  0.00    +0.000 C 
ATOM      3  C   UNL     1       5.138   6.060  17.604  0.00  0.00    +0.000 C 
ATOM      4  C   UNL     1       6.335   6.522  16.762  0.00  0.00    +0.000 C 
ATOM      5  C   UNL     1       7.364   7.191  17.691  0.00  0.00    +0.000 C 
ATOM      6  C   UNL     1       7.746   6.225  18.825  0.00  0.00    +0.000 C 
ATOM      7  N   UNL     1       7.109   4.894  18.641  0.00  0.00    +0.000 NA
ATOM      8  C   UNL     1       7.534   4.406  17.307  0.00  0.00    +0.000 C 
ATOM      9  C   UNL     1       6.970   5.262  16.168  0.00  0.00    +0.000 C 
ENDBRANCH   1   2
BRANCH   1  10
ATOM     10  C   UNL     1       3.420   4.015  19.475  0.00  0.00    +0.000 A 
ATOM     11  N   UNL     1       3.079   5.025  20.256  0.00  0.00    +0.000 NA
ATOM     12  C   UNL     1       1.743   4.932  20.597  0.00  0.00    +0.000 A 
ATOM     13  C   UNL     1       1.077   3.831  20.102  0.00  0.00    +0.000 A 
ATOM     14  S   UNL     1       2.149   2.885  19.159  0.00  0.00    +0.000 S 
ENDBRANCH   1  10
BRANCH   1  15
ATOM     15  O   UNL     1       4.564   3.155  17.594  0.00  0.00    +0.000 OA
ATOM     16  H   UNL     1       3.883   3.683  17.149  0.00  0.00    +0.000 HD
ENDBRANCH   1  15
TORSDOF 3
ENDMDL
MODEL 9
REMARK VINA RESULT:      -6.2      1.008      1.071
REMARK  Name = 
REMARK  3 active torsions:
REMARK  status: ('A' for Active; 'I' for Inactive)
REMARK    1  A    between atoms: O_1  and  C_2
REMARK    2  A    between atoms: C_2  and  C_3
REMARK    3  A    between atoms: C_2  and  C_8
REMARK                            x       y       z     vdW  Elec       q    Type
REMARK                         _______ _______ _______ _____ _____    ______ ____
ROOT
ATOM      1  C   UNL     1       4.725   3.477  18.925  0.00  0.00    +0.000 C 
ENDROOT
BRANCH   1   2
ATOM      2  C   UNL     1       3.495   4.052  19.698  0.00  0.00    +0.000 C 
ATOM      3  C   UNL     1       2.702   3.000  20.513  0.00  0.00    +0.000 C 
ATOM      4  C   UNL     1       1.199   3.139  20.231  0.00  0.00    +0.000 C 
ATOM      5  C   UNL     1       0.765   4.578  20.562  0.00  0.00    +0.000 C 
ATOM      6  C   UNL     1       1.634   5.576  19.779  0.00  0.00    +0.000 C 
ATOM      7  N   UNL     1       2.557   4.876  18.847  0.00  0.00    +0.000 NA
ATOM      8  C   UNL     1       1.709   4.040  17.964  0.00  0.00    +0.000 C 
ATOM      9  C   UNL     1       1.009   2.912  18.728  0.00  0.00    +0.000 C 
ENDBRANCH   1   2
BRANCH   1  10
ATOM     10  C   UNL     1       5.825   4.501  18.729  0.00  0.00    +0.000 A 
ATOM     11  N   UNL     1       6.640   4.954  19.666  0.00  0.00    +0.000 NA
ATOM     12  C   UNL     1       7.546   5.843  19.119  0.00  0.00    +0.000 A 
ATOM     13  C   UNL     1       7.397   6.091  17.772  0.00  0.00    +0.000 A 
ATOM     14  S   UNL     1       6.092   5.169  17.155  0.00  0.00    +0.000 S 
ENDBRANCH   1  10
BRANCH   1  15
ATOM     15  O   UNL     1       5.320   2.360  19.591  0.00  0.00    +0.000 OA
ATOM     16  H   UNL     1       5.218   1.607  18.988  0.00  0.00    +0.000 HD
ENDBRANCH   1  15
TORSDOF 3
ENDMDL
