MODEL 1
REMARK VINA RESULT:      -9.1      0.000      0.000
REMARK  Name = 
REMARK  4 active torsions:
REMARK  status: ('A' for Active; 'I' for Inactive)
REMARK    1  A    between atoms: C_1  and  O_2
REMARK    2  A    between atoms: O_2  and  C_3
REMARK    3  A    between atoms: C_5  and  C_6
REMARK    4  A    between atoms: C_19  and  C_21
REMARK                            x       y       z     vdW  Elec       q    Type
REMARK                         _______ _______ _______ _____ _____    ______ ____
ROOT
ATOM      1  C   UNL     1       2.866   5.456  18.903  0.00  0.00    +0.000 C 
ATOM      2  C   UNL     1       2.311   4.606  20.097  0.00  0.00    +0.000 A 
ATOM      3  C   UNL     1       2.666   4.535  21.435  0.00  0.00    +0.000 A 
ATOM      4  C   UNL     1       2.190   3.446  22.190  0.00  0.00    +0.000 A 
ATOM      5  C   UNL     1       1.373   2.449  21.619  0.00  0.00    +0.000 A 
ATOM      6  C   UNL     1       0.958   2.556  20.301  0.00  0.00    +0.000 A 
ATOM      7  C   UNL     1       1.404   3.657  19.593  0.00  0.00    +0.000 A 
ATOM      8  C   UNL     1       1.398   3.763  18.137  0.00  0.00    +0.000 C 
ATOM      9  O   UNL     1       0.710   3.102  17.385  0.00  0.00    +0.000 OA
ATOM     10  N   UNL     1       2.542   4.484  17.827  0.00  0.00    +0.000 N 
ATOM     11  C   UNL     1       3.699   3.526  17.762  0.00  0.00    +0.000 C 
ATOM     12  C   UNL     1       4.734   4.118  18.740  0.00  0.00    +0.000 C 
ATOM     13  N   UNL     1       4.351   5.492  18.704  0.00  0.00    +0.000 N 
ATOM     14  C   UNL     1       4.807   6.273  17.565  0.00  0.00    +0.000 C 
ATOM     15  O   UNL     1       4.508   7.463  17.486  0.00  0.00    +0.000 OA
ENDROOT
BRANCH  14  16
ATOM     16  C   UNL     1       5.634   5.713  16.363  0.00  0.00    +0.000 A 
ATOM     17  C   UNL     1       7.039   5.668  16.200  0.00  0.00    +0.000 A 
ATOM     18  C   UNL     1       7.687   5.124  15.084  0.00  0.00    +0.000 A 
ATOM     19  C   UNL     1       6.923   4.599  14.060  0.00  0.00    +0.000 A 
ATOM     20  F   UNL     1       7.538   4.095  12.982  0.00  0.00    +0.000 F 
ATOM     21  C   UNL     1       5.543   4.595  14.169  0.00  0.00    +0.000 A 
ATOM     22  F   UNL     1       4.805   4.065  13.188  0.00  0.00    +0.000 F 
ATOM     23  C   UNL     1       4.906   5.137  15.303  0.00  0.00    +0.000 A 
ENDBRANCH  14  16
BRANCH   1  26
ATOM     24  C   UNL     1       1.525   8.814  20.325  0.00  0.00    +0.000 A 
ATOM     25  C   UNL     1       1.942   7.466  20.267  0.00  0.00    +0.000 A 
ATOM     26  C   UNL     1       2.184   6.819  19.034  0.00  0.00    +0.000 A 
ATOM     27  C   UNL     1       1.948   7.573  17.865  0.00  0.00    +0.000 A 
ATOM     28  C   UNL     1       1.550   8.906  17.910  0.00  0.00    +0.000 A 
ATOM     29  C   UNL     1       1.361   9.546  19.137  0.00  0.00    +0.000 A 
ATOM     30 CL   UNL     1       1.043  11.237  19.065  0.00  0.00    +0.000 Cl
BRANCH  24  32
ATOM     31  C   UNL     1       0.156   9.228  22.222  0.00  0.00    +0.000 C 
ATOM     32  O   UNL     1       1.436   9.306  21.604  0.00  0.00    +0.000 OA
ENDBRANCH  24  32
ENDBRANCH   1  26
TORSDOF 3
ENDMDL
MODEL 2
REMARK VINA RESULT:      -9.0      0.932      1.529
REMARK  Name = 
REMARK  4 active torsions:
REMARK  status: ('A' for Active; 'I' for Inactive)
REMARK    1  A    between atoms: C_1  and  O_2
REMARK    2  A    between atoms: O_2  and  C_3
REMARK    3  A    between atoms: C_5  and  C_6
REMARK    4  A    between atoms: C_19  and  C_21
REMARK                            x       y       z     vdW  Elec       q    Type
REMARK                         _______ _______ _______ _____ _____    ______ ____
ROOT
ATOM      1  C   UNL     1       3.041   5.464  19.010  0.00  0.00    +0.000 C 
ATOM      2  C   UNL     1       2.398   4.568  20.123  0.00  0.00    +0.000 A 
ATOM      3  C   UNL     1       2.762   4.305  21.435  0.00  0.00    +0.000 A 
ATOM      4  C   UNL     1       2.158   3.212  22.083  0.00  0.00    +0.000 A 
ATOM      5  C   UNL     1       1.207   2.398  21.435  0.00  0.00    +0.000 A 
ATOM      6  C   UNL     1       0.789   2.701  20.149  0.00  0.00    +0.000 A 
ATOM      7  C   UNL     1       1.365   3.806  19.549  0.00  0.00    +0.000 A 
ATOM      8  C   UNL     1       1.349   4.070  18.113  0.00  0.00    +0.000 C 
ATOM      9  O   UNL     1       0.568   3.590  17.317  0.00  0.00    +0.000 OA
ATOM     10  N   UNL     1       2.574   4.665  17.847  0.00  0.00    +0.000 N 
ATOM     11  C   UNL     1       3.593   3.578  17.646  0.00  0.00    +0.000 C 
ATOM     12  C   UNL     1       4.712   3.920  18.649  0.00  0.00    +0.000 C 
ATOM     13  N   UNL     1       4.515   5.328  18.771  0.00  0.00    +0.000 N 
ATOM     14  C   UNL     1       5.052   6.162  17.708  0.00  0.00    +0.000 C 
ATOM     15  O   UNL     1       4.912   7.383  17.765  0.00  0.00    +0.000 OA
ENDROOT
BRANCH  14  16
ATOM     16  C   UNL     1       5.778   5.634  16.428  0.00  0.00    +0.000 A 
ATOM     17  C   UNL     1       7.166   5.575  16.159  0.00  0.00    +0.000 A 
ATOM     18  C   UNL     1       7.720   5.063  14.980  0.00  0.00    +0.000 A 
ATOM     19  C   UNL     1       6.873   4.586  13.998  0.00  0.00    +0.000 A 
ATOM     20  F   UNL     1       7.398   4.112  12.859  0.00  0.00    +0.000 F 
ATOM     21  C   UNL     1       5.505   4.598  14.209  0.00  0.00    +0.000 A 
ATOM     22  F   UNL     1       4.687   4.114  13.268  0.00  0.00    +0.000 F 
ATOM     23  C   UNL     1       4.963   5.108  15.406  0.00  0.00    +0.000 A 
ENDBRANCH  14  16
BRANCH   1  26
ATOM     24  C   UNL     1       1.805   9.123  18.598  0.00  0.00    +0.000 A 
ATOM     25  C   UNL     1       2.478   7.910  18.338  0.00  0.00    +0.000 A 
ATOM     26  C   UNL     1       2.549   6.881  19.305  0.00  0.00    +0.000 A 
ATOM     27  C   UNL     1       1.951   7.144  20.555  0.00  0.00    +0.000 A 
ATOM     28  C   UNL     1       1.273   8.331  20.818  0.00  0.00    +0.000 A 
ATOM     29  C   UNL     1       1.170   9.319  19.836  0.00  0.00    +0.000 A 
ATOM     30 CL   UNL     1       0.160  10.661  20.218  0.00  0.00    +0.000 Cl
BRANCH  24  32
ATOM     31  C   UNL     1       2.305  11.263  17.693  0.00  0.00    +0.000 C 
ATOM     32  O   UNL     1       1.750   9.963  17.513  0.00  0.00    +0.000 OA
ENDBRANCH  24  32
ENDBRANCH   1  26
TORSDOF 3
ENDMDL
MODEL 3
REMARK VINA RESULT:      -8.7      6.914      9.102
REMARK  Name = 
REMARK  4 active torsions:
REMARK  status: ('A' for Active; 'I' for Inactive)
REMARK    1  A    between atoms: C_1  and  O_2
REMARK    2  A    between atoms: O_2  and  C_3
REMARK    3  A    between atoms: C_5  and  C_6
REMARK    4  A    between atoms: C_19  and  C_21
REMARK                            x       y       z     vdW  Elec       q    Type
REMARK                         _______ _______ _______ _____ _____    ______ ____
ROOT
ATOM      1  C   UNL     1      -0.346  12.197  19.984  0.00  0.00    +0.000 C 
ATOM      2  C   UNL     1      -0.560  11.132  21.114  0.00  0.00    +0.000 A 
ATOM      3  C   UNL     1      -1.190  11.195  22.347  0.00  0.00    +0.000 A 
ATOM      4  C   UNL     1      -0.943  10.161  23.270  0.00  0.00    +0.000 A 
ATOM      5  C   UNL     1      -0.085   9.084  22.966  0.00  0.00    +0.000 A 
ATOM      6  C   UNL     1       0.488   8.982  21.708  0.00  0.00    +0.000 A 
ATOM      7  C   UNL     1       0.196   9.987  20.805  0.00  0.00    +0.000 A 
ATOM      8  C   UNL     1       0.968  10.264  19.597  0.00  0.00    +0.000 C 
ATOM      9  O   UNL     1       1.713   9.482  19.042  0.00  0.00    +0.000 OA
ATOM     10  N   UNL     1       0.930  11.645  19.459  0.00  0.00    +0.000 N 
ATOM     11  C   UNL     1       2.024  12.233  20.305  0.00  0.00    +0.000 C 
ATOM     12  C   UNL     1       1.298  13.251  21.206  0.00  0.00    +0.000 C 
ATOM     13  N   UNL     1       0.168  13.546  20.387  0.00  0.00    +0.000 N 
ATOM     14  C   UNL     1       0.374  14.484  19.294  0.00  0.00    +0.000 C 
ATOM     15  O   UNL     1      -0.567  14.776  18.559  0.00  0.00    +0.000 OA
ENDROOT
BRANCH  14  16
ATOM     16  C   UNL     1       1.740  15.148  18.923  0.00  0.00    +0.000 A 
ATOM     17  C   UNL     1       2.641  14.799  17.889  0.00  0.00    +0.000 A 
ATOM     18  C   UNL     1       3.839  15.474  17.626  0.00  0.00    +0.000 A 
ATOM     19  C   UNL     1       4.188  16.548  18.422  0.00  0.00    +0.000 A 
ATOM     20  F   UNL     1       5.343  17.185  18.186  0.00  0.00    +0.000 F 
ATOM     21  C   UNL     1       3.338  16.951  19.438  0.00  0.00    +0.000 A 
ATOM     22  F   UNL     1       3.665  18.006  20.193  0.00  0.00    +0.000 F 
ATOM     23  C   UNL     1       2.131  16.268  19.684  0.00  0.00    +0.000 A 
ENDBRANCH  14  16
BRANCH   1  26
ATOM     24  C   UNL     1      -3.005  11.579  17.221  0.00  0.00    +0.000 A 
ATOM     25  C   UNL     1      -1.752  11.779  17.840  0.00  0.00    +0.000 A 
ATOM     26  C   UNL     1      -1.650  12.199  19.185  0.00  0.00    +0.000 A 
ATOM     27  C   UNL     1      -2.860  12.449  19.865  0.00  0.00    +0.000 A 
ATOM     28  C   UNL     1      -4.101  12.243  19.270  0.00  0.00    +0.000 A 
ATOM     29  C   UNL     1      -4.186  11.781  17.954  0.00  0.00    +0.000 A 
ATOM     30 CL   UNL     1      -5.768  11.397  17.390  0.00  0.00    +0.000 Cl
BRANCH  24  32
ATOM     31  C   UNL     1      -2.886   9.657  15.829  0.00  0.00    +0.000 C 
ATOM     32  O   UNL     1      -2.914  11.076  15.947  0.00  0.00    +0.000 OA
ENDBRANCH  24  32
ENDBRANCH   1  26
TORSDOF 3
ENDMDL
MODEL 4
REMARK VINA RESULT:      -8.6      8.202     10.099
REMARK  Name = 
REMARK  4 active torsions:
REMARK  status: ('A' for Active; 'I' for Inactive)
REMARK    1  A    between atoms: C_1  and  O_2
REMARK    2  A    between atoms: O_2  and  C_3
REMARK    3  A    between atoms: C_5  and  C_6
REMARK    4  A    between atoms: C_19  and  C_21
REMARK                            x       y       z     vdW  Elec       q    Type
REMARK                         _______ _______ _______ _____ _____    ______ ____
ROOT
ATOM      1  C   UNL     1      -1.753  12.774  20.471  0.00  0.00    +0.000 C 
ATOM      2  C   UNL     1      -2.901  12.754  21.537  0.00  0.00    +0.000 A 
ATOM      3  C   UNL     1      -4.098  13.446  21.631  0.00  0.00    +0.000 A 
ATOM      4  C   UNL     1      -4.770  13.442  22.868  0.00  0.00    +0.000 A 
ATOM      5  C   UNL     1      -4.258  12.756  23.988  0.00  0.00    +0.000 A 
ATOM      6  C   UNL     1      -3.099  12.004  23.876  0.00  0.00    +0.000 A 
ATOM      7  C   UNL     1      -2.480  11.989  22.639  0.00  0.00    +0.000 A 
ATOM      8  C   UNL     1      -1.096  11.585  22.411  0.00  0.00    +0.000 C 
ATOM      9  O   UNL     1      -0.430  10.898  23.159  0.00  0.00    +0.000 OA
ATOM     10  N   UNL     1      -0.646  12.416  21.395  0.00  0.00    +0.000 N 
ATOM     11  C   UNL     1      -0.178  13.705  22.012  0.00  0.00    +0.000 C 
ATOM     12  C   UNL     1      -0.973  14.792  21.262  0.00  0.00    +0.000 C 
ATOM     13  N   UNL     1      -1.230  14.110  20.035  0.00  0.00    +0.000 N 
ATOM     14  C   UNL     1      -0.146  14.067  19.066  0.00  0.00    +0.000 C 
ATOM     15  O   UNL     1      -0.315  13.494  17.991  0.00  0.00    +0.000 OA
ENDROOT
BRANCH  14  16
ATOM     16  C   UNL     1       1.282  14.663  19.286  0.00  0.00    +0.000 A 
ATOM     17  C   UNL     1       2.511  13.980  19.447  0.00  0.00    +0.000 A 
ATOM     18  C   UNL     1       3.748  14.612  19.620  0.00  0.00    +0.000 A 
ATOM     19  C   UNL     1       3.793  15.993  19.648  0.00  0.00    +0.000 A 
ATOM     20  F   UNL     1       4.972  16.602  19.833  0.00  0.00    +0.000 F 
ATOM     21  C   UNL     1       2.627  16.719  19.476  0.00  0.00    +0.000 A 
ATOM     22  F   UNL     1       2.675  18.056  19.479  0.00  0.00    +0.000 F 
ATOM     23  C   UNL     1       1.391  16.068  19.292  0.00  0.00    +0.000 A 
ENDBRANCH  14  16
BRANCH   1  26
ATOM     24  C   UNL     1      -3.658  11.360  17.395  0.00  0.00    +0.000 A 
ATOM     25  C   UNL     1      -3.384  12.106  18.562  0.00  0.00    +0.000 A 
ATOM     26  C   UNL     1      -2.236  11.856  19.347  0.00  0.00    +0.000 A 
ATOM     27  C   UNL     1      -1.401  10.798  18.930  0.00  0.00    +0.000 A 
ATOM     28  C   UNL     1      -1.653  10.066  17.774  0.00  0.00    +0.000 A 
ATOM     29  C   UNL     1      -2.767  10.357  16.982  0.00  0.00    +0.000 A 
ATOM     30 CL   UNL     1      -2.875   9.503  15.489  0.00  0.00    +0.000 Cl
BRANCH  24  32
ATOM     31  C   UNL     1      -5.846  12.284  17.492  0.00  0.00    +0.000 C 
ATOM     32  O   UNL     1      -4.759  11.805  16.706  0.00  0.00    +0.000 OA
ENDBRANCH  24  32
ENDBRANCH   1  26
TORSDOF 3
ENDMDL
MODEL 5
REMARK VINA RESULT:      -8.6      7.880      9.831
REMARK  Name = 
REMARK  4 active torsions:
REMARK  status: ('A' for Active; 'I' for Inactive)
REMARK    1  A    between atoms: C_1  and  O_2
REMARK    2  A    between atoms: O_2  and  C_3
REMARK    3  A    between atoms: C_5  and  C_6
REMARK    4  A    between atoms: C_19  and  C_21
REMARK                            x       y       z     vdW  Elec       q    Type
REMARK                         _______ _______ _______ _____ _____    ______ ____
ROOT
ATOM      1  C   UNL     1      -1.699  12.791  20.335  0.00  0.00    +0.000 C 
ATOM      2  C   UNL     1      -2.779  12.701  21.467  0.00  0.00    +0.000 A 
ATOM      3  C   UNL     1      -4.004  13.327  21.639  0.00  0.00    +0.000 A 
ATOM      4  C   UNL     1      -4.600  13.277  22.913  0.00  0.00    +0.000 A 
ATOM      5  C   UNL     1      -3.986  12.612  23.994  0.00  0.00    +0.000 A 
ATOM      6  C   UNL     1      -2.798  11.924  23.806  0.00  0.00    +0.000 A 
ATOM      7  C   UNL     1      -2.254  11.952  22.535  0.00  0.00    +0.000 A 
ATOM      8  C   UNL     1      -0.865  11.626  22.222  0.00  0.00    +0.000 C 
ATOM      9  O   UNL     1      -0.120  10.970  22.921  0.00  0.00    +0.000 OA
ATOM     10  N   UNL     1      -0.522  12.487  21.189  0.00  0.00    +0.000 N 
ATOM     11  C   UNL     1      -0.088  13.795  21.791  0.00  0.00    +0.000 C 
ATOM     12  C   UNL     1      -0.983  14.843  21.100  0.00  0.00    +0.000 C 
ATOM     13  N   UNL     1      -1.275  14.156  19.884  0.00  0.00    +0.000 N 
ATOM     14  C   UNL     1      -0.251  14.180  18.852  0.00  0.00    +0.000 C 
ATOM     15  O   UNL     1      -0.452  13.606  17.783  0.00  0.00    +0.000 OA
ENDROOT
BRANCH  14  16
ATOM     16  C   UNL     1       1.154  14.851  18.994  0.00  0.00    +0.000 A 
ATOM     17  C   UNL     1       1.488  16.086  19.599  0.00  0.00    +0.000 A 
ATOM     18  C   UNL     1       2.789  16.593  19.691  0.00  0.00    +0.000 A 
ATOM     19  C   UNL     1       3.830  15.860  19.154  0.00  0.00    +0.000 A 
ATOM     20  F   UNL     1       5.075  16.350  19.222  0.00  0.00    +0.000 F 
ATOM     21  C   UNL     1       3.571  14.633  18.565  0.00  0.00    +0.000 A 
ATOM     22  F   UNL     1       4.582  13.914  18.066  0.00  0.00    +0.000 F 
ATOM     23  C   UNL     1       2.256  14.132  18.489  0.00  0.00    +0.000 A 
ENDBRANCH  14  16
BRANCH   1  26
ATOM     24  C   UNL     1      -3.677  11.316  17.335  0.00  0.00    +0.000 A 
ATOM     25  C   UNL     1      -3.380  12.073  18.489  0.00  0.00    +0.000 A 
ATOM     26  C   UNL     1      -2.198  11.856  19.232  0.00  0.00    +0.000 A 
ATOM     27  C   UNL     1      -1.351  10.819  18.789  0.00  0.00    +0.000 A 
ATOM     28  C   UNL     1      -1.626  10.076  17.645  0.00  0.00    +0.000 A 
ATOM     29  C   UNL     1      -2.774  10.334  16.893  0.00  0.00    +0.000 A 
ATOM     30 CL   UNL     1      -2.914   9.473  15.407  0.00  0.00    +0.000 Cl
BRANCH  24  32
ATOM     31  C   UNL     1      -5.848  12.268  17.500  0.00  0.00    +0.000 C 
ATOM     32  O   UNL     1      -4.813  11.730  16.684  0.00  0.00    +0.000 OA
ENDBRANCH  24  32
ENDBRANCH   1  26
TORSDOF 3
ENDMDL
MODEL 6
REMARK VINA RESULT:      -8.5      6.153      9.412
REMARK  Name = 
REMARK  4 active torsions:
REMARK  status: ('A' for Active; 'I' for Inactive)
REMARK    1  A    between atoms: C_1  and  O_2
REMARK    2  A    between atoms: O_2  and  C_3
REMARK    3  A    between atoms: C_5  and  C_6
REMARK    4  A    between atoms: C_19  and  C_21
REMARK                            x       y       z     vdW  Elec       q    Type
REMARK                         _______ _______ _______ _____ _____    ______ ____
ROOT
ATOM      1  C   UNL     1       0.461  11.172  19.411  0.00  0.00    +0.000 C 
ATOM      2  C   UNL     1       1.367   9.965  18.989  0.00  0.00    +0.000 A 
ATOM      3  C   UNL     1       1.859   9.554  17.760  0.00  0.00    +0.000 A 
ATOM      4  C   UNL     1       2.385   8.252  17.659  0.00  0.00    +0.000 A 
ATOM      5  C   UNL     1       2.422   7.379  18.765  0.00  0.00    +0.000 A 
ATOM      6  C   UNL     1       1.997   7.812  20.011  0.00  0.00    +0.000 A 
ATOM      7  C   UNL     1       1.524   9.109  20.093  0.00  0.00    +0.000 A 
ATOM      8  C   UNL     1       0.704   9.623  21.187  0.00  0.00    +0.000 C 
ATOM      9  O   UNL     1       0.622   9.135  22.296  0.00  0.00    +0.000 OA
ATOM     10  N   UNL     1      -0.171  10.517  20.586  0.00  0.00    +0.000 N 
ATOM     11  C   UNL     1      -1.345   9.743  20.056  0.00  0.00    +0.000 C 
ATOM     12  C   UNL     1      -1.415  10.137  18.567  0.00  0.00    +0.000 C 
ATOM     13  N   UNL     1      -0.787  11.417  18.619  0.00  0.00    +0.000 N 
ATOM     14  C   UNL     1      -1.603  12.532  19.074  0.00  0.00    +0.000 C 
ATOM     15  O   UNL     1      -1.112  13.658  19.135  0.00  0.00    +0.000 OA
ENDROOT
BRANCH  14  16
ATOM     16  C   UNL     1      -3.087  12.426  19.553  0.00  0.00    +0.000 A 
ATOM     17  C   UNL     1      -4.222  11.988  18.829  0.00  0.00    +0.000 A 
ATOM     18  C   UNL     1      -5.515  11.912  19.359  0.00  0.00    +0.000 A 
ATOM     19  C   UNL     1      -5.720  12.292  20.672  0.00  0.00    +0.000 A 
ATOM     20  F   UNL     1      -6.960  12.240  21.178  0.00  0.00    +0.000 F 
ATOM     21  C   UNL     1      -4.647  12.712  21.439  0.00  0.00    +0.000 A 
ATOM     22  F   UNL     1      -4.843  13.057  22.716  0.00  0.00    +0.000 F 
ATOM     23  C   UNL     1      -3.350  12.773  20.893  0.00  0.00    +0.000 A 
ENDBRANCH  14  16
BRANCH   1  26
ATOM     24  C   UNL     1       2.809  13.920  20.835  0.00  0.00    +0.000 A 
ATOM     25  C   UNL     1       1.757  12.982  20.751  0.00  0.00    +0.000 A 
ATOM     26  C   UNL     1       1.414  12.363  19.528  0.00  0.00    +0.000 A 
ATOM     27  C   UNL     1       2.145  12.760  18.389  0.00  0.00    +0.000 A 
ATOM     28  C   UNL     1       3.193  13.672  18.462  0.00  0.00    +0.000 A 
ATOM     29  C   UNL     1       3.553  14.240  19.687  0.00  0.00    +0.000 A 
ATOM     30 CL   UNL     1       4.973  15.215  19.679  0.00  0.00    +0.000 Cl
BRANCH  24  32
ATOM     31  C   UNL     1       2.700  15.683  22.425  0.00  0.00    +0.000 C 
ATOM     32  O   UNL     1       3.067  14.342  22.115  0.00  0.00    +0.000 OA
ENDBRANCH  24  32
ENDBRANCH   1  26
TORSDOF 3
ENDMDL
MODEL 7
REMARK VINA RESULT:      -8.4      7.571     10.179
REMARK  Name = 
REMARK  4 active torsions:
REMARK  status: ('A' for Active; 'I' for Inactive)
REMARK    1  A    between atoms: C_1  and  O_2
REMARK    2  A    between atoms: O_2  and  C_3
REMARK    3  A    between atoms: C_5  and  C_6
REMARK    4  A    between atoms: C_19  and  C_21
REMARK                            x       y       z     vdW  Elec       q    Type
REMARK                         _______ _______ _______ _____ _____    ______ ____
ROOT
ATOM      1  C   UNL     1      -1.450  12.700  20.761  0.00  0.00    +0.000 C 
ATOM      2  C   UNL     1      -1.044  11.360  21.463  0.00  0.00    +0.000 A 
ATOM      3  C   UNL     1      -0.800  11.039  22.790  0.00  0.00    +0.000 A 
ATOM      4  C   UNL     1      -0.148   9.823  23.068  0.00  0.00    +0.000 A 
ATOM      5  C   UNL     1       0.251   8.943  22.041  0.00  0.00    +0.000 A 
ATOM      6  C   UNL     1      -0.056   9.227  20.720  0.00  0.00    +0.000 A 
ATOM      7  C   UNL     1      -0.735  10.407  20.476  0.00  0.00    +0.000 A 
ATOM      8  C   UNL     1      -0.819  11.060  19.172  0.00  0.00    +0.000 C 
ATOM      9  O   UNL     1      -0.632  10.520  18.101  0.00  0.00    +0.000 OA
ATOM     10  N   UNL     1      -0.802  12.419  19.453  0.00  0.00    +0.000 N 
ATOM     11  C   UNL     1       0.630  12.854  19.590  0.00  0.00    +0.000 C 
ATOM     12  C   UNL     1       0.688  13.530  20.975  0.00  0.00    +0.000 C 
ATOM     13  N   UNL     1      -0.674  13.934  21.111  0.00  0.00    +0.000 N 
ATOM     14  C   UNL     1      -1.076  15.142  20.407  0.00  0.00    +0.000 C 
ATOM     15  O   UNL     1      -2.238  15.536  20.493  0.00  0.00    +0.000 OA
ENDROOT
BRANCH  14  16
ATOM     16  C   UNL     1      -0.150  15.995  19.482  0.00  0.00    +0.000 A 
ATOM     17  C   UNL     1       1.264  16.069  19.470  0.00  0.00    +0.000 A 
ATOM     18  C   UNL     1       2.005  16.856  18.581  0.00  0.00    +0.000 A 
ATOM     19  C   UNL     1       1.332  17.626  17.651  0.00  0.00    +0.000 A 
ATOM     20  F   UNL     1       2.036  18.396  16.811  0.00  0.00    +0.000 F 
ATOM     21  C   UNL     1      -0.051  17.582  17.599  0.00  0.00    +0.000 A 
ATOM     22  F   UNL     1      -0.701  18.309  16.684  0.00  0.00    +0.000 F 
ATOM     23  C   UNL     1      -0.782  16.777  18.494  0.00  0.00    +0.000 A 
ENDBRANCH  14  16
BRANCH   1  26
ATOM     24  C   UNL     1      -5.281  12.464  20.162  0.00  0.00    +0.000 A 
ATOM     25  C   UNL     1      -3.900  12.588  19.901  0.00  0.00    +0.000 A 
ATOM     26  C   UNL     1      -2.966  12.801  20.940  0.00  0.00    +0.000 A 
ATOM     27  C   UNL     1      -3.487  12.925  22.245  0.00  0.00    +0.000 A 
ATOM     28  C   UNL     1      -4.845  12.791  22.517  0.00  0.00    +0.000 A 
ATOM     29  C   UNL     1      -5.750  12.532  21.485  0.00  0.00    +0.000 A 
ATOM     30 CL   UNL     1      -7.373  12.212  21.967  0.00  0.00    +0.000 Cl
BRANCH  24  32
ATOM     31  C   UNL     1      -6.207  10.777  18.768  0.00  0.00    +0.000 C 
ATOM     32  O   UNL     1      -6.026  12.161  19.049  0.00  0.00    +0.000 OA
ENDBRANCH  24  32
ENDBRANCH   1  26
TORSDOF 3
ENDMDL
MODEL 8
REMARK VINA RESULT:      -8.3      5.788      9.188
REMARK  Name = 
REMARK  4 active torsions:
REMARK  status: ('A' for Active; 'I' for Inactive)
REMARK    1  A    between atoms: C_1  and  O_2
REMARK    2  A    between atoms: O_2  and  C_3
REMARK    3  A    between atoms: C_5  and  C_6
REMARK    4  A    between atoms: C_19  and  C_21
REMARK                            x       y       z     vdW  Elec       q    Type
REMARK                         _______ _______ _______ _____ _____    ______ ____
ROOT
ATOM      1  C   UNL     1       0.450  11.104  19.356  0.00  0.00    +0.000 C 
ATOM      2  C   UNL     1       1.361   9.887  18.976  0.00  0.00    +0.000 A 
ATOM      3  C   UNL     1       1.863   9.440  17.763  0.00  0.00    +0.000 A 
ATOM      4  C   UNL     1       2.392   8.137  17.705  0.00  0.00    +0.000 A 
ATOM      5  C   UNL     1       2.423   7.297  18.837  0.00  0.00    +0.000 A 
ATOM      6  C   UNL     1       1.989   7.767  20.067  0.00  0.00    +0.000 A 
ATOM      7  C   UNL     1       1.513   9.065  20.107  0.00  0.00    +0.000 A 
ATOM      8  C   UNL     1       0.684   9.610  21.179  0.00  0.00    +0.000 C 
ATOM      9  O   UNL     1       0.595   9.155  22.302  0.00  0.00    +0.000 OA
ATOM     10  N   UNL     1      -0.188  10.483  20.546  0.00  0.00    +0.000 N 
ATOM     11  C   UNL     1      -1.358   9.691  20.031  0.00  0.00    +0.000 C 
ATOM     12  C   UNL     1      -1.418  10.040  18.531  0.00  0.00    +0.000 C 
ATOM     13  N   UNL     1      -0.794  11.322  18.549  0.00  0.00    +0.000 N 
ATOM     14  C   UNL     1      -1.614  12.449  18.964  0.00  0.00    +0.000 C 
ATOM     15  O   UNL     1      -1.126  13.577  18.995  0.00  0.00    +0.000 OA
ENDROOT
BRANCH  14  16
ATOM     16  C   UNL     1      -3.101  12.354  19.436  0.00  0.00    +0.000 A 
ATOM     17  C   UNL     1      -3.661  12.731  20.680  0.00  0.00    +0.000 A 
ATOM     18  C   UNL     1      -5.019  12.622  21.000  0.00  0.00    +0.000 A 
ATOM     19  C   UNL     1      -5.887  12.106  20.056  0.00  0.00    +0.000 A 
ATOM     20  F   UNL     1      -7.185  11.981  20.365  0.00  0.00    +0.000 F 
ATOM     21  C   UNL     1      -5.404  11.737  18.812  0.00  0.00    +0.000 A 
ATOM     22  F   UNL     1      -6.248  11.260  17.891  0.00  0.00    +0.000 F 
ATOM     23  C   UNL     1      -4.035  11.862  18.502  0.00  0.00    +0.000 A 
ENDBRANCH  14  16
BRANCH   1  26
ATOM     24  C   UNL     1       2.830  13.862  20.706  0.00  0.00    +0.000 A 
ATOM     25  C   UNL     1       1.781  12.918  20.655  0.00  0.00    +0.000 A 
ATOM     26  C   UNL     1       1.399  12.300  19.443  0.00  0.00    +0.000 A 
ATOM     27  C   UNL     1       2.089  12.704  18.281  0.00  0.00    +0.000 A 
ATOM     28  C   UNL     1       3.134  13.622  18.320  0.00  0.00    +0.000 A 
ATOM     29  C   UNL     1       3.532  14.189  19.533  0.00  0.00    +0.000 A 
ATOM     30 CL   UNL     1       4.945  15.172  19.479  0.00  0.00    +0.000 Cl
BRANCH  24  32
ATOM     31  C   UNL     1       2.687  15.588  22.333  0.00  0.00    +0.000 C 
ATOM     32  O   UNL     1       3.130  14.282  21.978  0.00  0.00    +0.000 OA
ENDBRANCH  24  32
ENDBRANCH   1  26
TORSDOF 3
ENDMDL
MODEL 9
REMARK VINA RESULT:      -8.3      7.462     10.149
REMARK  Name = 
REMARK  4 active torsions:
REMARK  status: ('A' for Active; 'I' for Inactive)
REMARK    1  A    between atoms: C_1  and  O_2
REMARK    2  A    between atoms: O_2  and  C_3
REMARK    3  A    between atoms: C_5  and  C_6
REMARK    4  A    between atoms: C_19  and  C_21
REMARK                            x       y       z     vdW  Elec       q    Type
REMARK                         _______ _______ _______ _____ _____    ______ ____
ROOT
ATOM      1  C   UNL     1      -1.347  12.533  21.017  0.00  0.00    +0.000 C 
ATOM      2  C   UNL     1      -0.859  11.165  21.606  0.00  0.00    +0.000 A 
ATOM      3  C   UNL     1      -0.599  10.747  22.902  0.00  0.00    +0.000 A 
ATOM      4  C   UNL     1       0.127   9.555  23.081  0.00  0.00    +0.000 A 
ATOM      5  C   UNL     1       0.584   8.793  21.986  0.00  0.00    +0.000 A 
ATOM      6  C   UNL     1       0.263   9.170  20.691  0.00  0.00    +0.000 A 
ATOM      7  C   UNL     1      -0.488  10.322  20.543  0.00  0.00    +0.000 A 
ATOM      8  C   UNL     1      -0.608  11.077  19.299  0.00  0.00    +0.000 C 
ATOM      9  O   UNL     1      -0.385  10.644  18.187  0.00  0.00    +0.000 OA
ATOM     10  N   UNL     1      -0.678  12.406  19.696  0.00  0.00    +0.000 N 
ATOM     11  C   UNL     1       0.724  12.916  19.881  0.00  0.00    +0.000 C 
ATOM     12  C   UNL     1       0.734  13.473  21.318  0.00  0.00    +0.000 C 
ATOM     13  N   UNL     1      -0.650  13.778  21.477  0.00  0.00    +0.000 N 
ATOM     14  C   UNL     1      -1.126  15.014  20.876  0.00  0.00    +0.000 C 
ATOM     15  O   UNL     1      -2.310  15.326  20.985  0.00  0.00    +0.000 OA
ENDROOT
BRANCH  14  16
ATOM     16  C   UNL     1      -0.252  16.000  20.035  0.00  0.00    +0.000 A 
ATOM     17  C   UNL     1       1.030  16.520  20.331  0.00  0.00    +0.000 A 
ATOM     18  C   UNL     1       1.742  17.389  19.496  0.00  0.00    +0.000 A 
ATOM     19  C   UNL     1       1.169  17.784  18.302  0.00  0.00    +0.000 A 
ATOM     20  F   UNL     1       1.838  18.631  17.507  0.00  0.00    +0.000 F 
ATOM     21  C   UNL     1      -0.076  17.293  17.945  0.00  0.00    +0.000 A 
ATOM     22  F   UNL     1      -0.619  17.657  16.778  0.00  0.00    +0.000 F 
ATOM     23  C   UNL     1      -0.775  16.411  18.792  0.00  0.00    +0.000 A 
ENDBRANCH  14  16
BRANCH   1  26
ATOM     24  C   UNL     1      -4.913  12.921  22.507  0.00  0.00    +0.000 A 
ATOM     25  C   UNL     1      -3.519  12.708  22.431  0.00  0.00    +0.000 A 
ATOM     26  C   UNL     1      -2.866  12.523  21.191  0.00  0.00    +0.000 A 
ATOM     27  C   UNL     1      -3.680  12.520  20.039  0.00  0.00    +0.000 A 
ATOM     28  C   UNL     1      -5.052  12.743  20.101  0.00  0.00    +0.000 A 
ATOM     29  C   UNL     1      -5.677  12.972  21.329  0.00  0.00    +0.000 A 
ATOM     30 CL   UNL     1      -7.342  13.410  21.260  0.00  0.00    +0.000 Cl
BRANCH  24  32
ATOM     31  C   UNL     1      -4.858  12.336  24.810  0.00  0.00    +0.000 C 
ATOM     32  O   UNL     1      -5.359  13.181  23.779  0.00  0.00    +0.000 OA
ENDBRANCH  24  32
ENDBRANCH   1  26
TORSDOF 3
ENDMDL
