MODEL 1
REMARK VINA RESULT:      -6.6      0.000      0.000
REMARK  Name = 
REMARK  10 active torsions:
REMARK  status: ('A' for Active; 'I' for Inactive)
REMARK    1  A    between atoms: C_1  and  C_2
REMARK    2  A    between atoms: C_2  and  C_3
REMARK    3  A    between atoms: C_5  and  C_6
REMARK    4  A    between atoms: C_6  and  C_7
REMARK    5  A    between atoms: C_14  and  S_15
REMARK    6  A    between atoms: S_15  and  C_16
REMARK    7  A    between atoms: C_18  and  C_19
REMARK    8  A    between atoms: C_19  and  C_20
REMARK    9  A    between atoms: C_21  and  O_22
REMARK   10  A    between atoms: O_22  and  C_23
REMARK                            x       y       z     vdW  Elec       q    Type
REMARK                         _______ _______ _______ _____ _____    ______ ____
ROOT
ATOM      1  C   UNL     1       1.353  10.598  19.118  0.00  0.00    +0.000 A 
ATOM      2  C   UNL     1       2.013  11.728  18.658  0.00  0.00    +0.000 A 
ATOM      3  N   UNL     1       2.554  11.805  17.373  0.00  0.00    +0.000 N 
ATOM      4  N   UNL     1       2.142  12.856  19.367  0.00  0.00    +0.000 NA
ATOM      5  C   UNL     1       1.585  12.880  20.571  0.00  0.00    +0.000 A 
ATOM      6  N   UNL     1       1.741  14.022  21.329  0.00  0.00    +0.000 N 
ATOM      7  N   UNL     1       0.924  11.870  21.117  0.00  0.00    +0.000 NA
ATOM      8  C   UNL     1       0.795  10.746  20.385  0.00  0.00    +0.000 A 
ATOM      9  H   UNL     1       3.235  11.076  17.212  0.00  0.00    +0.000 HD
ATOM     10  H   UNL     1       2.976  12.725  17.287  0.00  0.00    +0.000 HD
ATOM     11  H   UNL     1       2.570  14.516  21.032  0.00  0.00    +0.000 HD
ATOM     12  H   UNL     1       1.663  13.793  22.310  0.00  0.00    +0.000 HD
ENDROOT
BRANCH   8  13
ATOM     13  S   UNL     1      -0.213   9.472  21.151  0.00  0.00    +0.000 S 
ATOM     14  C   UNL     1      -0.636  10.253  22.735  0.00  0.00    +0.000 C 
ENDBRANCH   8  13
BRANCH   1  15
ATOM     15  C   UNL     1       1.215   9.371  18.254  0.00  0.00    +0.000 C 
BRANCH  15  18
ATOM     16  C   UNL     1       2.625   6.077  19.661  0.00  0.00    +0.000 A 
ATOM     17  C   UNL     1       1.870   7.263  19.475  0.00  0.00    +0.000 A 
ATOM     18  C   UNL     1       2.179   8.230  18.517  0.00  0.00    +0.000 A 
ATOM     19  C   UNL     1       3.331   8.039  17.759  0.00  0.00    +0.000 A 
ATOM     20  C   UNL     1       4.141   6.894  17.931  0.00  0.00    +0.000 A 
ATOM     21  C   UNL     1       3.778   5.891  18.875  0.00  0.00    +0.000 A 
BRANCH  16  23
ATOM     22  C   UNL     1       1.123   4.095  20.154  0.00  0.00    +0.000 C 
ATOM     23  C   UNL     1       2.054   5.157  20.719  0.00  0.00    +0.000 C 
ENDBRANCH  16  23
BRANCH  20  24
ATOM     24  C   UNL     1       5.356   6.754  17.029  0.00  0.00    +0.000 C 
ATOM     25  C   UNL     1       4.983   6.284  15.630  0.00  0.00    +0.000 C 
ENDBRANCH  20  24
BRANCH  21  26
ATOM     26  O   UNL     1       4.666   4.850  18.895  0.00  0.00    +0.000 OA
ATOM     27  C   UNL     1       4.355   3.605  18.303  0.00  0.00    +0.000 C 
ENDBRANCH  21  26
ENDBRANCH  15  18
ENDBRANCH   1  15
TORSDOF 6
ENDMDL
MODEL 2
REMARK VINA RESULT:      -6.5      4.575      6.858
REMARK  Name = 
REMARK  10 active torsions:
REMARK  status: ('A' for Active; 'I' for Inactive)
REMARK    1  A    between atoms: C_1  and  C_2
REMARK    2  A    between atoms: C_2  and  C_3
REMARK    3  A    between atoms: C_5  and  C_6
REMARK    4  A    between atoms: C_6  and  C_7
REMARK    5  A    between atoms: C_14  and  S_15
REMARK    6  A    between atoms: S_15  and  C_16
REMARK    7  A    between atoms: C_18  and  C_19
REMARK    8  A    between atoms: C_19  and  C_20
REMARK    9  A    between atoms: C_21  and  O_22
REMARK   10  A    between atoms: O_22  and  C_23
REMARK                            x       y       z     vdW  Elec       q    Type
REMARK                         _______ _______ _______ _____ _____    ______ ____
ROOT
ATOM      1  C   UNL     1       2.612   4.134  18.420  0.00  0.00    +0.000 A 
ATOM      2  C   UNL     1       2.642   2.800  18.796  0.00  0.00    +0.000 A 
ATOM      3  N   UNL     1       2.856   1.770  17.876  0.00  0.00    +0.000 N 
ATOM      4  N   UNL     1       2.528   2.378  20.061  0.00  0.00    +0.000 NA
ATOM      5  C   UNL     1       2.398   3.308  20.998  0.00  0.00    +0.000 A 
ATOM      6  N   UNL     1       2.243   2.890  22.303  0.00  0.00    +0.000 N 
ATOM      7  N   UNL     1       2.363   4.613  20.768  0.00  0.00    +0.000 NA
ATOM      8  C   UNL     1       2.488   5.020  19.488  0.00  0.00    +0.000 A 
ATOM      9  H   UNL     1       2.158   1.774  17.144  0.00  0.00    +0.000 HD
ATOM     10  H   UNL     1       2.832   0.900  18.399  0.00  0.00    +0.000 HD
ATOM     11  H   UNL     1       1.862   1.954  22.316  0.00  0.00    +0.000 HD
ATOM     12  H   UNL     1       1.755   3.597  22.833  0.00  0.00    +0.000 HD
ENDROOT
BRANCH   8  13
ATOM     13  S   UNL     1       2.549   6.802  19.278  0.00  0.00    +0.000 S 
ATOM     14  C   UNL     1       1.623   7.366  20.735  0.00  0.00    +0.000 C 
ENDBRANCH   8  13
BRANCH   1  15
ATOM     15  C   UNL     1       2.778   4.542  16.980  0.00  0.00    +0.000 C 
BRANCH  15  18
ATOM     16  C   UNL     1       5.840   4.196  14.672  0.00  0.00    +0.000 A 
ATOM     17  C   UNL     1       4.597   3.988  15.320  0.00  0.00    +0.000 A 
ATOM     18  C   UNL     1       4.197   4.685  16.462  0.00  0.00    +0.000 A 
ATOM     19  C   UNL     1       5.108   5.578  17.021  0.00  0.00    +0.000 A 
ATOM     20  C   UNL     1       6.376   5.793  16.438  0.00  0.00    +0.000 A 
ATOM     21  C   UNL     1       6.743   5.114  15.241  0.00  0.00    +0.000 A 
BRANCH  16  23
ATOM     22  C   UNL     1       4.957   3.641  12.362  0.00  0.00    +0.000 C 
ATOM     23  C   UNL     1       6.015   3.364  13.419  0.00  0.00    +0.000 C 
ENDBRANCH  16  23
BRANCH  20  24
ATOM     24  C   UNL     1       7.285   6.817  17.098  0.00  0.00    +0.000 C 
ATOM     25  C   UNL     1       7.704   6.394  18.499  0.00  0.00    +0.000 C 
ENDBRANCH  20  24
BRANCH  21  26
ATOM     26  O   UNL     1       7.996   5.456  14.812  0.00  0.00    +0.000 OA
ATOM     27  C   UNL     1       8.272   5.675  13.443  0.00  0.00    +0.000 C 
ENDBRANCH  21  26
ENDBRANCH  15  18
ENDBRANCH   1  15
TORSDOF 6
ENDMDL
MODEL 3
REMARK VINA RESULT:      -6.5      0.247      2.637
REMARK  Name = 
REMARK  10 active torsions:
REMARK  status: ('A' for Active; 'I' for Inactive)
REMARK    1  A    between atoms: C_1  and  C_2
REMARK    2  A    between atoms: C_2  and  C_3
REMARK    3  A    between atoms: C_5  and  C_6
REMARK    4  A    between atoms: C_6  and  C_7
REMARK    5  A    between atoms: C_14  and  S_15
REMARK    6  A    between atoms: S_15  and  C_16
REMARK    7  A    between atoms: C_18  and  C_19
REMARK    8  A    between atoms: C_19  and  C_20
REMARK    9  A    between atoms: C_21  and  O_22
REMARK   10  A    between atoms: O_22  and  C_23
REMARK                            x       y       z     vdW  Elec       q    Type
REMARK                         _______ _______ _______ _____ _____    ______ ____
ROOT
ATOM      1  C   UNL     1       1.346  10.611  19.025  0.00  0.00    +0.000 A 
ATOM      2  C   UNL     1       2.082  11.706  18.599  0.00  0.00    +0.000 A 
ATOM      3  N   UNL     1       2.619  11.788  17.312  0.00  0.00    +0.000 N 
ATOM      4  N   UNL     1       2.297  12.797  19.344  0.00  0.00    +0.000 NA
ATOM      5  C   UNL     1       1.751  12.820  20.553  0.00  0.00    +0.000 A 
ATOM      6  N   UNL     1       1.993  13.920  21.348  0.00  0.00    +0.000 N 
ATOM      7  N   UNL     1       1.022  11.841  21.071  0.00  0.00    +0.000 NA
ATOM      8  C   UNL     1       0.808  10.755  20.302  0.00  0.00    +0.000 A 
ATOM      9  H   UNL     1       3.245  11.018  17.120  0.00  0.00    +0.000 HD
ATOM     10  H   UNL     1       3.106  12.678  17.253  0.00  0.00    +0.000 HD
ATOM     11  H   UNL     1       2.854  14.364  21.060  0.00  0.00    +0.000 HD
ATOM     12  H   UNL     1       1.905  13.664  22.321  0.00  0.00    +0.000 HD
ENDROOT
BRANCH   8  13
ATOM     13  S   UNL     1      -0.284   9.531  21.033  0.00  0.00    +0.000 S 
ATOM     14  C   UNL     1      -0.341  10.088  22.761  0.00  0.00    +0.000 C 
ENDBRANCH   8  13
BRANCH   1  15
ATOM     15  C   UNL     1       1.114   9.428  18.122  0.00  0.00    +0.000 C 
BRANCH  15  18
ATOM     16  C   UNL     1       4.090   6.996  17.895  0.00  0.00    +0.000 A 
ATOM     17  C   UNL     1       3.145   8.016  17.620  0.00  0.00    +0.000 A 
ATOM     18  C   UNL     1       1.974   8.201  18.358  0.00  0.00    +0.000 A 
ATOM     19  C   UNL     1       1.702   7.284  19.370  0.00  0.00    +0.000 A 
ATOM     20  C   UNL     1       2.591   6.226  19.660  0.00  0.00    +0.000 A 
ATOM     21  C   UNL     1       3.808   6.087  18.933  0.00  0.00    +0.000 A 
BRANCH  16  23
ATOM     22  C   UNL     1       5.193   6.121  15.787  0.00  0.00    +0.000 C 
ATOM     23  C   UNL     1       5.306   7.040  16.994  0.00  0.00    +0.000 C 
ENDBRANCH  16  23
BRANCH  20  24
ATOM     24  C   UNL     1       2.227   5.300  20.809  0.00  0.00    +0.000 C 
ATOM     25  C   UNL     1       1.136   4.309  20.426  0.00  0.00    +0.000 C 
ENDBRANCH  20  24
BRANCH  21  26
ATOM     26  O   UNL     1       4.550   5.020  19.358  0.00  0.00    +0.000 OA
ATOM     27  C   UNL     1       4.587   3.811  18.626  0.00  0.00    +0.000 C 
ENDBRANCH  21  26
ENDBRANCH  15  18
ENDBRANCH   1  15
TORSDOF 6
ENDMDL
MODEL 4
REMARK VINA RESULT:      -6.4      2.178      3.646
REMARK  Name = 
REMARK  10 active torsions:
REMARK  status: ('A' for Active; 'I' for Inactive)
REMARK    1  A    between atoms: C_1  and  C_2
REMARK    2  A    between atoms: C_2  and  C_3
REMARK    3  A    between atoms: C_5  and  C_6
REMARK    4  A    between atoms: C_6  and  C_7
REMARK    5  A    between atoms: C_14  and  S_15
REMARK    6  A    between atoms: S_15  and  C_16
REMARK    7  A    between atoms: C_18  and  C_19
REMARK    8  A    between atoms: C_19  and  C_20
REMARK    9  A    between atoms: C_21  and  O_22
REMARK   10  A    between atoms: O_22  and  C_23
REMARK                            x       y       z     vdW  Elec       q    Type
REMARK                         _______ _______ _______ _____ _____    ______ ____
ROOT
ATOM      1  C   UNL     1       1.146   8.954  19.837  0.00  0.00    +0.000 A 
ATOM      2  C   UNL     1       1.173   9.500  18.563  0.00  0.00    +0.000 A 
ATOM      3  N   UNL     1       2.170   9.183  17.637  0.00  0.00    +0.000 N 
ATOM      4  N   UNL     1       0.234  10.325  18.084  0.00  0.00    +0.000 NA
ATOM      5  C   UNL     1      -0.785  10.610  18.884  0.00  0.00    +0.000 A 
ATOM      6  N   UNL     1      -1.743  11.486  18.420  0.00  0.00    +0.000 N 
ATOM      7  N   UNL     1      -0.928  10.146  20.118  0.00  0.00    +0.000 NA
ATOM      8  C   UNL     1       0.023   9.310  20.580  0.00  0.00    +0.000 A 
ATOM      9  H   UNL     1       3.091   9.408  17.989  0.00  0.00    +0.000 HD
ATOM     10  H   UNL     1       1.964   9.709  16.792  0.00  0.00    +0.000 HD
ATOM     11  H   UNL     1      -1.342  12.081  17.709  0.00  0.00    +0.000 HD
ATOM     12  H   UNL     1      -2.200  11.937  19.199  0.00  0.00    +0.000 HD
ENDROOT
BRANCH   8  13
ATOM     13  S   UNL     1      -0.309   8.637  22.212  0.00  0.00    +0.000 S 
ATOM     14  C   UNL     1      -0.709  10.143  23.145  0.00  0.00    +0.000 C 
ENDBRANCH   8  13
BRANCH   1  15
ATOM     15  C   UNL     1       2.220   8.006  20.302  0.00  0.00    +0.000 C 
BRANCH  15  18
ATOM     16  C   UNL     1       3.201   5.002  18.104  0.00  0.00    +0.000 A 
ATOM     17  C   UNL     1       3.017   6.314  18.609  0.00  0.00    +0.000 A 
ATOM     18  C   UNL     1       2.212   6.610  19.710  0.00  0.00    +0.000 A 
ATOM     19  C   UNL     1       1.506   5.559  20.290  0.00  0.00    +0.000 A 
ATOM     20  C   UNL     1       1.623   4.239  19.801  0.00  0.00    +0.000 A 
ATOM     21  C   UNL     1       2.493   3.948  18.712  0.00  0.00    +0.000 A 
BRANCH  16  23
ATOM     22  C   UNL     1       5.597   4.625  17.366  0.00  0.00    +0.000 C 
ATOM     23  C   UNL     1       4.169   4.932  16.941  0.00  0.00    +0.000 C 
ENDBRANCH  16  23
BRANCH  20  24
ATOM     24  C   UNL     1       0.843   3.153  20.526  0.00  0.00    +0.000 C 
ATOM     25  C   UNL     1       1.565   2.662  21.773  0.00  0.00    +0.000 C 
ENDBRANCH  20  24
BRANCH  21  26
ATOM     26  O   UNL     1       2.491   2.620  18.385  0.00  0.00    +0.000 OA
ATOM     27  C   UNL     1       3.591   1.786  18.690  0.00  0.00    +0.000 C 
ENDBRANCH  21  26
ENDBRANCH  15  18
ENDBRANCH   1  15
TORSDOF 6
ENDMDL
MODEL 5
REMARK VINA RESULT:      -6.3      4.095      6.894
REMARK  Name = 
REMARK  10 active torsions:
REMARK  status: ('A' for Active; 'I' for Inactive)
REMARK    1  A    between atoms: C_1  and  C_2
REMARK    2  A    between atoms: C_2  and  C_3
REMARK    3  A    between atoms: C_5  and  C_6
REMARK    4  A    between atoms: C_6  and  C_7
REMARK    5  A    between atoms: C_14  and  S_15
REMARK    6  A    between atoms: S_15  and  C_16
REMARK    7  A    between atoms: C_18  and  C_19
REMARK    8  A    between atoms: C_19  and  C_20
REMARK    9  A    between atoms: C_21  and  O_22
REMARK   10  A    between atoms: O_22  and  C_23
REMARK                            x       y       z     vdW  Elec       q    Type
REMARK                         _______ _______ _______ _____ _____    ______ ____
ROOT
ATOM      1  C   UNL     1       5.201   6.204  17.007  0.00  0.00    +0.000 A 
ATOM      2  C   UNL     1       6.446   6.778  17.212  0.00  0.00    +0.000 A 
ATOM      3  N   UNL     1       6.641   8.162  17.198  0.00  0.00    +0.000 N 
ATOM      4  N   UNL     1       7.552   6.080  17.496  0.00  0.00    +0.000 NA
ATOM      5  C   UNL     1       7.425   4.763  17.601  0.00  0.00    +0.000 A 
ATOM      6  N   UNL     1       8.562   4.026  17.857  0.00  0.00    +0.000 N 
ATOM      7  N   UNL     1       6.291   4.099  17.435  0.00  0.00    +0.000 NA
ATOM      8  C   UNL     1       5.185   4.819  17.158  0.00  0.00    +0.000 A 
ATOM      9  H   UNL     1       6.357   8.568  16.317  0.00  0.00    +0.000 HD
ATOM     10  H   UNL     1       7.629   8.320  17.372  0.00  0.00    +0.000 HD
ATOM     11  H   UNL     1       9.375   4.536  17.544  0.00  0.00    +0.000 HD
ATOM     12  H   UNL     1       8.443   3.084  17.512  0.00  0.00    +0.000 HD
ENDROOT
BRANCH   8  13
ATOM     13  S   UNL     1       3.673   3.854  17.065  0.00  0.00    +0.000 S 
ATOM     14  C   UNL     1       3.904   2.694  18.442  0.00  0.00    +0.000 C 
ENDBRANCH   8  13
BRANCH   1  15
ATOM     15  C   UNL     1       3.989   7.052  16.722  0.00  0.00    +0.000 C 
BRANCH  15  18
ATOM     16  C   UNL     1       1.620   9.156  18.908  0.00  0.00    +0.000 A 
ATOM     17  C   UNL     1       2.552   8.743  17.924  0.00  0.00    +0.000 A 
ATOM     18  C   UNL     1       3.152   7.483  17.912  0.00  0.00    +0.000 A 
ATOM     19  C   UNL     1       2.861   6.623  18.969  0.00  0.00    +0.000 A 
ATOM     20  C   UNL     1       1.970   7.000  19.997  0.00  0.00    +0.000 A 
ATOM     21  C   UNL     1       1.324   8.269  19.961  0.00  0.00    +0.000 A 
BRANCH  16  23
ATOM     22  C   UNL     1      -0.434  10.554  18.404  0.00  0.00    +0.000 C 
ATOM     23  C   UNL     1       1.064  10.544  18.670  0.00  0.00    +0.000 C 
ENDBRANCH  16  23
BRANCH  20  24
ATOM     24  C   UNL     1       1.684   5.978  21.085  0.00  0.00    +0.000 C 
ATOM     25  C   UNL     1       1.403   4.595  20.516  0.00  0.00    +0.000 C 
ENDBRANCH  20  24
BRANCH  21  26
ATOM     26  O   UNL     1       0.485   8.457  21.025  0.00  0.00    +0.000 OA
ATOM     27  C   UNL     1       0.818   9.340  22.077  0.00  0.00    +0.000 C 
ENDBRANCH  21  26
ENDBRANCH  15  18
ENDBRANCH   1  15
TORSDOF 6
ENDMDL
MODEL 6
REMARK VINA RESULT:      -6.3      4.094      6.621
REMARK  Name = 
REMARK  10 active torsions:
REMARK  status: ('A' for Active; 'I' for Inactive)
REMARK    1  A    between atoms: C_1  and  C_2
REMARK    2  A    between atoms: C_2  and  C_3
REMARK    3  A    between atoms: C_5  and  C_6
REMARK    4  A    between atoms: C_6  and  C_7
REMARK    5  A    between atoms: C_14  and  S_15
REMARK    6  A    between atoms: S_15  and  C_16
REMARK    7  A    between atoms: C_18  and  C_19
REMARK    8  A    between atoms: C_19  and  C_20
REMARK    9  A    between atoms: C_21  and  O_22
REMARK   10  A    between atoms: O_22  and  C_23
REMARK                            x       y       z     vdW  Elec       q    Type
REMARK                         _______ _______ _______ _____ _____    ______ ____
ROOT
ATOM      1  C   UNL     1       5.263   6.277  16.954  0.00  0.00    +0.000 A 
ATOM      2  C   UNL     1       6.502   6.832  17.238  0.00  0.00    +0.000 A 
ATOM      3  N   UNL     1       6.716   8.212  17.247  0.00  0.00    +0.000 N 
ATOM      4  N   UNL     1       7.579   6.116  17.582  0.00  0.00    +0.000 NA
ATOM      5  C   UNL     1       7.428   4.801  17.668  0.00  0.00    +0.000 A 
ATOM      6  N   UNL     1       8.537   4.045  17.986  0.00  0.00    +0.000 N 
ATOM      7  N   UNL     1       6.297   4.154  17.429  0.00  0.00    +0.000 NA
ATOM      8  C   UNL     1       5.220   4.891  17.092  0.00  0.00    +0.000 A 
ATOM      9  H   UNL     1       6.491   8.629  16.354  0.00  0.00    +0.000 HD
ATOM     10  H   UNL     1       7.694   8.356  17.481  0.00  0.00    +0.000 HD
ATOM     11  H   UNL     1       9.375   4.547  17.727  0.00  0.00    +0.000 HD
ATOM     12  H   UNL     1       8.426   3.108  17.627  0.00  0.00    +0.000 HD
ENDROOT
BRANCH   8  13
ATOM     13  S   UNL     1       3.703   3.949  16.901  0.00  0.00    +0.000 S 
ATOM     14  C   UNL     1       3.863   2.736  18.243  0.00  0.00    +0.000 C 
ENDBRANCH   8  13
BRANCH   1  15
ATOM     15  C   UNL     1       4.082   7.144  16.604  0.00  0.00    +0.000 C 
BRANCH  15  18
ATOM     16  C   UNL     1       2.154   6.847  19.923  0.00  0.00    +0.000 A 
ATOM     17  C   UNL     1       2.908   6.555  18.758  0.00  0.00    +0.000 A 
ATOM     18  C   UNL     1       3.108   7.467  17.721  0.00  0.00    +0.000 A 
ATOM     19  C   UNL     1       2.469   8.701  17.819  0.00  0.00    +0.000 A 
ATOM     20  C   UNL     1       1.674   9.028  18.939  0.00  0.00    +0.000 A 
ATOM     21  C   UNL     1       1.528   8.105  20.014  0.00  0.00    +0.000 A 
BRANCH  16  23
ATOM     22  C   UNL     1       1.391   4.485  20.435  0.00  0.00    +0.000 C 
ATOM     23  C   UNL     1       2.135   5.716  20.930  0.00  0.00    +0.000 C 
ENDBRANCH  16  23
BRANCH  20  24
ATOM     24  C   UNL     1       1.050  10.414  18.974  0.00  0.00    +0.000 C 
ATOM     25  C   UNL     1      -0.338  10.435  18.349  0.00  0.00    +0.000 C 
ENDBRANCH  20  24
BRANCH  21  26
ATOM     26  O   UNL     1       0.739   8.595  21.017  0.00  0.00    +0.000 OA
ATOM     27  C   UNL     1       1.296   9.067  22.228  0.00  0.00    +0.000 C 
ENDBRANCH  21  26
ENDBRANCH  15  18
ENDBRANCH   1  15
TORSDOF 6
ENDMDL
MODEL 7
REMARK VINA RESULT:      -6.3      4.664      6.826
REMARK  Name = 
REMARK  10 active torsions:
REMARK  status: ('A' for Active; 'I' for Inactive)
REMARK    1  A    between atoms: C_1  and  C_2
REMARK    2  A    between atoms: C_2  and  C_3
REMARK    3  A    between atoms: C_5  and  C_6
REMARK    4  A    between atoms: C_6  and  C_7
REMARK    5  A    between atoms: C_14  and  S_15
REMARK    6  A    between atoms: S_15  and  C_16
REMARK    7  A    between atoms: C_18  and  C_19
REMARK    8  A    between atoms: C_19  and  C_20
REMARK    9  A    between atoms: C_21  and  O_22
REMARK   10  A    between atoms: O_22  and  C_23
REMARK                            x       y       z     vdW  Elec       q    Type
REMARK                         _______ _______ _______ _____ _____    ______ ____
ROOT
ATOM      1  C   UNL     1       2.482   4.721  18.993  0.00  0.00    +0.000 A 
ATOM      2  C   UNL     1       2.271   5.361  20.204  0.00  0.00    +0.000 A 
ATOM      3  N   UNL     1       2.251   6.754  20.318  0.00  0.00    +0.000 N 
ATOM      4  N   UNL     1       2.014   4.722  21.352  0.00  0.00    +0.000 NA
ATOM      5  C   UNL     1       1.944   3.398  21.302  0.00  0.00    +0.000 A 
ATOM      6  N   UNL     1       1.716   2.721  22.482  0.00  0.00    +0.000 N 
ATOM      7  N   UNL     1       2.119   2.673  20.207  0.00  0.00    +0.000 NA
ATOM      8  C   UNL     1       2.368   3.334  19.059  0.00  0.00    +0.000 A 
ATOM      9  H   UNL     1       3.118   7.166  20.003  0.00  0.00    +0.000 HD
ATOM     10  H   UNL     1       2.080   6.965  21.297  0.00  0.00    +0.000 HD
ATOM     11  H   UNL     1       2.021   3.287  23.262  0.00  0.00    +0.000 HD
ATOM     12  H   UNL     1       2.085   1.784  22.415  0.00  0.00    +0.000 HD
ENDROOT
BRANCH   8  13
ATOM     13  S   UNL     1       2.474   2.286  17.605  0.00  0.00    +0.000 S 
ATOM     14  C   UNL     1       3.865   1.203  18.045  0.00  0.00    +0.000 C 
ENDBRANCH   8  13
BRANCH   1  15
ATOM     15  C   UNL     1       2.735   5.504  17.731  0.00  0.00    +0.000 C 
BRANCH  15  18
ATOM     16  C   UNL     1       5.624   4.469  15.407  0.00  0.00    +0.000 A 
ATOM     17  C   UNL     1       4.408   4.494  16.134  0.00  0.00    +0.000 A 
ATOM     18  C   UNL     1       4.129   5.424  17.137  0.00  0.00    +0.000 A 
ATOM     19  C   UNL     1       5.136   6.324  17.476  0.00  0.00    +0.000 A 
ATOM     20  C   UNL     1       6.381   6.317  16.810  0.00  0.00    +0.000 A 
ATOM     21  C   UNL     1       6.626   5.397  15.751  0.00  0.00    +0.000 A 
BRANCH  16  23
ATOM     22  C   UNL     1       5.157   3.896  12.982  0.00  0.00    +0.000 C 
ATOM     23  C   UNL     1       5.663   3.405  14.330  0.00  0.00    +0.000 C 
ENDBRANCH  16  23
BRANCH  20  24
ATOM     24  C   UNL     1       7.402   7.364  17.223  0.00  0.00    +0.000 C 
ATOM     25  C   UNL     1       8.095   7.007  18.531  0.00  0.00    +0.000 C 
ENDBRANCH  20  24
BRANCH  21  26
ATOM     26  O   UNL     1       7.875   5.543  15.213  0.00  0.00    +0.000 OA
ATOM     27  C   UNL     1       8.068   5.648  13.817  0.00  0.00    +0.000 C 
ENDBRANCH  21  26
ENDBRANCH  15  18
ENDBRANCH   1  15
TORSDOF 6
ENDMDL
MODEL 8
REMARK VINA RESULT:      -6.1      5.022      7.139
REMARK  Name = 
REMARK  10 active torsions:
REMARK  status: ('A' for Active; 'I' for Inactive)
REMARK    1  A    between atoms: C_1  and  C_2
REMARK    2  A    between atoms: C_2  and  C_3
REMARK    3  A    between atoms: C_5  and  C_6
REMARK    4  A    between atoms: C_6  and  C_7
REMARK    5  A    between atoms: C_14  and  S_15
REMARK    6  A    between atoms: S_15  and  C_16
REMARK    7  A    between atoms: C_18  and  C_19
REMARK    8  A    between atoms: C_19  and  C_20
REMARK    9  A    between atoms: C_21  and  O_22
REMARK   10  A    between atoms: O_22  and  C_23
REMARK                            x       y       z     vdW  Elec       q    Type
REMARK                         _______ _______ _______ _____ _____    ______ ____
ROOT
ATOM      1  C   UNL     1       6.199   4.662  17.579  0.00  0.00    +0.000 A 
ATOM      2  C   UNL     1       5.660   3.965  16.508  0.00  0.00    +0.000 A 
ATOM      3  N   UNL     1       4.637   3.027  16.667  0.00  0.00    +0.000 N 
ATOM      4  N   UNL     1       6.020   4.161  15.233  0.00  0.00    +0.000 NA
ATOM      5  C   UNL     1       6.935   5.093  15.000  0.00  0.00    +0.000 A 
ATOM      6  N   UNL     1       7.344   5.282  13.697  0.00  0.00    +0.000 N 
ATOM      7  N   UNL     1       7.518   5.829  15.936  0.00  0.00    +0.000 NA
ATOM      8  C   UNL     1       7.137   5.625  17.213  0.00  0.00    +0.000 A 
ATOM      9  H   UNL     1       4.909   2.283  17.295  0.00  0.00    +0.000 HD
ATOM     10  H   UNL     1       4.425   2.665  15.741  0.00  0.00    +0.000 HD
ATOM     11  H   UNL     1       7.186   4.437  13.166  0.00  0.00    +0.000 HD
ATOM     12  H   UNL     1       8.275   5.672  13.684  0.00  0.00    +0.000 HD
ENDROOT
BRANCH   8  13
ATOM     13  S   UNL     1       7.888   6.742  18.401  0.00  0.00    +0.000 S 
ATOM     14  C   UNL     1       7.709   8.339  17.554  0.00  0.00    +0.000 C 
ENDBRANCH   8  13
BRANCH   1  15
ATOM     15  C   UNL     1       5.725   4.415  18.987  0.00  0.00    +0.000 C 
BRANCH  15  18
ATOM     16  C   UNL     1       2.301   4.679  20.726  0.00  0.00    +0.000 A 
ATOM     17  C   UNL     1       3.522   4.191  20.197  0.00  0.00    +0.000 A 
ATOM     18  C   UNL     1       4.348   4.936  19.354  0.00  0.00    +0.000 A 
ATOM     19  C   UNL     1       3.901   6.197  18.967  0.00  0.00    +0.000 A 
ATOM     20  C   UNL     1       2.673   6.715  19.433  0.00  0.00    +0.000 A 
ATOM     21  C   UNL     1       1.871   5.963  20.338  0.00  0.00    +0.000 A 
BRANCH  16  23
ATOM     22  C   UNL     1       1.847   2.250  21.290  0.00  0.00    +0.000 C 
ATOM     23  C   UNL     1       1.616   3.706  21.664  0.00  0.00    +0.000 C 
ENDBRANCH  16  23
BRANCH  20  24
ATOM     24  C   UNL     1       2.291   8.116  18.987  0.00  0.00    +0.000 C 
ATOM     25  C   UNL     1       2.442   8.303  17.484  0.00  0.00    +0.000 C 
ENDBRANCH  20  24
BRANCH  21  26
ATOM     26  O   UNL     1       0.729   6.624  20.695  0.00  0.00    +0.000 OA
ATOM     27  C   UNL     1       0.771   7.777  21.513  0.00  0.00    +0.000 C 
ENDBRANCH  21  26
ENDBRANCH  15  18
ENDBRANCH   1  15
TORSDOF 6
ENDMDL
MODEL 9
REMARK VINA RESULT:      -6.1      2.222      2.583
REMARK  Name = 
REMARK  10 active torsions:
REMARK  status: ('A' for Active; 'I' for Inactive)
REMARK    1  A    between atoms: C_1  and  C_2
REMARK    2  A    between atoms: C_2  and  C_3
REMARK    3  A    between atoms: C_5  and  C_6
REMARK    4  A    between atoms: C_6  and  C_7
REMARK    5  A    between atoms: C_14  and  S_15
REMARK    6  A    between atoms: S_15  and  C_16
REMARK    7  A    between atoms: C_18  and  C_19
REMARK    8  A    between atoms: C_19  and  C_20
REMARK    9  A    between atoms: C_21  and  O_22
REMARK   10  A    between atoms: O_22  and  C_23
REMARK                            x       y       z     vdW  Elec       q    Type
REMARK                         _______ _______ _______ _____ _____    ______ ____
ROOT
ATOM      1  C   UNL     1       1.158   8.925  19.822  0.00  0.00    +0.000 A 
ATOM      2  C   UNL     1       1.182   9.370  18.509  0.00  0.00    +0.000 A 
ATOM      3  N   UNL     1       2.219   9.045  17.630  0.00  0.00    +0.000 N 
ATOM      4  N   UNL     1       0.206  10.093  17.947  0.00  0.00    +0.000 NA
ATOM      5  C   UNL     1      -0.848  10.375  18.703  0.00  0.00    +0.000 A 
ATOM      6  N   UNL     1      -1.847  11.149  18.152  0.00  0.00    +0.000 N 
ATOM      7  N   UNL     1      -0.992  10.001  19.966  0.00  0.00    +0.000 NA
ATOM      8  C   UNL     1      -0.002   9.266  20.513  0.00  0.00    +0.000 A 
ATOM      9  H   UNL     1       3.115   9.355  17.981  0.00  0.00    +0.000 HD
ATOM     10  H   UNL     1       2.001   9.488  16.742  0.00  0.00    +0.000 HD
ATOM     11  H   UNL     1      -1.466  11.711  17.403  0.00  0.00    +0.000 HD
ATOM     12  H   UNL     1      -2.350  11.630  18.884  0.00  0.00    +0.000 HD
ENDROOT
BRANCH   8  13
ATOM     13  S   UNL     1      -0.331   8.704  22.186  0.00  0.00    +0.000 S 
ATOM     14  C   UNL     1      -0.755  10.266  23.012  0.00  0.00    +0.000 C 
ENDBRANCH   8  13
BRANCH   1  15
ATOM     15  C   UNL     1       2.278   8.087  20.382  0.00  0.00    +0.000 C 
BRANCH  15  18
ATOM     16  C   UNL     1       1.661   4.341  19.743  0.00  0.00    +0.000 A 
ATOM     17  C   UNL     1       1.695   5.633  20.326  0.00  0.00    +0.000 A 
ATOM     18  C   UNL     1       2.446   6.691  19.813  0.00  0.00    +0.000 A 
ATOM     19  C   UNL     1       3.253   6.429  18.709  0.00  0.00    +0.000 A 
ATOM     20  C   UNL     1       3.287   5.149  18.112  0.00  0.00    +0.000 A 
ATOM     21  C   UNL     1       2.471   4.097  18.617  0.00  0.00    +0.000 A 
BRANCH  16  23
ATOM     22  C   UNL     1       1.387   2.630  21.592  0.00  0.00    +0.000 C 
ATOM     23  C   UNL     1       0.725   3.383  20.448  0.00  0.00    +0.000 C 
ENDBRANCH  16  23
BRANCH  20  24
ATOM     24  C   UNL     1       4.169   4.972  16.887  0.00  0.00    +0.000 C 
ATOM     25  C   UNL     1       5.650   4.967  17.239  0.00  0.00    +0.000 C 
ENDBRANCH  20  24
BRANCH  21  26
ATOM     26  O   UNL     1       2.621   2.937  17.909  0.00  0.00    +0.000 OA
ATOM     27  C   UNL     1       3.345   1.842  18.434  0.00  0.00    +0.000 C 
ENDBRANCH  21  26
ENDBRANCH  15  18
ENDBRANCH   1  15
TORSDOF 6
ENDMDL
