MODEL 1
REMARK VINA RESULT:      -8.3      0.000      0.000
REMARK  Name = 
REMARK  5 active torsions:
REMARK  status: ('A' for Active; 'I' for Inactive)
REMARK    1  A    between atoms: S_2  and  N_4
REMARK    2  A    between atoms: S_2  and  C_10
REMARK    3  A    between atoms: C_14  and  N_15
REMARK    4  A    between atoms: N_15  and  S_16
REMARK    5  A    between atoms: S_16  and  C_19
REMARK                            x       y       z     vdW  Elec       q    Type
REMARK                         _______ _______ _______ _____ _____    ______ ____
ROOT
ATOM      1  C   UNL     1       1.353   8.424  20.313  0.00  0.00    +0.000 A 
ATOM      2  C   UNL     1       1.366   9.017  19.042  0.00  0.00    +0.000 A 
ATOM      3  C   UNL     1       2.110   8.447  18.015  0.00  0.00    +0.000 A 
ATOM      4  C   UNL     1       2.853   7.296  18.264  0.00  0.00    +0.000 A 
ATOM      5  C   UNL     1       2.833   6.703  19.527  0.00  0.00    +0.000 A 
ATOM      6  C   UNL     1       2.091   7.263  20.569  0.00  0.00    +0.000 A 
ENDROOT
BRANCH   1   8
ATOM      7  O   UNL     1       1.328   9.561  22.670  0.00  0.00    +0.000 OA
ATOM      8  S   UNL     1       0.417   9.209  21.604  0.00  0.00    +0.000 S 
ATOM      9  O   UNL     1      -0.741   8.375  21.852  0.00  0.00    +0.000 OA
BRANCH   8  10
ATOM     10  N   UNL     1      -0.136  10.623  20.927  0.00  0.00    +0.000 N 
ATOM     11  C   UNL     1      -1.126  11.453  21.444  0.00  0.00    +0.000 C 
ATOM     12  N   UNL     1      -1.862  12.145  20.642  0.00  0.00    +0.000 NA
ATOM     13  C   UNL     1      -2.735  12.957  21.516  0.00  0.00    +0.000 C 
ATOM     14  C   UNL     1      -2.630  12.366  22.911  0.00  0.00    +0.000 C 
ATOM     15  C   UNL     1      -1.292  11.677  22.907  0.00  0.00    +0.000 C 
ATOM     16  H   UNL     1      -0.013  10.648  19.917  0.00  0.00    +0.000 HD
ENDBRANCH   8  10
ENDBRANCH   1   8
BRANCH   5  17
ATOM     17  N   UNL     1       3.639   5.560  19.728  0.00  0.00    +0.000 N 
ATOM     18  H   UNL     1       4.136   5.430  20.608  0.00  0.00    +0.000 HD
BRANCH  17  19
ATOM     19  S   UNL     1       3.458   4.195  18.777  0.00  0.00    +0.000 S 
ATOM     20  O   UNL     1       3.757   3.063  19.624  0.00  0.00    +0.000 OA
ATOM     21  O   UNL     1       2.205   4.295  18.059  0.00  0.00    +0.000 OA
BRANCH  19  22
ATOM     22  C   UNL     1       4.787   4.307  17.596  0.00  0.00    +0.000 A 
ATOM     23  C   UNL     1       6.071   4.671  18.022  0.00  0.00    +0.000 A 
ATOM     24  C   UNL     1       7.090   4.836  17.081  0.00  0.00    +0.000 A 
ATOM     25  C   UNL     1       6.820   4.636  15.729  0.00  0.00    +0.000 A 
ATOM     26  F   UNL     1       7.811   4.811  14.844  0.00  0.00    +0.000 F 
ATOM     27  C   UNL     1       5.541   4.270  15.306  0.00  0.00    +0.000 A 
ATOM     28 CL   UNL     1       5.211   4.025  13.634  0.00  0.00    +0.000 Cl
ATOM     29  C   UNL     1       4.514   4.106  16.237  0.00  0.00    +0.000 A 
ENDBRANCH  19  22
ENDBRANCH  17  19
ENDBRANCH   5  17
TORSDOF 5
ENDMDL
MODEL 2
REMARK VINA RESULT:      -8.2      5.244      9.468
REMARK  Name = 
REMARK  5 active torsions:
REMARK  status: ('A' for Active; 'I' for Inactive)
REMARK    1  A    between atoms: S_2  and  N_4
REMARK    2  A    between atoms: S_2  and  C_10
REMARK    3  A    between atoms: C_14  and  N_15
REMARK    4  A    between atoms: N_15  and  S_16
REMARK    5  A    between atoms: S_16  and  C_19
REMARK                            x       y       z     vdW  Elec       q    Type
REMARK                         _______ _______ _______ _____ _____    ______ ____
ROOT
ATOM      1  C   UNL     1       2.479   7.648  18.697  0.00  0.00    +0.000 A 
ATOM      2  C   UNL     1       2.398   8.591  17.661  0.00  0.00    +0.000 A 
ATOM      3  C   UNL     1       1.572   9.701  17.792  0.00  0.00    +0.000 A 
ATOM      4  C   UNL     1       0.817   9.861  18.951  0.00  0.00    +0.000 A 
ATOM      5  C   UNL     1       0.904   8.927  19.984  0.00  0.00    +0.000 A 
ATOM      6  C   UNL     1       1.728   7.806  19.867  0.00  0.00    +0.000 A 
ENDROOT
BRANCH   1   8
ATOM      7  O   UNL     1       3.923   5.750  19.774  0.00  0.00    +0.000 OA
ATOM      8  S   UNL     1       3.520   6.225  18.470  0.00  0.00    +0.000 S 
ATOM      9  O   UNL     1       4.500   6.576  17.463  0.00  0.00    +0.000 OA
BRANCH   8  10
ATOM     10  N   UNL     1       2.523   5.074  17.802  0.00  0.00    +0.000 N 
ATOM     11  C   UNL     1       1.857   4.063  18.487  0.00  0.00    +0.000 C 
ATOM     12  N   UNL     1       1.611   2.944  17.893  0.00  0.00    +0.000 NA
ATOM     13  C   UNL     1       0.836   2.147  18.868  0.00  0.00    +0.000 C 
ATOM     14  C   UNL     1       0.984   2.836  20.213  0.00  0.00    +0.000 C 
ATOM     15  C   UNL     1       1.294   4.264  19.851  0.00  0.00    +0.000 C 
ATOM     16  H   UNL     1       2.742   4.885  16.826  0.00  0.00    +0.000 HD
ENDBRANCH   8  10
ENDBRANCH   1   8
BRANCH   5  17
ATOM     17  N   UNL     1       0.082   9.123  21.116  0.00  0.00    +0.000 N 
ATOM     18  H   UNL     1      -0.476   8.354  21.485  0.00  0.00    +0.000 HD
BRANCH  17  19
ATOM     19  S   UNL     1       0.324  10.418  22.148  0.00  0.00    +0.000 S 
ATOM     20  O   UNL     1       0.395   9.870  23.483  0.00  0.00    +0.000 OA
ATOM     21  O   UNL     1       1.384  11.245  21.611  0.00  0.00    +0.000 OA
BRANCH  19  22
ATOM     22  C   UNL     1      -1.199  11.337  22.059  0.00  0.00    +0.000 A 
ATOM     23  C   UNL     1      -1.575  11.951  20.857  0.00  0.00    +0.000 A 
ATOM     24  C   UNL     1      -2.728  12.738  20.816  0.00  0.00    +0.000 A 
ATOM     25  C   UNL     1      -3.494  12.903  21.968  0.00  0.00    +0.000 A 
ATOM     26  F   UNL     1      -4.590  13.672  21.906  0.00  0.00    +0.000 F 
ATOM     27  C   UNL     1      -3.119  12.288  23.164  0.00  0.00    +0.000 A 
ATOM     28 CL   UNL     1      -4.066  12.496  24.586  0.00  0.00    +0.000 Cl
ATOM     29  C   UNL     1      -1.966  11.503  23.218  0.00  0.00    +0.000 A 
ENDBRANCH  19  22
ENDBRANCH  17  19
ENDBRANCH   5  17
TORSDOF 5
ENDMDL
MODEL 3
REMARK VINA RESULT:      -8.2      1.652      1.963
REMARK  Name = 
REMARK  5 active torsions:
REMARK  status: ('A' for Active; 'I' for Inactive)
REMARK    1  A    between atoms: S_2  and  N_4
REMARK    2  A    between atoms: S_2  and  C_10
REMARK    3  A    between atoms: C_14  and  N_15
REMARK    4  A    between atoms: N_15  and  S_16
REMARK    5  A    between atoms: S_16  and  C_19
REMARK                            x       y       z     vdW  Elec       q    Type
REMARK                         _______ _______ _______ _____ _____    ______ ____
ROOT
ATOM      1  C   UNL     1       1.084   9.205  19.996  0.00  0.00    +0.000 A 
ATOM      2  C   UNL     1       1.324   9.501  18.647  0.00  0.00    +0.000 A 
ATOM      3  C   UNL     1       2.023   8.602  17.849  0.00  0.00    +0.000 A 
ATOM      4  C   UNL     1       2.495   7.416  18.405  0.00  0.00    +0.000 A 
ATOM      5  C   UNL     1       2.249   7.119  19.746  0.00  0.00    +0.000 A 
ATOM      6  C   UNL     1       1.549   8.011  20.560  0.00  0.00    +0.000 A 
ENDROOT
BRANCH   1   8
ATOM      7  O   UNL     1       1.179  11.368  21.466  0.00  0.00    +0.000 OA
ATOM      8  S   UNL     1       0.218  10.400  20.986  0.00  0.00    +0.000 S 
ATOM      9  O   UNL     1      -0.622   9.659  21.904  0.00  0.00    +0.000 OA
BRANCH   8  10
ATOM     10  N   UNL     1      -0.792  11.181  19.921  0.00  0.00    +0.000 N 
ATOM     11  C   UNL     1      -1.940  11.896  20.247  0.00  0.00    +0.000 C 
ATOM     12  N   UNL     1      -2.916  11.956  19.406  0.00  0.00    +0.000 NA
ATOM     13  C   UNL     1      -3.918  12.845  20.032  0.00  0.00    +0.000 C 
ATOM     14  C   UNL     1      -3.521  12.993  21.490  0.00  0.00    +0.000 C 
ATOM     15  C   UNL     1      -2.042  12.712  21.489  0.00  0.00    +0.000 C 
ATOM     16  H   UNL     1      -0.768  10.773  18.989  0.00  0.00    +0.000 HD
ENDBRANCH   8  10
ENDBRANCH   1   8
BRANCH   5  17
ATOM     17  N   UNL     1       2.789   5.919  20.261  0.00  0.00    +0.000 N 
ATOM     18  H   UNL     1       2.952   5.817  21.262  0.00  0.00    +0.000 HD
BRANCH  17  19
ATOM     19  S   UNL     1       2.750   4.501  19.373  0.00  0.00    +0.000 S 
ATOM     20  O   UNL     1       2.908   3.421  20.320  0.00  0.00    +0.000 OA
ATOM     21  O   UNL     1       1.623   4.554  18.466  0.00  0.00    +0.000 OA
BRANCH  19  22
ATOM     22  C   UNL     1       4.245   4.549  18.408  0.00  0.00    +0.000 A 
ATOM     23  C   UNL     1       4.256   4.022  17.109  0.00  0.00    +0.000 A 
ATOM     24  C   UNL     1       5.451   3.989  16.388  0.00  0.00    +0.000 A 
ATOM     25  C   UNL     1       6.620   4.481  16.963  0.00  0.00    +0.000 A 
ATOM     26  F   UNL     1       7.756   4.428  16.255  0.00  0.00    +0.000 F 
ATOM     27  C   UNL     1       6.608   5.009  18.256  0.00  0.00    +0.000 A 
ATOM     28 CL   UNL     1       8.054   5.615  18.965  0.00  0.00    +0.000 Cl
ATOM     29  C   UNL     1       5.420   5.044  18.988  0.00  0.00    +0.000 A 
ENDBRANCH  19  22
ENDBRANCH  17  19
ENDBRANCH   5  17
TORSDOF 5
ENDMDL
MODEL 4
REMARK VINA RESULT:      -8.1      1.103      1.213
REMARK  Name = 
REMARK  5 active torsions:
REMARK  status: ('A' for Active; 'I' for Inactive)
REMARK    1  A    between atoms: S_2  and  N_4
REMARK    2  A    between atoms: S_2  and  C_10
REMARK    3  A    between atoms: C_14  and  N_15
REMARK    4  A    between atoms: N_15  and  S_16
REMARK    5  A    between atoms: S_16  and  C_19
REMARK                            x       y       z     vdW  Elec       q    Type
REMARK                         _______ _______ _______ _____ _____    ______ ____
ROOT
ATOM      1  C   UNL     1       1.161   9.264  19.886  0.00  0.00    +0.000 A 
ATOM      2  C   UNL     1       1.399   9.610  18.548  0.00  0.00    +0.000 A 
ATOM      3  C   UNL     1       2.127   8.757  17.726  0.00  0.00    +0.000 A 
ATOM      4  C   UNL     1       2.629   7.567  18.245  0.00  0.00    +0.000 A 
ATOM      5  C   UNL     1       2.384   7.219  19.575  0.00  0.00    +0.000 A 
ATOM      6  C   UNL     1       1.656   8.066  20.413  0.00  0.00    +0.000 A 
ENDROOT
BRANCH   1   8
ATOM      7  O   UNL     1       1.194  11.363  21.448  0.00  0.00    +0.000 OA
ATOM      8  S   UNL     1       0.258  10.402  20.909  0.00  0.00    +0.000 S 
ATOM      9  O   UNL     1      -0.588   9.610  21.777  0.00  0.00    +0.000 OA
BRANCH   8  10
ATOM     10  N   UNL     1      -0.744  11.213  19.858  0.00  0.00    +0.000 N 
ATOM     11  C   UNL     1      -1.927  11.868  20.187  0.00  0.00    +0.000 C 
ATOM     12  N   UNL     1      -2.877  11.947  19.316  0.00  0.00    +0.000 NA
ATOM     13  C   UNL     1      -3.929  12.762  19.960  0.00  0.00    +0.000 C 
ATOM     14  C   UNL     1      -3.586  12.833  21.437  0.00  0.00    +0.000 C 
ATOM     15  C   UNL     1      -2.098  12.602  21.471  0.00  0.00    +0.000 C 
ATOM     16  H   UNL     1      -0.675  10.865  18.904  0.00  0.00    +0.000 HD
ENDBRANCH   8  10
ENDBRANCH   1   8
BRANCH   5  17
ATOM     17  N   UNL     1       2.954   6.018  20.054  0.00  0.00    +0.000 N 
ATOM     18  H   UNL     1       3.202   5.924  21.038  0.00  0.00    +0.000 HD
BRANCH  17  19
ATOM     19  S   UNL     1       2.822   4.592  19.189  0.00  0.00    +0.000 S 
ATOM     20  O   UNL     1       2.887   3.520  20.155  0.00  0.00    +0.000 OA
ATOM     21  O   UNL     1       1.714   4.713  18.264  0.00  0.00    +0.000 OA
BRANCH  19  22
ATOM     22  C   UNL     1       4.330   4.514  18.244  0.00  0.00    +0.000 A 
ATOM     23  C   UNL     1       5.565   4.683  18.885  0.00  0.00    +0.000 A 
ATOM     24  C   UNL     1       6.738   4.701  18.127  0.00  0.00    +0.000 A 
ATOM     25  C   UNL     1       6.670   4.550  16.744  0.00  0.00    +0.000 A 
ATOM     26  F   UNL     1       7.809   4.582  16.038  0.00  0.00    +0.000 F 
ATOM     27  C   UNL     1       5.439   4.378  16.108  0.00  0.00    +0.000 A 
ATOM     28 CL   UNL     1       5.359   4.192  14.399  0.00  0.00    +0.000 Cl
ATOM     29  C   UNL     1       4.260   4.362  16.854  0.00  0.00    +0.000 A 
ENDBRANCH  19  22
ENDBRANCH  17  19
ENDBRANCH   5  17
TORSDOF 5
ENDMDL
MODEL 5
REMARK VINA RESULT:      -8.0      2.364      2.802
REMARK  Name = 
REMARK  5 active torsions:
REMARK  status: ('A' for Active; 'I' for Inactive)
REMARK    1  A    between atoms: S_2  and  N_4
REMARK    2  A    between atoms: S_2  and  C_10
REMARK    3  A    between atoms: C_14  and  N_15
REMARK    4  A    between atoms: N_15  and  S_16
REMARK    5  A    between atoms: S_16  and  C_19
REMARK                            x       y       z     vdW  Elec       q    Type
REMARK                         _______ _______ _______ _____ _____    ______ ____
ROOT
ATOM      1  C   UNL     1       1.088   9.593  19.802  0.00  0.00    +0.000 A 
ATOM      2  C   UNL     1       1.417   9.855  18.463  0.00  0.00    +0.000 A 
ATOM      3  C   UNL     1       2.117   8.910  17.721  0.00  0.00    +0.000 A 
ATOM      4  C   UNL     1       2.501   7.714  18.320  0.00  0.00    +0.000 A 
ATOM      5  C   UNL     1       2.166   7.452  19.650  0.00  0.00    +0.000 A 
ATOM      6  C   UNL     1       1.464   8.390  20.409  0.00  0.00    +0.000 A 
ENDROOT
BRANCH   1   8
ATOM      7  O   UNL     1       1.208  11.707  21.341  0.00  0.00    +0.000 OA
ATOM      8  S   UNL     1       0.225  10.845  20.722  0.00  0.00    +0.000 S 
ATOM      9  O   UNL     1      -0.782  10.169  21.513  0.00  0.00    +0.000 OA
BRANCH   8  10
ATOM     10  N   UNL     1      -0.575  11.741  19.573  0.00  0.00    +0.000 N 
ATOM     11  C   UNL     1      -1.386  11.243  18.557  0.00  0.00    +0.000 C 
ATOM     12  N   UNL     1      -1.476  11.883  17.440  0.00  0.00    +0.000 NA
ATOM     13  C   UNL     1      -2.464  11.130  16.638  0.00  0.00    +0.000 C 
ATOM     14  C   UNL     1      -2.650   9.787  17.321  0.00  0.00    +0.000 C 
ATOM     15  C   UNL     1      -2.265  10.056  18.751  0.00  0.00    +0.000 C 
ATOM     16  H   UNL     1      -0.124  12.634  19.389  0.00  0.00    +0.000 HD
ENDBRANCH   8  10
ENDBRANCH   1   8
BRANCH   5  17
ATOM     17  N   UNL     1       2.619   6.237  20.212  0.00  0.00    +0.000 N 
ATOM     18  H   UNL     1       2.716   6.144  21.223  0.00  0.00    +0.000 HD
BRANCH  17  19
ATOM     19  S   UNL     1       2.567   4.808  19.344  0.00  0.00    +0.000 S 
ATOM     20  O   UNL     1       2.612   3.738  20.314  0.00  0.00    +0.000 OA
ATOM     21  O   UNL     1       1.504   4.900  18.365  0.00  0.00    +0.000 OA
BRANCH  19  22
ATOM     22  C   UNL     1       4.121   4.769  18.475  0.00  0.00    +0.000 A 
ATOM     23  C   UNL     1       4.192   4.205  17.195  0.00  0.00    +0.000 A 
ATOM     24  C   UNL     1       5.428   4.103  16.553  0.00  0.00    +0.000 A 
ATOM     25  C   UNL     1       6.578   4.565  17.189  0.00  0.00    +0.000 A 
ATOM     26  F   UNL     1       7.754   4.447  16.557  0.00  0.00    +0.000 F 
ATOM     27  C   UNL     1       6.506   5.131  18.464  0.00  0.00    +0.000 A 
ATOM     28 CL   UNL     1       7.928   5.699  19.249  0.00  0.00    +0.000 Cl
ATOM     29  C   UNL     1       5.276   5.233  19.117  0.00  0.00    +0.000 A 
ENDBRANCH  19  22
ENDBRANCH  17  19
ENDBRANCH   5  17
TORSDOF 5
ENDMDL
MODEL 6
REMARK VINA RESULT:      -7.9      1.805      2.224
REMARK  Name = 
REMARK  5 active torsions:
REMARK  status: ('A' for Active; 'I' for Inactive)
REMARK    1  A    between atoms: S_2  and  N_4
REMARK    2  A    between atoms: S_2  and  C_10
REMARK    3  A    between atoms: C_14  and  N_15
REMARK    4  A    between atoms: N_15  and  S_16
REMARK    5  A    between atoms: S_16  and  C_19
REMARK                            x       y       z     vdW  Elec       q    Type
REMARK                         _______ _______ _______ _____ _____    ______ ____
ROOT
ATOM      1  C   UNL     1       1.043   8.959  19.723  0.00  0.00    +0.000 A 
ATOM      2  C   UNL     1       1.370   9.408  18.436  0.00  0.00    +0.000 A 
ATOM      3  C   UNL     1       2.296   8.711  17.668  0.00  0.00    +0.000 A 
ATOM      4  C   UNL     1       2.905   7.574  18.193  0.00  0.00    +0.000 A 
ATOM      5  C   UNL     1       2.573   7.123  19.472  0.00  0.00    +0.000 A 
ATOM      6  C   UNL     1       1.646   7.813  20.255  0.00  0.00    +0.000 A 
ENDROOT
BRANCH   1   8
ATOM      7  O   UNL     1      -0.524   9.101  21.814  0.00  0.00    +0.000 OA
ATOM      8  S   UNL     1      -0.117   9.903  20.682  0.00  0.00    +0.000 S 
ATOM      9  O   UNL     1      -1.092  10.441  19.756  0.00  0.00    +0.000 OA
BRANCH   8  10
ATOM     10  N   UNL     1       0.762  11.187  21.267  0.00  0.00    +0.000 N 
ATOM     11  C   UNL     1       1.248  12.260  20.525  0.00  0.00    +0.000 C 
ATOM     12  N   UNL     1       2.335  12.850  20.892  0.00  0.00    +0.000 NA
ATOM     13  C   UNL     1       2.509  13.971  19.944  0.00  0.00    +0.000 C 
ATOM     14  C   UNL     1       1.562  13.716  18.785  0.00  0.00    +0.000 C 
ATOM     15  C   UNL     1       0.491  12.845  19.384  0.00  0.00    +0.000 C 
ATOM     16  H   UNL     1       1.282  10.954  22.110  0.00  0.00    +0.000 HD
ENDBRANCH   8  10
ENDBRANCH   1   8
BRANCH   5  17
ATOM     17  N   UNL     1       3.255   5.988  19.964  0.00  0.00    +0.000 N 
ATOM     18  H   UNL     1       3.587   5.966  20.927  0.00  0.00    +0.000 HD
BRANCH  17  19
ATOM     19  S   UNL     1       3.145   4.509  19.190  0.00  0.00    +0.000 S 
ATOM     20  O   UNL     1       3.351   3.500  20.204  0.00  0.00    +0.000 OA
ATOM     21  O   UNL     1       1.964   4.512  18.352  0.00  0.00    +0.000 OA
BRANCH  19  22
ATOM     22  C   UNL     1       4.577   4.462  18.132  0.00  0.00    +0.000 A 
ATOM     23  C   UNL     1       5.855   4.642  18.679  0.00  0.00    +0.000 A 
ATOM     24  C   UNL     1       6.967   4.685  17.834  0.00  0.00    +0.000 A 
ATOM     25  C   UNL     1       6.796   4.548  16.459  0.00  0.00    +0.000 A 
ATOM     26  F   UNL     1       7.876   4.605  15.668  0.00  0.00    +0.000 F 
ATOM     27  C   UNL     1       5.522   4.366  15.916  0.00  0.00    +0.000 A 
ATOM     28 CL   UNL     1       5.314   4.199  14.216  0.00  0.00    +0.000 Cl
ATOM     29  C   UNL     1       4.404   4.325  16.750  0.00  0.00    +0.000 A 
ENDBRANCH  19  22
ENDBRANCH  17  19
ENDBRANCH   5  17
TORSDOF 5
ENDMDL
MODEL 7
REMARK VINA RESULT:      -7.9      2.538      3.088
REMARK  Name = 
REMARK  5 active torsions:
REMARK  status: ('A' for Active; 'I' for Inactive)
REMARK    1  A    between atoms: S_2  and  N_4
REMARK    2  A    between atoms: S_2  and  C_10
REMARK    3  A    between atoms: C_14  and  N_15
REMARK    4  A    between atoms: N_15  and  S_16
REMARK    5  A    between atoms: S_16  and  C_19
REMARK                            x       y       z     vdW  Elec       q    Type
REMARK                         _______ _______ _______ _____ _____    ______ ____
ROOT
ATOM      1  C   UNL     1       1.340   9.579  19.267  0.00  0.00    +0.000 A 
ATOM      2  C   UNL     1       1.829   9.582  17.953  0.00  0.00    +0.000 A 
ATOM      3  C   UNL     1       2.496   8.468  17.455  0.00  0.00    +0.000 A 
ATOM      4  C   UNL     1       2.686   7.359  18.276  0.00  0.00    +0.000 A 
ATOM      5  C   UNL     1       2.191   7.355  19.581  0.00  0.00    +0.000 A 
ATOM      6  C   UNL     1       1.521   8.466  20.096  0.00  0.00    +0.000 A 
ENDROOT
BRANCH   1   8
ATOM      7  O   UNL     1       0.790  12.118  18.945  0.00  0.00    +0.000 OA
ATOM      8  S   UNL     1       0.527  11.040  19.872  0.00  0.00    +0.000 S 
ATOM      9  O   UNL     1       0.864  11.159  21.276  0.00  0.00    +0.000 OA
BRANCH   8  10
ATOM     10  N   UNL     1      -1.095  10.688  19.787  0.00  0.00    +0.000 N 
ATOM     11  C   UNL     1      -1.870  10.645  18.632  0.00  0.00    +0.000 C 
ATOM     12  N   UNL     1      -3.126  10.937  18.694  0.00  0.00    +0.000 NA
ATOM     13  C   UNL     1      -3.646  10.714  17.329  0.00  0.00    +0.000 C 
ATOM     14  C   UNL     1      -2.440  10.595  16.414  0.00  0.00    +0.000 C 
ATOM     15  C   UNL     1      -1.336  10.147  17.335  0.00  0.00    +0.000 C 
ATOM     16  H   UNL     1      -1.589  10.907  20.650  0.00  0.00    +0.000 HD
ENDBRANCH   8  10
ENDBRANCH   1   8
BRANCH   5  17
ATOM     17  N   UNL     1       2.451   6.216  20.377  0.00  0.00    +0.000 N 
ATOM     18  H   UNL     1       2.325   6.256  21.387  0.00  0.00    +0.000 HD
BRANCH  17  19
ATOM     19  S   UNL     1       2.517   4.686  19.703  0.00  0.00    +0.000 S 
ATOM     20  O   UNL     1       2.717   3.765  20.798  0.00  0.00    +0.000 OA
ATOM     21  O   UNL     1       1.409   4.538  18.782  0.00  0.00    +0.000 OA
BRANCH  19  22
ATOM     22  C   UNL     1       4.028   4.688  18.762  0.00  0.00    +0.000 A 
ATOM     23  C   UNL     1       4.052   4.131  17.476  0.00  0.00    +0.000 A 
ATOM     24  C   UNL     1       5.258   4.062  16.775  0.00  0.00    +0.000 A 
ATOM     25  C   UNL     1       6.425   4.549  17.359  0.00  0.00    +0.000 A 
ATOM     26  F   UNL     1       7.572   4.461  16.671  0.00  0.00    +0.000 F 
ATOM     27  C   UNL     1       6.400   5.107  18.639  0.00  0.00    +0.000 A 
ATOM     28 CL   UNL     1       7.845   5.705  19.358  0.00  0.00    +0.000 Cl
ATOM     29  C   UNL     1       5.201   5.177  19.350  0.00  0.00    +0.000 A 
ENDBRANCH  19  22
ENDBRANCH  17  19
ENDBRANCH   5  17
TORSDOF 5
ENDMDL
MODEL 8
REMARK VINA RESULT:      -7.9      2.140      2.463
REMARK  Name = 
REMARK  5 active torsions:
REMARK  status: ('A' for Active; 'I' for Inactive)
REMARK    1  A    between atoms: S_2  and  N_4
REMARK    2  A    between atoms: S_2  and  C_10
REMARK    3  A    between atoms: C_14  and  N_15
REMARK    4  A    between atoms: N_15  and  S_16
REMARK    5  A    between atoms: S_16  and  C_19
REMARK                            x       y       z     vdW  Elec       q    Type
REMARK                         _______ _______ _______ _____ _____    ______ ____
ROOT
ATOM      1  C   UNL     1       1.127   9.337  19.721  0.00  0.00    +0.000 A 
ATOM      2  C   UNL     1       1.468   9.493  18.369  0.00  0.00    +0.000 A 
ATOM      3  C   UNL     1       2.172   8.493  17.708  0.00  0.00    +0.000 A 
ATOM      4  C   UNL     1       2.548   7.346  18.401  0.00  0.00    +0.000 A 
ATOM      5  C   UNL     1       2.201   7.188  19.744  0.00  0.00    +0.000 A 
ATOM      6  C   UNL     1       1.496   8.183  20.422  0.00  0.00    +0.000 A 
ENDROOT
BRANCH   1   8
ATOM      7  O   UNL     1       0.633  10.647  21.932  0.00  0.00    +0.000 OA
ATOM      8  S   UNL     1       0.260  10.657  20.535  0.00  0.00    +0.000 S 
ATOM      9  O   UNL     1      -1.127  10.564  20.129  0.00  0.00    +0.000 OA
BRANCH   8  10
ATOM     10  N   UNL     1       0.875  12.047  19.861  0.00  0.00    +0.000 N 
ATOM     11  C   UNL     1       0.262  13.296  19.845  0.00  0.00    +0.000 C 
ATOM     12  N   UNL     1       0.494  14.109  18.870  0.00  0.00    +0.000 NA
ATOM     13  C   UNL     1      -0.240  15.346  19.211  0.00  0.00    +0.000 C 
ATOM     14  C   UNL     1      -1.197  14.992  20.336  0.00  0.00    +0.000 C 
ATOM     15  C   UNL     1      -0.558  13.793  20.984  0.00  0.00    +0.000 C 
ATOM     16  H   UNL     1       1.528  11.859  19.103  0.00  0.00    +0.000 HD
ENDBRANCH   8  10
ENDBRANCH   1   8
BRANCH   5  17
ATOM     17  N   UNL     1       2.647   6.020  20.402  0.00  0.00    +0.000 N 
ATOM     18  H   UNL     1       2.717   5.999  21.419  0.00  0.00    +0.000 HD
BRANCH  17  19
ATOM     19  S   UNL     1       2.629   4.533  19.634  0.00  0.00    +0.000 S 
ATOM     20  O   UNL     1       2.882   3.542  20.656  0.00  0.00    +0.000 OA
ATOM     21  O   UNL     1       1.458   4.465  18.785  0.00  0.00    +0.000 OA
BRANCH  19  22
ATOM     22  C   UNL     1       4.073   4.564  18.592  0.00  0.00    +0.000 A 
ATOM     23  C   UNL     1       4.004   4.053  17.289  0.00  0.00    +0.000 A 
ATOM     24  C   UNL     1       5.159   4.005  16.505  0.00  0.00    +0.000 A 
ATOM     25  C   UNL     1       6.366   4.466  17.024  0.00  0.00    +0.000 A 
ATOM     26  F   UNL     1       7.463   4.399  16.256  0.00  0.00    +0.000 F 
ATOM     27  C   UNL     1       6.433   4.978  18.321  0.00  0.00    +0.000 A 
ATOM     28 CL   UNL     1       7.927   5.546  18.960  0.00  0.00    +0.000 Cl
ATOM     29  C   UNL     1       5.286   5.027  19.115  0.00  0.00    +0.000 A 
ENDBRANCH  19  22
ENDBRANCH  17  19
ENDBRANCH   5  17
TORSDOF 5
ENDMDL
MODEL 9
REMARK VINA RESULT:      -7.9      3.745      8.353
REMARK  Name = 
REMARK  5 active torsions:
REMARK  status: ('A' for Active; 'I' for Inactive)
REMARK    1  A    between atoms: S_2  and  N_4
REMARK    2  A    between atoms: S_2  and  C_10
REMARK    3  A    between atoms: C_14  and  N_15
REMARK    4  A    between atoms: N_15  and  S_16
REMARK    5  A    between atoms: S_16  and  C_19
REMARK                            x       y       z     vdW  Elec       q    Type
REMARK                         _______ _______ _______ _____ _____    ______ ____
ROOT
ATOM      1  C   UNL     1       2.195   5.531  19.285  0.00  0.00    +0.000 A 
ATOM      2  C   UNL     1       2.276   6.204  18.057  0.00  0.00    +0.000 A 
ATOM      3  C   UNL     1       2.207   7.592  18.017  0.00  0.00    +0.000 A 
ATOM      4  C   UNL     1       2.041   8.305  19.202  0.00  0.00    +0.000 A 
ATOM      5  C   UNL     1       1.969   7.634  20.424  0.00  0.00    +0.000 A 
ATOM      6  C   UNL     1       2.036   6.241  20.480  0.00  0.00    +0.000 A 
ENDROOT
BRANCH   1   8
ATOM      7  O   UNL     1       1.010   3.266  18.723  0.00  0.00    +0.000 OA
ATOM      8  S   UNL     1       2.250   3.755  19.283  0.00  0.00    +0.000 S 
ATOM      9  O   UNL     1       2.691   3.345  20.600  0.00  0.00    +0.000 OA
BRANCH   8  10
ATOM     10  N   UNL     1       3.468   3.370  18.218  0.00  0.00    +0.000 N 
ATOM     11  C   UNL     1       4.691   4.023  18.093  0.00  0.00    +0.000 C 
ATOM     12  N   UNL     1       5.283   4.055  16.947  0.00  0.00    +0.000 NA
ATOM     13  C   UNL     1       6.568   4.744  17.191  0.00  0.00    +0.000 C 
ATOM     14  C   UNL     1       6.458   5.404  18.554  0.00  0.00    +0.000 C 
ATOM     15  C   UNL     1       5.416   4.584  19.266  0.00  0.00    +0.000 C 
ATOM     16  H   UNL     1       3.124   2.899  17.384  0.00  0.00    +0.000 HD
ENDBRANCH   8  10
ENDBRANCH   1   8
BRANCH   5  17
ATOM     17  N   UNL     1       1.760   8.410  21.586  0.00  0.00    +0.000 N 
ATOM     18  H   UNL     1       2.554   8.797  22.095  0.00  0.00    +0.000 HD
BRANCH  17  19
ATOM     19  S   UNL     1       0.272   9.103  21.908  0.00  0.00    +0.000 S 
ATOM     20  O   UNL     1      -0.719   8.083  21.649  0.00  0.00    +0.000 OA
ATOM     21  O   UNL     1       0.344   9.782  23.185  0.00  0.00    +0.000 OA
BRANCH  19  22
ATOM     22  C   UNL     1       0.077  10.331  20.633  0.00  0.00    +0.000 A 
ATOM     23  C   UNL     1       0.789  11.536  20.709  0.00  0.00    +0.000 A 
ATOM     24  C   UNL     1       0.571  12.528  19.751  0.00  0.00    +0.000 A 
ATOM     25  C   UNL     1      -0.350  12.310  18.728  0.00  0.00    +0.000 A 
ATOM     26  F   UNL     1      -0.549  13.282  17.826  0.00  0.00    +0.000 F 
ATOM     27  C   UNL     1      -1.056  11.108  18.651  0.00  0.00    +0.000 A 
ATOM     28 CL   UNL     1      -2.193  10.843  17.387  0.00  0.00    +0.000 Cl
ATOM     29  C   UNL     1      -0.849  10.111  19.606  0.00  0.00    +0.000 A 
ENDBRANCH  19  22
ENDBRANCH  17  19
ENDBRANCH   5  17
TORSDOF 5
ENDMDL
