MODEL 1
REMARK VINA RESULT:      -7.7      0.000      0.000
REMARK  Name = 
REMARK  5 active torsions:
REMARK  status: ('A' for Active; 'I' for Inactive)
REMARK    1  A    between atoms: C_1  and  O_2
REMARK    2  A    between atoms: O_2  and  C_3
REMARK    3  A    between atoms: C_6  and  N_7
REMARK    4  A    between atoms: C_11  and  C_13
REMARK    5  A    between atoms: C_13  and  N_14
REMARK                            x       y       z     vdW  Elec       q    Type
REMARK                         _______ _______ _______ _____ _____    ______ ____
ROOT
ATOM      1  N   UNL     1       2.119   7.694  18.941  0.00  0.00    +0.000 N 
ATOM      2  C   UNL     1       1.458   7.625  20.252  0.00  0.00    +0.000 C 
ATOM      3  C   UNL     1       1.535   8.988  20.959  0.00  0.00    +0.000 C 
ATOM      4  N   UNL     1       1.019  10.073  20.110  0.00  0.00    +0.000 N 
ATOM      5  C   UNL     1       0.327  11.116  20.718  0.00  0.00    +0.000 C 
ATOM      6  O   UNL     1       0.148  11.117  21.940  0.00  0.00    +0.000 OA
ATOM      7  C   UNL     1       1.602  10.113  18.761  0.00  0.00    +0.000 C 
ATOM      8  C   UNL     1       1.605   8.742  18.047  0.00  0.00    +0.000 C 
ENDROOT
BRANCH   1  12
ATOM      9  C   UNL     1       5.399   5.243  17.898  0.00  0.00    +0.000 A 
ATOM     10  C   UNL     1       4.668   4.992  19.054  0.00  0.00    +0.000 A 
ATOM     11  C   UNL     1       3.574   5.801  19.394  0.00  0.00    +0.000 A 
ATOM     12  C   UNL     1       3.190   6.894  18.603  0.00  0.00    +0.000 A 
ATOM     13  C   UNL     1       3.961   7.137  17.457  0.00  0.00    +0.000 A 
ATOM     14  C   UNL     1       5.050   6.329  17.104  0.00  0.00    +0.000 A 
BRANCH   9  16
ATOM     15  C   UNL     1       7.058   4.528  16.383  0.00  0.00    +0.000 C 
ATOM     16  O   UNL     1       6.444   4.395  17.661  0.00  0.00    +0.000 OA
ENDBRANCH   9  16
ENDBRANCH   1  12
BRANCH   5  17
ATOM     17  C   UNL     1      -0.309  12.213  19.837  0.00  0.00    +0.000 C 
BRANCH  17  18
ATOM     18  N   UNL     1      -1.769  12.246  19.730  0.00  0.00    +0.000 N 
ATOM     19  C   UNL     1      -2.512  12.995  20.639  0.00  0.00    +0.000 A 
ATOM     20  O   UNL     1      -1.992  13.633  21.555  0.00  0.00    +0.000 OA
ATOM     21  C   UNL     1      -3.937  12.974  20.448  0.00  0.00    +0.000 A 
ATOM     22  C   UNL     1      -4.935  13.597  21.175  0.00  0.00    +0.000 A 
ATOM     23  C   UNL     1      -6.172  13.256  20.581  0.00  0.00    +0.000 A 
ATOM     24  C   UNL     1      -5.894  12.437  19.507  0.00  0.00    +0.000 A 
ATOM     25  N   UNL     1      -4.530  12.275  19.428  0.00  0.00    +0.000 N 
ATOM     26  C   UNL     1      -3.772  11.563  18.489  0.00  0.00    +0.000 A 
ATOM     27  C   UNL     1      -4.358  10.854  17.437  0.00  0.00    +0.000 A 
ATOM     28  C   UNL     1      -3.531  10.215  16.523  0.00  0.00    +0.000 A 
ATOM     29  C   UNL     1      -2.162  10.330  16.691  0.00  0.00    +0.000 A 
ATOM     30  N   UNL     1      -1.586  11.000  17.713  0.00  0.00    +0.000 NA
ATOM     31  C   UNL     1      -2.382  11.593  18.625  0.00  0.00    +0.000 A 
ENDBRANCH  17  18
ENDBRANCH   5  17
TORSDOF 4
ENDMDL
MODEL 2
REMARK VINA RESULT:      -7.7      0.965      1.300
REMARK  Name = 
REMARK  5 active torsions:
REMARK  status: ('A' for Active; 'I' for Inactive)
REMARK    1  A    between atoms: C_1  and  O_2
REMARK    2  A    between atoms: O_2  and  C_3
REMARK    3  A    between atoms: C_6  and  N_7
REMARK    4  A    between atoms: C_11  and  C_13
REMARK    5  A    between atoms: C_13  and  N_14
REMARK                            x       y       z     vdW  Elec       q    Type
REMARK                         _______ _______ _______ _____ _____    ______ ____
ROOT
ATOM      1  N   UNL     1       1.654   8.055  19.420  0.00  0.00    +0.000 N 
ATOM      2  C   UNL     1       1.052   7.868  20.748  0.00  0.00    +0.000 C 
ATOM      3  C   UNL     1       1.175   9.159  21.574  0.00  0.00    +0.000 C 
ATOM      4  N   UNL     1       0.634  10.321  20.855  0.00  0.00    +0.000 N 
ATOM      5  C   UNL     1      -0.019  11.307  21.589  0.00  0.00    +0.000 C 
ATOM      6  O   UNL     1      -0.142  11.195  22.813  0.00  0.00    +0.000 OA
ATOM      7  C   UNL     1       1.155  10.484  19.490  0.00  0.00    +0.000 C 
ATOM      8  C   UNL     1       1.111   9.185  18.652  0.00  0.00    +0.000 C 
ENDROOT
BRANCH   1  12
ATOM      9  C   UNL     1       4.863   5.690  18.020  0.00  0.00    +0.000 A 
ATOM     10  C   UNL     1       4.455   6.818  17.315  0.00  0.00    +0.000 A 
ATOM     11  C   UNL     1       3.395   7.606  17.786  0.00  0.00    +0.000 A 
ATOM     12  C   UNL     1       2.700   7.283  18.960  0.00  0.00    +0.000 A 
ATOM     13  C   UNL     1       3.118   6.129  19.636  0.00  0.00    +0.000 A 
ATOM     14  C   UNL     1       4.182   5.339  19.180  0.00  0.00    +0.000 A 
BRANCH   9  16
ATOM     15  C   UNL     1       7.188   5.299  18.009  0.00  0.00    +0.000 C 
ATOM     16  O   UNL     1       5.904   4.993  17.475  0.00  0.00    +0.000 OA
ENDBRANCH   9  16
ENDBRANCH   1  12
BRANCH   5  17
ATOM     17  C   UNL     1      -0.682  12.486  20.844  0.00  0.00    +0.000 C 
BRANCH  17  18
ATOM     18  N   UNL     1      -2.134  12.450  20.659  0.00  0.00    +0.000 N 
ATOM     19  C   UNL     1      -2.973  12.877  21.686  0.00  0.00    +0.000 A 
ATOM     20  O   UNL     1      -2.545  13.280  22.768  0.00  0.00    +0.000 OA
ATOM     21  C   UNL     1      -4.383  12.815  21.408  0.00  0.00    +0.000 A 
ATOM     22  C   UNL     1      -5.457  13.153  22.210  0.00  0.00    +0.000 A 
ATOM     23  C   UNL     1      -6.636  12.903  21.471  0.00  0.00    +0.000 A 
ATOM     24  C   UNL     1      -6.249  12.421  20.238  0.00  0.00    +0.000 A 
ATOM     25  N   UNL     1      -4.874  12.377  20.204  0.00  0.00    +0.000 N 
ATOM     26  C   UNL     1      -4.022  11.994  19.160  0.00  0.00    +0.000 A 
ATOM     27  C   UNL     1      -4.504  11.556  17.924  0.00  0.00    +0.000 A 
ATOM     28  C   UNL     1      -3.591  11.241  16.926  0.00  0.00    +0.000 A 
ATOM     29  C   UNL     1      -2.244  11.397  17.203  0.00  0.00    +0.000 A 
ATOM     30  N   UNL     1      -1.767  11.805  18.400  0.00  0.00    +0.000 NA
ATOM     31  C   UNL     1      -2.646  12.078  19.385  0.00  0.00    +0.000 A 
ENDBRANCH  17  18
ENDBRANCH   5  17
TORSDOF 4
ENDMDL
MODEL 3
REMARK VINA RESULT:      -7.6      2.518      9.964
REMARK  Name = 
REMARK  5 active torsions:
REMARK  status: ('A' for Active; 'I' for Inactive)
REMARK    1  A    between atoms: C_1  and  O_2
REMARK    2  A    between atoms: O_2  and  C_3
REMARK    3  A    between atoms: C_6  and  N_7
REMARK    4  A    between atoms: C_11  and  C_13
REMARK    5  A    between atoms: C_13  and  N_14
REMARK                            x       y       z     vdW  Elec       q    Type
REMARK                         _______ _______ _______ _____ _____    ______ ____
ROOT
ATOM      1  N   UNL     1      -0.861  10.661  20.602  0.00  0.00    +0.000 N 
ATOM      2  C   UNL     1      -0.941  10.476  19.146  0.00  0.00    +0.000 C 
ATOM      3  C   UNL     1       0.467  10.300  18.554  0.00  0.00    +0.000 C 
ATOM      4  N   UNL     1       1.213   9.229  19.231  0.00  0.00    +0.000 N 
ATOM      5  C   UNL     1       2.074   8.442  18.472  0.00  0.00    +0.000 C 
ATOM      6  O   UNL     1       2.193   8.639  17.258  0.00  0.00    +0.000 OA
ATOM      7  C   UNL     1       1.237   9.343  20.697  0.00  0.00    +0.000 C 
ATOM      8  C   UNL     1      -0.155   9.590  21.321  0.00  0.00    +0.000 C 
ENDROOT
BRANCH   1  12
ATOM      9  C   UNL     1      -2.326  14.109  22.557  0.00  0.00    +0.000 A 
ATOM     10  C   UNL     1      -2.732  13.804  21.261  0.00  0.00    +0.000 A 
ATOM     11  C   UNL     1      -2.252  12.654  20.618  0.00  0.00    +0.000 A 
ATOM     12  C   UNL     1      -1.339  11.788  21.237  0.00  0.00    +0.000 A 
ATOM     13  C   UNL     1      -0.930  12.134  22.533  0.00  0.00    +0.000 A 
ATOM     14  C   UNL     1      -1.411  13.275  23.188  0.00  0.00    +0.000 A 
BRANCH   9  16
ATOM     15  C   UNL     1      -3.534  15.086  24.330  0.00  0.00    +0.000 C 
ATOM     16  O   UNL     1      -2.854  15.251  23.090  0.00  0.00    +0.000 OA
ENDBRANCH   9  16
ENDBRANCH   1  12
BRANCH   5  17
ATOM     17  C   UNL     1       2.791   7.249  19.141  0.00  0.00    +0.000 C 
BRANCH  17  18
ATOM     18  N   UNL     1       3.380   6.228  18.272  0.00  0.00    +0.000 N 
ATOM     19  C   UNL     1       4.526   6.524  17.537  0.00  0.00    +0.000 A 
ATOM     20  O   UNL     1       5.071   7.628  17.572  0.00  0.00    +0.000 OA
ATOM     21  C   UNL     1       5.037   5.456  16.720  0.00  0.00    +0.000 A 
ATOM     22  C   UNL     1       6.136   5.435  15.880  0.00  0.00    +0.000 A 
ATOM     23  C   UNL     1       6.206   4.146  15.303  0.00  0.00    +0.000 A 
ATOM     24  C   UNL     1       5.151   3.416  15.809  0.00  0.00    +0.000 A 
ATOM     25  N   UNL     1       4.447   4.219  16.677  0.00  0.00    +0.000 N 
ATOM     26  C   UNL     1       3.323   3.915  17.456  0.00  0.00    +0.000 A 
ATOM     27  C   UNL     1       2.715   2.657  17.433  0.00  0.00    +0.000 A 
ATOM     28  C   UNL     1       1.633   2.425  18.273  0.00  0.00    +0.000 A 
ATOM     29  C   UNL     1       1.225   3.451  19.108  0.00  0.00    +0.000 A 
ATOM     30  N   UNL     1       1.796   4.676  19.126  0.00  0.00    +0.000 NA
ATOM     31  C   UNL     1       2.823   4.920  18.288  0.00  0.00    +0.000 A 
ENDBRANCH  17  18
ENDBRANCH   5  17
TORSDOF 4
ENDMDL
MODEL 4
REMARK VINA RESULT:      -7.5      2.652      9.562
REMARK  Name = 
REMARK  5 active torsions:
REMARK  status: ('A' for Active; 'I' for Inactive)
REMARK    1  A    between atoms: C_1  and  O_2
REMARK    2  A    between atoms: O_2  and  C_3
REMARK    3  A    between atoms: C_6  and  N_7
REMARK    4  A    between atoms: C_11  and  C_13
REMARK    5  A    between atoms: C_13  and  N_14
REMARK                            x       y       z     vdW  Elec       q    Type
REMARK                         _______ _______ _______ _____ _____    ______ ____
ROOT
ATOM      1  N   UNL     1      -0.966  10.706  20.708  0.00  0.00    +0.000 N 
ATOM      2  C   UNL     1      -1.139  10.335  19.296  0.00  0.00    +0.000 C 
ATOM      3  C   UNL     1       0.227  10.264  18.593  0.00  0.00    +0.000 C 
ATOM      4  N   UNL     1       1.164   9.386  19.310  0.00  0.00    +0.000 N 
ATOM      5  C   UNL     1       2.058   8.624  18.562  0.00  0.00    +0.000 C 
ATOM      6  O   UNL     1       2.050   8.685  17.328  0.00  0.00    +0.000 OA
ATOM      7  C   UNL     1       1.292   9.681  20.744  0.00  0.00    +0.000 C 
ATOM      8  C   UNL     1      -0.066   9.828  21.469  0.00  0.00    +0.000 C 
ENDROOT
BRANCH   1  12
ATOM      9  C   UNL     1      -2.716  14.168  22.384  0.00  0.00    +0.000 A 
ATOM     10  C   UNL     1      -1.949  13.311  23.168  0.00  0.00    +0.000 A 
ATOM     11  C   UNL     1      -1.362  12.168  22.608  0.00  0.00    +0.000 A 
ATOM     12  C   UNL     1      -1.538  11.834  21.257  0.00  0.00    +0.000 A 
ATOM     13  C   UNL     1      -2.335  12.702  20.498  0.00  0.00    +0.000 A 
ATOM     14  C   UNL     1      -2.918  13.852  21.045  0.00  0.00    +0.000 A 
BRANCH   9  16
ATOM     15  C   UNL     1      -4.288  14.963  23.950  0.00  0.00    +0.000 C 
ATOM     16  O   UNL     1      -3.241  15.252  23.028  0.00  0.00    +0.000 OA
ENDBRANCH   9  16
ENDBRANCH   1  12
BRANCH   5  17
ATOM     17  C   UNL     1       2.982   7.621  19.287  0.00  0.00    +0.000 C 
BRANCH  17  18
ATOM     18  N   UNL     1       2.869   6.206  18.931  0.00  0.00    +0.000 N 
ATOM     19  C   UNL     1       1.937   5.401  19.582  0.00  0.00    +0.000 A 
ATOM     20  O   UNL     1       1.197   5.828  20.470  0.00  0.00    +0.000 OA
ATOM     21  C   UNL     1       1.892   4.028  19.158  0.00  0.00    +0.000 A 
ATOM     22  C   UNL     1       1.095   2.991  19.607  0.00  0.00    +0.000 A 
ATOM     23  C   UNL     1       1.443   1.836  18.869  0.00  0.00    +0.000 A 
ATOM     24  C   UNL     1       2.440   2.201  17.989  0.00  0.00    +0.000 A 
ATOM     25  N   UNL     1       2.703   3.540  18.166  0.00  0.00    +0.000 N 
ATOM     26  C   UNL     1       3.605   4.367  17.483  0.00  0.00    +0.000 A 
ATOM     27  C   UNL     1       4.432   3.890  16.463  0.00  0.00    +0.000 A 
ATOM     28  C   UNL     1       5.262   4.787  15.805  0.00  0.00    +0.000 A 
ATOM     29  C   UNL     1       5.214   6.117  16.182  0.00  0.00    +0.000 A 
ATOM     30  N   UNL     1       4.430   6.586  17.179  0.00  0.00    +0.000 NA
ATOM     31  C   UNL     1       3.648   5.715  17.847  0.00  0.00    +0.000 A 
ENDBRANCH  17  18
ENDBRANCH   5  17
TORSDOF 4
ENDMDL
MODEL 5
REMARK VINA RESULT:      -7.3      1.444      3.040
REMARK  Name = 
REMARK  5 active torsions:
REMARK  status: ('A' for Active; 'I' for Inactive)
REMARK    1  A    between atoms: C_1  and  O_2
REMARK    2  A    between atoms: O_2  and  C_3
REMARK    3  A    between atoms: C_6  and  N_7
REMARK    4  A    between atoms: C_11  and  C_13
REMARK    5  A    between atoms: C_13  and  N_14
REMARK                            x       y       z     vdW  Elec       q    Type
REMARK                         _______ _______ _______ _____ _____    ______ ____
ROOT
ATOM      1  N   UNL     1       1.559   8.135  19.481  0.00  0.00    +0.000 N 
ATOM      2  C   UNL     1       0.918   7.895  20.782  0.00  0.00    +0.000 C 
ATOM      3  C   UNL     1       1.048   9.139  21.677  0.00  0.00    +0.000 C 
ATOM      4  N   UNL     1       0.552  10.349  21.005  0.00  0.00    +0.000 N 
ATOM      5  C   UNL     1      -0.098  11.311  21.772  0.00  0.00    +0.000 C 
ATOM      6  O   UNL     1      -0.257  11.140  22.985  0.00  0.00    +0.000 OA
ATOM      7  C   UNL     1       1.113  10.568  19.664  0.00  0.00    +0.000 C 
ATOM      8  C   UNL     1       1.062   9.316  18.759  0.00  0.00    +0.000 C 
ENDROOT
BRANCH   1  12
ATOM      9  C   UNL     1       4.752   5.771  18.044  0.00  0.00    +0.000 A 
ATOM     10  C   UNL     1       4.323   6.888  17.334  0.00  0.00    +0.000 A 
ATOM     11  C   UNL     1       3.269   7.676  17.818  0.00  0.00    +0.000 A 
ATOM     12  C   UNL     1       2.600   7.364  19.010  0.00  0.00    +0.000 A 
ATOM     13  C   UNL     1       3.039   6.220  19.690  0.00  0.00    +0.000 A 
ATOM     14  C   UNL     1       4.097   5.430  19.221  0.00  0.00    +0.000 A 
BRANCH   9  16
ATOM     15  C   UNL     1       6.688   5.846  16.701  0.00  0.00    +0.000 C 
ATOM     16  O   UNL     1       5.786   5.073  17.485  0.00  0.00    +0.000 OA
ENDBRANCH   9  16
ENDBRANCH   1  12
BRANCH   5  17
ATOM     17  C   UNL     1      -0.715  12.542  21.072  0.00  0.00    +0.000 C 
BRANCH  17  18
ATOM     18  N   UNL     1      -2.114  12.458  20.646  0.00  0.00    +0.000 N 
ATOM     19  C   UNL     1      -2.419  12.037  19.354  0.00  0.00    +0.000 A 
ATOM     20  O   UNL     1      -1.553  11.740  18.531  0.00  0.00    +0.000 OA
ATOM     21  C   UNL     1      -3.819  11.977  19.031  0.00  0.00    +0.000 A 
ATOM     22  C   UNL     1      -4.438  11.613  17.850  0.00  0.00    +0.000 A 
ATOM     23  C   UNL     1      -5.833  11.726  18.047  0.00  0.00    +0.000 A 
ATOM     24  C   UNL     1      -6.027  12.153  19.343  0.00  0.00    +0.000 A 
ATOM     25  N   UNL     1      -4.796  12.297  19.939  0.00  0.00    +0.000 N 
ATOM     26  C   UNL     1      -4.481  12.673  21.252  0.00  0.00    +0.000 A 
ATOM     27  C   UNL     1      -5.463  12.993  22.194  0.00  0.00    +0.000 A 
ATOM     28  C   UNL     1      -5.067  13.309  23.487  0.00  0.00    +0.000 A 
ATOM     29  C   UNL     1      -3.716  13.272  23.782  0.00  0.00    +0.000 A 
ATOM     30  N   UNL     1      -2.757  12.980  22.875  0.00  0.00    +0.000 NA
ATOM     31  C   UNL     1      -3.131  12.708  21.609  0.00  0.00    +0.000 A 
ENDBRANCH  17  18
ENDBRANCH   5  17
TORSDOF 4
ENDMDL
MODEL 6
REMARK VINA RESULT:      -7.3      1.101      2.809
REMARK  Name = 
REMARK  5 active torsions:
REMARK  status: ('A' for Active; 'I' for Inactive)
REMARK    1  A    between atoms: C_1  and  O_2
REMARK    2  A    between atoms: O_2  and  C_3
REMARK    3  A    between atoms: C_6  and  N_7
REMARK    4  A    between atoms: C_11  and  C_13
REMARK    5  A    between atoms: C_13  and  N_14
REMARK                            x       y       z     vdW  Elec       q    Type
REMARK                         _______ _______ _______ _____ _____    ______ ____
ROOT
ATOM      1  N   UNL     1       2.286   7.539  18.711  0.00  0.00    +0.000 N 
ATOM      2  C   UNL     1       1.528   7.389  19.961  0.00  0.00    +0.000 C 
ATOM      3  C   UNL     1       1.554   8.702  20.759  0.00  0.00    +0.000 C 
ATOM      4  N   UNL     1       1.106   9.843  19.947  0.00  0.00    +0.000 N 
ATOM      5  C   UNL     1       0.372  10.849  20.569  0.00  0.00    +0.000 C 
ATOM      6  O   UNL     1       0.101  10.771  21.772  0.00  0.00    +0.000 OA
ATOM      7  C   UNL     1       1.789   9.968  18.651  0.00  0.00    +0.000 C 
ATOM      8  C   UNL     1       1.843   8.646  17.851  0.00  0.00    +0.000 C 
ENDROOT
BRANCH   1  12
ATOM      9  C   UNL     1       5.637   5.140  17.776  0.00  0.00    +0.000 A 
ATOM     10  C   UNL     1       5.229   6.153  16.914  0.00  0.00    +0.000 A 
ATOM     11  C   UNL     1       4.123   6.954  17.231  0.00  0.00    +0.000 A 
ATOM     12  C   UNL     1       3.379   6.756  18.403  0.00  0.00    +0.000 A 
ATOM     13  C   UNL     1       3.798   5.712  19.240  0.00  0.00    +0.000 A 
ATOM     14  C   UNL     1       4.908   4.912  18.938  0.00  0.00    +0.000 A 
BRANCH   9  16
ATOM     15  C   UNL     1       7.089   4.580  16.006  0.00  0.00    +0.000 C 
ATOM     16  O   UNL     1       6.726   4.419  17.373  0.00  0.00    +0.000 OA
ENDBRANCH   9  16
ENDBRANCH   1  12
BRANCH   5  17
ATOM     17  C   UNL     1      -0.194  12.006  19.717  0.00  0.00    +0.000 C 
BRANCH  17  18
ATOM     18  N   UNL     1      -1.643  12.063  19.513  0.00  0.00    +0.000 N 
ATOM     19  C   UNL     1      -2.228  11.314  18.494  0.00  0.00    +0.000 A 
ATOM     20  O   UNL     1      -1.571  10.604  17.732  0.00  0.00    +0.000 OA
ATOM     21  C   UNL     1      -3.656  11.425  18.379  0.00  0.00    +0.000 A 
ATOM     22  C   UNL     1      -4.519  10.826  17.480  0.00  0.00    +0.000 A 
ATOM     23  C   UNL     1      -5.828  11.265  17.786  0.00  0.00    +0.000 A 
ATOM     24  C   UNL     1      -5.727  12.118  18.865  0.00  0.00    +0.000 A 
ATOM     25  N   UNL     1      -4.402  12.205  19.225  0.00  0.00    +0.000 N 
ATOM     26  C   UNL     1      -3.812  12.917  20.278  0.00  0.00    +0.000 A 
ATOM     27  C   UNL     1      -4.557  13.708  21.156  0.00  0.00    +0.000 A 
ATOM     28  C   UNL     1      -3.899  14.342  22.202  0.00  0.00    +0.000 A 
ATOM     29  C   UNL     1      -2.536  14.141  22.332  0.00  0.00    +0.000 A 
ATOM     30  N   UNL     1      -1.803  13.392  21.478  0.00  0.00    +0.000 NA
ATOM     31  C   UNL     1      -2.429  12.802  20.440  0.00  0.00    +0.000 A 
ENDBRANCH  17  18
ENDBRANCH   5  17
TORSDOF 4
ENDMDL
MODEL 7
REMARK VINA RESULT:      -7.2      1.645      3.101
REMARK  Name = 
REMARK  5 active torsions:
REMARK  status: ('A' for Active; 'I' for Inactive)
REMARK    1  A    between atoms: C_1  and  O_2
REMARK    2  A    between atoms: O_2  and  C_3
REMARK    3  A    between atoms: C_6  and  N_7
REMARK    4  A    between atoms: C_11  and  C_13
REMARK    5  A    between atoms: C_13  and  N_14
REMARK                            x       y       z     vdW  Elec       q    Type
REMARK                         _______ _______ _______ _____ _____    ______ ____
ROOT
ATOM      1  N   UNL     1       1.231   8.445  19.619  0.00  0.00    +0.000 N 
ATOM      2  C   UNL     1       0.710   8.249  20.979  0.00  0.00    +0.000 C 
ATOM      3  C   UNL     1       0.885   9.534  21.806  0.00  0.00    +0.000 C 
ATOM      4  N   UNL     1       0.303  10.702  21.128  0.00  0.00    +0.000 N 
ATOM      5  C   UNL     1      -0.302  11.684  21.907  0.00  0.00    +0.000 C 
ATOM      6  O   UNL     1      -0.352  11.564  23.135  0.00  0.00    +0.000 OA
ATOM      7  C   UNL     1       0.742  10.873  19.735  0.00  0.00    +0.000 C 
ATOM      8  C   UNL     1       0.645   9.581  18.893  0.00  0.00    +0.000 C 
ENDROOT
BRANCH   1  12
ATOM      9  C   UNL     1       4.339   6.086  17.996  0.00  0.00    +0.000 A 
ATOM     10  C   UNL     1       3.697   5.701  19.169  0.00  0.00    +0.000 A 
ATOM     11  C   UNL     1       2.659   6.481  19.701  0.00  0.00    +0.000 A 
ATOM     12  C   UNL     1       2.246   7.675  19.092  0.00  0.00    +0.000 A 
ATOM     13  C   UNL     1       2.928   8.049  17.926  0.00  0.00    +0.000 A 
ATOM     14  C   UNL     1       3.959   7.273  17.381  0.00  0.00    +0.000 A 
BRANCH   9  16
ATOM     15  C   UNL     1       4.904   3.983  17.094  0.00  0.00    +0.000 C 
ATOM     16  O   UNL     1       5.335   5.256  17.565  0.00  0.00    +0.000 OA
ENDBRANCH   9  16
ENDBRANCH   1  12
BRANCH   5  17
ATOM     17  C   UNL     1      -1.007  12.869  21.211  0.00  0.00    +0.000 C 
BRANCH  17  18
ATOM     18  N   UNL     1      -2.413  12.707  20.837  0.00  0.00    +0.000 N 
ATOM     19  C   UNL     1      -2.743  12.306  19.544  0.00  0.00    +0.000 A 
ATOM     20  O   UNL     1      -1.893  12.091  18.679  0.00  0.00    +0.000 OA
ATOM     21  C   UNL     1      -4.148  12.163  19.274  0.00  0.00    +0.000 A 
ATOM     22  C   UNL     1      -4.790  11.794  18.106  0.00  0.00    +0.000 A 
ATOM     23  C   UNL     1      -6.180  11.809  18.361  0.00  0.00    +0.000 A 
ATOM     24  C   UNL     1      -6.348  12.183  19.677  0.00  0.00    +0.000 A 
ATOM     25  N   UNL     1      -5.106  12.390  20.230  0.00  0.00    +0.000 N 
ATOM     26  C   UNL     1      -4.763  12.746  21.541  0.00  0.00    +0.000 A 
ATOM     27  C   UNL     1      -5.724  12.971  22.530  0.00  0.00    +0.000 A 
ATOM     28  C   UNL     1      -5.297  13.273  23.816  0.00  0.00    +0.000 A 
ATOM     29  C   UNL     1      -3.936  13.316  24.058  0.00  0.00    +0.000 A 
ATOM     30  N   UNL     1      -2.998  13.116  23.105  0.00  0.00    +0.000 NA
ATOM     31  C   UNL     1      -3.405  12.858  21.846  0.00  0.00    +0.000 A 
ENDBRANCH  17  18
ENDBRANCH   5  17
TORSDOF 4
ENDMDL
MODEL 8
REMARK VINA RESULT:      -7.1      1.539      2.213
REMARK  Name = 
REMARK  5 active torsions:
REMARK  status: ('A' for Active; 'I' for Inactive)
REMARK    1  A    between atoms: C_1  and  O_2
REMARK    2  A    between atoms: O_2  and  C_3
REMARK    3  A    between atoms: C_6  and  N_7
REMARK    4  A    between atoms: C_11  and  C_13
REMARK    5  A    between atoms: C_13  and  N_14
REMARK                            x       y       z     vdW  Elec       q    Type
REMARK                         _______ _______ _______ _____ _____    ______ ____
ROOT
ATOM      1  N   UNL     1       0.726   8.864  19.849  0.00  0.00    +0.000 N 
ATOM      2  C   UNL     1       0.426   8.791  21.287  0.00  0.00    +0.000 C 
ATOM      3  C   UNL     1       0.584  10.177  21.934  0.00  0.00    +0.000 C 
ATOM      4  N   UNL     1      -0.204  11.201  21.232  0.00  0.00    +0.000 N 
ATOM      5  C   UNL     1      -0.789  12.215  21.984  0.00  0.00    +0.000 C 
ATOM      6  O   UNL     1      -0.652  12.240  23.212  0.00  0.00    +0.000 OA
ATOM      7  C   UNL     1       0.014  11.239  19.778  0.00  0.00    +0.000 C 
ATOM      8  C   UNL     1      -0.070   9.850  19.104  0.00  0.00    +0.000 C 
ENDROOT
BRANCH   1  12
ATOM      9  C   UNL     1       3.797   6.601  18.033  0.00  0.00    +0.000 A 
ATOM     10  C   UNL     1       3.234   6.191  19.238  0.00  0.00    +0.000 A 
ATOM     11  C   UNL     1       2.208   6.939  19.834  0.00  0.00    +0.000 A 
ATOM     12  C   UNL     1       1.729   8.125  19.259  0.00  0.00    +0.000 A 
ATOM     13  C   UNL     1       2.332   8.525  18.059  0.00  0.00    +0.000 A 
ATOM     14  C   UNL     1       3.351   7.781  17.449  0.00  0.00    +0.000 A 
BRANCH   9  16
ATOM     15  C   UNL     1       5.117   4.673  18.342  0.00  0.00    +0.000 C 
ATOM     16  O   UNL     1       4.788   5.801  17.538  0.00  0.00    +0.000 OA
ENDBRANCH   9  16
ENDBRANCH   1  12
BRANCH   5  17
ATOM     17  C   UNL     1      -1.703  13.243  21.282  0.00  0.00    +0.000 C 
BRANCH  17  18
ATOM     18  N   UNL     1      -3.148  13.013  21.319  0.00  0.00    +0.000 N 
ATOM     19  C   UNL     1      -3.888  13.436  22.421  0.00  0.00    +0.000 A 
ATOM     20  O   UNL     1      -3.373  13.993  23.391  0.00  0.00    +0.000 OA
ATOM     21  C   UNL     1      -5.301  13.176  22.362  0.00  0.00    +0.000 A 
ATOM     22  C   UNL     1      -6.290  13.461  23.285  0.00  0.00    +0.000 A 
ATOM     23  C   UNL     1      -7.515  12.998  22.753  0.00  0.00    +0.000 A 
ATOM     24  C   UNL     1      -7.240  12.446  21.520  0.00  0.00    +0.000 A 
ATOM     25  N   UNL     1      -5.890  12.565  21.285  0.00  0.00    +0.000 N 
ATOM     26  C   UNL     1      -5.146  12.186  20.160  0.00  0.00    +0.000 A 
ATOM     27  C   UNL     1      -5.731  11.572  19.049  0.00  0.00    +0.000 A 
ATOM     28  C   UNL     1      -4.929  11.271  17.956  0.00  0.00    +0.000 A 
ATOM     29  C   UNL     1      -3.590  11.616  18.015  0.00  0.00    +0.000 A 
ATOM     30  N   UNL     1      -3.012  12.195  19.090  0.00  0.00    +0.000 NA
ATOM     31  C   UNL     1      -3.776  12.457  20.170  0.00  0.00    +0.000 A 
ENDBRANCH  17  18
ENDBRANCH   5  17
TORSDOF 4
ENDMDL
MODEL 9
REMARK VINA RESULT:      -7.1      1.770      3.096
REMARK  Name = 
REMARK  5 active torsions:
REMARK  status: ('A' for Active; 'I' for Inactive)
REMARK    1  A    between atoms: C_1  and  O_2
REMARK    2  A    between atoms: O_2  and  C_3
REMARK    3  A    between atoms: C_6  and  N_7
REMARK    4  A    between atoms: C_11  and  C_13
REMARK    5  A    between atoms: C_13  and  N_14
REMARK                            x       y       z     vdW  Elec       q    Type
REMARK                         _______ _______ _______ _____ _____    ______ ____
ROOT
ATOM      1  N   UNL     1       0.144   9.512  20.187  0.00  0.00    +0.000 N 
ATOM      2  C   UNL     1       0.157   9.879  21.610  0.00  0.00    +0.000 C 
ATOM      3  C   UNL     1       0.213  11.408  21.764  0.00  0.00    +0.000 C 
ATOM      4  N   UNL     1      -0.858  12.072  21.007  0.00  0.00    +0.000 N 
ATOM      5  C   UNL     1      -1.437  13.217  21.548  0.00  0.00    +0.000 C 
ATOM      6  O   UNL     1      -1.061  13.649  22.642  0.00  0.00    +0.000 OA
ATOM      7  C   UNL     1      -0.948  11.659  19.599  0.00  0.00    +0.000 C 
ATOM      8  C   UNL     1      -0.937  10.126  19.402  0.00  0.00    +0.000 C 
ENDROOT
BRANCH   1  12
ATOM      9  C   UNL     1       3.115   7.080  18.422  0.00  0.00    +0.000 A 
ATOM     10  C   UNL     1       2.584   6.758  19.667  0.00  0.00    +0.000 A 
ATOM     11  C   UNL     1       1.592   7.561  20.247  0.00  0.00    +0.000 A 
ATOM     12  C   UNL     1       1.115   8.718  19.613  0.00  0.00    +0.000 A 
ATOM     13  C   UNL     1       1.685   9.030  18.371  0.00  0.00    +0.000 A 
ATOM     14  C   UNL     1       2.670   8.229  17.779  0.00  0.00    +0.000 A 
BRANCH   9  16
ATOM     15  C   UNL     1       4.793   5.509  18.943  0.00  0.00    +0.000 C 
ATOM     16  O   UNL     1       4.075   6.231  17.948  0.00  0.00    +0.000 OA
ENDBRANCH   9  16
ENDBRANCH   1  12
BRANCH   5  17
ATOM     17  C   UNL     1      -2.630  13.873  20.819  0.00  0.00    +0.000 C 
BRANCH  17  18
ATOM     18  N   UNL     1      -3.981  13.483  21.227  0.00  0.00    +0.000 N 
ATOM     19  C   UNL     1      -4.549  14.045  22.368  0.00  0.00    +0.000 A 
ATOM     20  O   UNL     1      -3.953  14.860  23.073  0.00  0.00    +0.000 OA
ATOM     21  C   UNL     1      -5.882  13.608  22.682  0.00  0.00    +0.000 A 
ATOM     22  C   UNL     1      -6.704  13.966  23.736  0.00  0.00    +0.000 A 
ATOM     23  C   UNL     1      -7.915  13.251  23.593  0.00  0.00    +0.000 A 
ATOM     24  C   UNL     1      -7.801  12.480  22.456  0.00  0.00    +0.000 A 
ATOM     25  N   UNL     1      -6.562  12.708  21.902  0.00  0.00    +0.000 N 
ATOM     26  C   UNL     1      -6.003  12.184  20.729  0.00  0.00    +0.000 A 
ATOM     27  C   UNL     1      -6.684  11.274  19.916  0.00  0.00    +0.000 A 
ATOM     28  C   UNL     1      -6.075  10.841  18.746  0.00  0.00    +0.000 A 
ATOM     29  C   UNL     1      -4.827  11.351  18.433  0.00  0.00    +0.000 A 
ATOM     30  N   UNL     1      -4.153  12.218  19.220  0.00  0.00    +0.000 NA
ATOM     31  C   UNL     1      -4.722  12.616  20.376  0.00  0.00    +0.000 A 
ENDBRANCH  17  18
ENDBRANCH   5  17
TORSDOF 4
ENDMDL
