MODEL 1
REMARK VINA RESULT:      -7.2      0.000      0.000
REMARK  Name = 
REMARK  7 active torsions:
REMARK  status: ('A' for Active; 'I' for Inactive)
REMARK    1  A    between atoms: C_1  and  O_2
REMARK    2  A    between atoms: O_2  and  C_3
REMARK    3  A    between atoms: C_3  and  C_4
REMARK    4  A    between atoms: N_8  and  C_9
REMARK    5  A    between atoms: C_12  and  C_14
REMARK    6  A    between atoms: C_14  and  C_15
REMARK    7  A    between atoms: C_20  and  C_21
REMARK                            x       y       z     vdW  Elec       q    Type
REMARK                         _______ _______ _______ _____ _____    ______ ____
ROOT
ATOM      1  C   UNL     1       4.738   4.965  17.848  0.00  0.00    +0.000 C 
ATOM      2  C   UNL     1       4.076   3.761  18.557  0.00  0.00    +0.000 C 
ATOM      3  N   UNL     1       3.564   4.755  19.522  0.00  0.00    +0.000 N 
ATOM      4  C   UNL     1       2.234   5.137  19.645  0.00  0.00    +0.000 C 
ATOM      5  O   UNL     1       1.338   4.525  19.057  0.00  0.00    +0.000 OA
ATOM      6  C   UNL     1       4.712   5.629  19.254  0.00  0.00    +0.000 C 
ENDROOT
BRANCH   1  11
ATOM      7  C   UNL     1       6.440   4.819  16.013  0.00  0.00    +0.000 A 
ATOM      8  N   UNL     1       7.743   4.617  15.943  0.00  0.00    +0.000 NA
ATOM      9  N   UNL     1       8.215   4.379  17.213  0.00  0.00    +0.000 NA
ATOM     10  C   UNL     1       7.194   4.439  18.032  0.00  0.00    +0.000 A 
ATOM     11  N   UNL     1       6.059   4.731  17.334  0.00  0.00    +0.000 N 
BRANCH   7  12
ATOM     12  C   UNL     1       5.537   5.023  14.850  0.00  0.00    +0.000 C 
BRANCH  12  14
ATOM     13  C   UNL     1       6.035   3.691  12.978  0.00  0.00    +0.000 C 
ATOM     14  O   UNL     1       5.334   3.761  14.216  0.00  0.00    +0.000 OA
ENDBRANCH  12  14
ENDBRANCH   7  12
ENDBRANCH   1  11
BRANCH   4  15
ATOM     15  C   UNL     1       1.949   6.357  20.528  0.00  0.00    +0.000 C 
BRANCH  15  16
ATOM     16  C   UNL     1       1.787   7.707  19.828  0.00  0.00    +0.000 A 
ATOM     17  C   UNL     1       2.170   7.893  18.489  0.00  0.00    +0.000 A 
ATOM     18  C   UNL     1       1.897   9.083  17.809  0.00  0.00    +0.000 A 
ATOM     19  C   UNL     1       1.211  10.108  18.446  0.00  0.00    +0.000 A 
ATOM     20  C   UNL     1       0.867   9.974  19.787  0.00  0.00    +0.000 A 
ATOM     21  C   UNL     1       1.178   8.796  20.497  0.00  0.00    +0.000 A 
ATOM     22  C   UNL     1       0.932   8.797  21.984  0.00  0.00    +0.000 C 
ENDBRANCH  15  16
ENDBRANCH   4  15
TORSDOF 5
ENDMDL
MODEL 2
REMARK VINA RESULT:      -7.0      2.624      4.156
REMARK  Name = 
REMARK  7 active torsions:
REMARK  status: ('A' for Active; 'I' for Inactive)
REMARK    1  A    between atoms: C_1  and  O_2
REMARK    2  A    between atoms: O_2  and  C_3
REMARK    3  A    between atoms: C_3  and  C_4
REMARK    4  A    between atoms: N_8  and  C_9
REMARK    5  A    between atoms: C_12  and  C_14
REMARK    6  A    between atoms: C_14  and  C_15
REMARK    7  A    between atoms: C_20  and  C_21
REMARK                            x       y       z     vdW  Elec       q    Type
REMARK                         _______ _______ _______ _____ _____    ______ ____
ROOT
ATOM      1  C   UNL     1       6.379   4.636  15.682  0.00  0.00    +0.000 C 
ATOM      2  C   UNL     1       7.266   5.109  16.857  0.00  0.00    +0.000 C 
ATOM      3  N   UNL     1       6.013   5.618  17.450  0.00  0.00    +0.000 N 
ATOM      4  C   UNL     1       5.387   5.086  18.570  0.00  0.00    +0.000 C 
ATOM      5  O   UNL     1       5.945   4.236  19.270  0.00  0.00    +0.000 OA
ATOM      6  C   UNL     1       5.432   5.791  16.114  0.00  0.00    +0.000 C 
ENDROOT
BRANCH   1  11
ATOM      7  C   UNL     1       6.453   4.261  13.205  0.00  0.00    +0.000 A 
ATOM      8  N   UNL     1       7.193   4.697  12.202  0.00  0.00    +0.000 NA
ATOM      9  N   UNL     1       8.182   5.506  12.712  0.00  0.00    +0.000 NA
ATOM     10  C   UNL     1       8.029   5.547  14.012  0.00  0.00    +0.000 A 
ATOM     11  N   UNL     1       6.946   4.799  14.373  0.00  0.00    +0.000 N 
BRANCH   7  12
ATOM     12  C   UNL     1       5.333   3.291  13.089  0.00  0.00    +0.000 C 
BRANCH  12  14
ATOM     13  C   UNL     1       4.014   3.143  11.149  0.00  0.00    +0.000 C 
ATOM     14  O   UNL     1       5.274   2.837  11.737  0.00  0.00    +0.000 OA
ENDBRANCH  12  14
ENDBRANCH   7  12
ENDBRANCH   1  11
BRANCH   4  15
ATOM     15  C   UNL     1       3.974   5.597  18.874  0.00  0.00    +0.000 C 
BRANCH  15  16
ATOM     16  C   UNL     1       2.842   4.570  18.876  0.00  0.00    +0.000 A 
ATOM     17  C   UNL     1       2.812   3.505  17.959  0.00  0.00    +0.000 A 
ATOM     18  C   UNL     1       1.855   2.491  18.047  0.00  0.00    +0.000 A 
ATOM     19  C   UNL     1       0.918   2.502  19.072  0.00  0.00    +0.000 A 
ATOM     20  C   UNL     1       0.890   3.571  19.962  0.00  0.00    +0.000 A 
ATOM     21  C   UNL     1       1.821   4.625  19.856  0.00  0.00    +0.000 A 
ATOM     22  C   UNL     1       1.615   5.826  20.742  0.00  0.00    +0.000 C 
ENDBRANCH  15  16
ENDBRANCH   4  15
TORSDOF 5
ENDMDL
MODEL 3
REMARK VINA RESULT:      -6.9      0.752      1.013
REMARK  Name = 
REMARK  7 active torsions:
REMARK  status: ('A' for Active; 'I' for Inactive)
REMARK    1  A    between atoms: C_1  and  O_2
REMARK    2  A    between atoms: O_2  and  C_3
REMARK    3  A    between atoms: C_3  and  C_4
REMARK    4  A    between atoms: N_8  and  C_9
REMARK    5  A    between atoms: C_12  and  C_14
REMARK    6  A    between atoms: C_14  and  C_15
REMARK    7  A    between atoms: C_20  and  C_21
REMARK                            x       y       z     vdW  Elec       q    Type
REMARK                         _______ _______ _______ _____ _____    ______ ____
ROOT
ATOM      1  C   UNL     1       4.770   4.811  18.169  0.00  0.00    +0.000 C 
ATOM      2  C   UNL     1       4.089   3.637  18.908  0.00  0.00    +0.000 C 
ATOM      3  N   UNL     1       3.519   4.673  19.794  0.00  0.00    +0.000 N 
ATOM      4  C   UNL     1       2.181   5.042  19.833  0.00  0.00    +0.000 C 
ATOM      5  O   UNL     1       1.321   4.387  19.237  0.00  0.00    +0.000 OA
ATOM      6  C   UNL     1       4.668   5.548  19.535  0.00  0.00    +0.000 C 
ENDROOT
BRANCH   1  11
ATOM      7  C   UNL     1       6.538   4.478  16.423  0.00  0.00    +0.000 A 
ATOM      8  N   UNL     1       7.850   4.333  16.418  0.00  0.00    +0.000 NA
ATOM      9  N   UNL     1       8.289   4.312  17.722  0.00  0.00    +0.000 NA
ATOM     10  C   UNL     1       7.240   4.442  18.496  0.00  0.00    +0.000 A 
ATOM     11  N   UNL     1       6.117   4.570  17.731  0.00  0.00    +0.000 N 
BRANCH   7  12
ATOM     12  C   UNL     1       5.666   4.460  15.219  0.00  0.00    +0.000 C 
BRANCH  12  14
ATOM     13  C   UNL     1       5.101   6.736  15.369  0.00  0.00    +0.000 C 
ATOM     14  O   UNL     1       5.749   5.738  14.589  0.00  0.00    +0.000 OA
ENDBRANCH  12  14
ENDBRANCH   7  12
ENDBRANCH   1  11
BRANCH   4  15
ATOM     15  C   UNL     1       1.839   6.302  20.636  0.00  0.00    +0.000 C 
BRANCH  15  16
ATOM     16  C   UNL     1       1.756   7.622  19.867  0.00  0.00    +0.000 A 
ATOM     17  C   UNL     1       2.208   7.732  18.542  0.00  0.00    +0.000 A 
ATOM     18  C   UNL     1       2.007   8.896  17.795  0.00  0.00    +0.000 A 
ATOM     19  C   UNL     1       1.325   9.971  18.349  0.00  0.00    +0.000 A 
ATOM     20  C   UNL     1       0.913   9.911  19.676  0.00  0.00    +0.000 A 
ATOM     21  C   UNL     1       1.150   8.759  20.455  0.00  0.00    +0.000 A 
ATOM     22  C   UNL     1       0.833   8.838  21.926  0.00  0.00    +0.000 C 
ENDBRANCH  15  16
ENDBRANCH   4  15
TORSDOF 5
ENDMDL
MODEL 4
REMARK VINA RESULT:      -6.8      3.048      4.397
REMARK  Name = 
REMARK  7 active torsions:
REMARK  status: ('A' for Active; 'I' for Inactive)
REMARK    1  A    between atoms: C_1  and  O_2
REMARK    2  A    between atoms: O_2  and  C_3
REMARK    3  A    between atoms: C_3  and  C_4
REMARK    4  A    between atoms: N_8  and  C_9
REMARK    5  A    between atoms: C_12  and  C_14
REMARK    6  A    between atoms: C_14  and  C_15
REMARK    7  A    between atoms: C_20  and  C_21
REMARK                            x       y       z     vdW  Elec       q    Type
REMARK                         _______ _______ _______ _____ _____    ______ ____
ROOT
ATOM      1  C   UNL     1       6.413   4.592  15.878  0.00  0.00    +0.000 C 
ATOM      2  C   UNL     1       7.276   4.904  17.122  0.00  0.00    +0.000 C 
ATOM      3  N   UNL     1       6.031   5.434  17.714  0.00  0.00    +0.000 N 
ATOM      4  C   UNL     1       5.331   4.845  18.758  0.00  0.00    +0.000 C 
ATOM      5  O   UNL     1       5.810   3.904  19.397  0.00  0.00    +0.000 OA
ATOM      6  C   UNL     1       5.517   5.760  16.379  0.00  0.00    +0.000 C 
ENDROOT
BRANCH   1  11
ATOM      7  C   UNL     1       6.593   4.389  13.386  0.00  0.00    +0.000 A 
ATOM      8  N   UNL     1       7.385   4.881  12.450  0.00  0.00    +0.000 NA
ATOM      9  N   UNL     1       8.362   5.633  13.059  0.00  0.00    +0.000 NA
ATOM     10  C   UNL     1       8.151   5.587  14.351  0.00  0.00    +0.000 A 
ATOM     11  N   UNL     1       7.041   4.835  14.610  0.00  0.00    +0.000 N 
BRANCH   7  12
ATOM     12  C   UNL     1       5.465   3.450  13.153  0.00  0.00    +0.000 C 
BRANCH  12  14
ATOM     13  C   UNL     1       5.744   1.841  11.462  0.00  0.00    +0.000 C 
ATOM     14  O   UNL     1       5.385   3.188  11.752  0.00  0.00    +0.000 OA
ENDBRANCH  12  14
ENDBRANCH   7  12
ENDBRANCH   1  11
BRANCH   4  15
ATOM     15  C   UNL     1       3.939   5.412  19.057  0.00  0.00    +0.000 C 
BRANCH  15  16
ATOM     16  C   UNL     1       2.849   4.419  19.462  0.00  0.00    +0.000 A 
ATOM     17  C   UNL     1       2.418   4.300  20.795  0.00  0.00    +0.000 A 
ATOM     18  C   UNL     1       1.331   3.496  21.143  0.00  0.00    +0.000 A 
ATOM     19  C   UNL     1       0.630   2.807  20.162  0.00  0.00    +0.000 A 
ATOM     20  C   UNL     1       1.065   2.862  18.842  0.00  0.00    +0.000 A 
ATOM     21  C   UNL     1       2.190   3.634  18.485  0.00  0.00    +0.000 A 
ATOM     22  C   UNL     1       2.702   3.503  17.073  0.00  0.00    +0.000 C 
ENDBRANCH  15  16
ENDBRANCH   4  15
TORSDOF 5
ENDMDL
MODEL 5
REMARK VINA RESULT:      -6.8      2.524      7.206
REMARK  Name = 
REMARK  7 active torsions:
REMARK  status: ('A' for Active; 'I' for Inactive)
REMARK    1  A    between atoms: C_1  and  O_2
REMARK    2  A    between atoms: O_2  and  C_3
REMARK    3  A    between atoms: C_3  and  C_4
REMARK    4  A    between atoms: N_8  and  C_9
REMARK    5  A    between atoms: C_12  and  C_14
REMARK    6  A    between atoms: C_14  and  C_15
REMARK    7  A    between atoms: C_20  and  C_21
REMARK                            x       y       z     vdW  Elec       q    Type
REMARK                         _______ _______ _______ _____ _____    ______ ____
ROOT
ATOM      1  C   UNL     1       3.274   5.461  17.792  0.00  0.00    +0.000 C 
ATOM      2  C   UNL     1       3.834   6.897  17.675  0.00  0.00    +0.000 C 
ATOM      3  N   UNL     1       5.070   6.254  17.186  0.00  0.00    +0.000 N 
ATOM      4  C   UNL     1       5.541   6.318  15.881  0.00  0.00    +0.000 C 
ATOM      5  O   UNL     1       5.034   7.085  15.056  0.00  0.00    +0.000 OA
ATOM      6  C   UNL     1       4.763   5.043  17.955  0.00  0.00    +0.000 C 
ENDROOT
BRANCH   1  11
ATOM      7  C   UNL     1       1.724   4.066  19.184  0.00  0.00    +0.000 A 
ATOM      8  N   UNL     1       1.181   4.163  20.384  0.00  0.00    +0.000 NA
ATOM      9  N   UNL     1       1.547   5.372  20.929  0.00  0.00    +0.000 NA
ATOM     10  C   UNL     1       2.303   5.989  20.055  0.00  0.00    +0.000 A 
ATOM     11  N   UNL     1       2.463   5.205  18.949  0.00  0.00    +0.000 N 
BRANCH   7  12
ATOM     12  C   UNL     1       1.502   2.951  18.227  0.00  0.00    +0.000 C 
BRANCH  12  14
ATOM     13  C   UNL     1       3.433   1.646  18.535  0.00  0.00    +0.000 C 
ATOM     14  O   UNL     1       2.039   1.758  18.799  0.00  0.00    +0.000 OA
ENDBRANCH  12  14
ENDBRANCH   7  12
ENDBRANCH   1  11
BRANCH   4  15
ATOM     15  C   UNL     1       6.700   5.382  15.522  0.00  0.00    +0.000 C 
BRANCH  15  16
ATOM     16  C   UNL     1       6.611   4.632  14.193  0.00  0.00    +0.000 A 
ATOM     17  C   UNL     1       5.609   3.676  13.952  0.00  0.00    +0.000 A 
ATOM     18  C   UNL     1       5.443   3.092  12.694  0.00  0.00    +0.000 A 
ATOM     19  C   UNL     1       6.260   3.469  11.636  0.00  0.00    +0.000 A 
ATOM     20  C   UNL     1       7.294   4.372  11.858  0.00  0.00    +0.000 A 
ATOM     21  C   UNL     1       7.502   4.934  13.134  0.00  0.00    +0.000 A 
ATOM     22  C   UNL     1       8.744   5.764  13.334  0.00  0.00    +0.000 C 
ENDBRANCH  15  16
ENDBRANCH   4  15
TORSDOF 5
ENDMDL
MODEL 6
REMARK VINA RESULT:      -6.7      2.888      6.025
REMARK  Name = 
REMARK  7 active torsions:
REMARK  status: ('A' for Active; 'I' for Inactive)
REMARK    1  A    between atoms: C_1  and  O_2
REMARK    2  A    between atoms: O_2  and  C_3
REMARK    3  A    between atoms: C_3  and  C_4
REMARK    4  A    between atoms: N_8  and  C_9
REMARK    5  A    between atoms: C_12  and  C_14
REMARK    6  A    between atoms: C_14  and  C_15
REMARK    7  A    between atoms: C_20  and  C_21
REMARK                            x       y       z     vdW  Elec       q    Type
REMARK                         _______ _______ _______ _____ _____    ______ ____
ROOT
ATOM      1  C   UNL     1       2.582   5.054  19.178  0.00  0.00    +0.000 C 
ATOM      2  C   UNL     1       2.252   6.527  19.513  0.00  0.00    +0.000 C 
ATOM      3  N   UNL     1       3.568   6.839  18.919  0.00  0.00    +0.000 N 
ATOM      4  C   UNL     1       3.763   7.503  17.715  0.00  0.00    +0.000 C 
ATOM      5  O   UNL     1       2.824   8.047  17.127  0.00  0.00    +0.000 OA
ATOM      6  C   UNL     1       4.066   5.508  19.285  0.00  0.00    +0.000 C 
ENDROOT
BRANCH   1  11
ATOM      7  C   UNL     1       1.679   2.836  19.918  0.00  0.00    +0.000 A 
ATOM      8  N   UNL     1       1.517   2.216  21.073  0.00  0.00    +0.000 NA
ATOM      9  N   UNL     1       1.905   3.068  22.081  0.00  0.00    +0.000 NA
ATOM     10  C   UNL     1       2.293   4.189  21.525  0.00  0.00    +0.000 A 
ATOM     11  N   UNL     1       2.190   4.091  20.168  0.00  0.00    +0.000 N 
BRANCH   7  12
ATOM     12  C   UNL     1       1.294   2.294  18.589  0.00  0.00    +0.000 C 
BRANCH  12  14
ATOM     13  C   UNL     1       3.482   1.457  18.396  0.00  0.00    +0.000 C 
ATOM     14  O   UNL     1       2.464   2.235  17.774  0.00  0.00    +0.000 OA
ENDBRANCH  12  14
ENDBRANCH   7  12
ENDBRANCH   1  11
BRANCH   4  15
ATOM     15  C   UNL     1       5.190   7.506  17.157  0.00  0.00    +0.000 C 
BRANCH  15  16
ATOM     16  C   UNL     1       5.679   6.229  16.473  0.00  0.00    +0.000 A 
ATOM     17  C   UNL     1       5.018   5.692  15.356  0.00  0.00    +0.000 A 
ATOM     18  C   UNL     1       5.541   4.607  14.648  0.00  0.00    +0.000 A 
ATOM     19  C   UNL     1       6.754   4.047  15.025  0.00  0.00    +0.000 A 
ATOM     20  C   UNL     1       7.405   4.523  16.159  0.00  0.00    +0.000 A 
ATOM     21  C   UNL     1       6.864   5.587  16.909  0.00  0.00    +0.000 A 
ATOM     22  C   UNL     1       7.533   5.927  18.216  0.00  0.00    +0.000 C 
ENDBRANCH  15  16
ENDBRANCH   4  15
TORSDOF 5
ENDMDL
MODEL 7
REMARK VINA RESULT:      -6.6      2.060      3.369
REMARK  Name = 
REMARK  7 active torsions:
REMARK  status: ('A' for Active; 'I' for Inactive)
REMARK    1  A    between atoms: C_1  and  O_2
REMARK    2  A    between atoms: O_2  and  C_3
REMARK    3  A    between atoms: C_3  and  C_4
REMARK    4  A    between atoms: N_8  and  C_9
REMARK    5  A    between atoms: C_12  and  C_14
REMARK    6  A    between atoms: C_14  and  C_15
REMARK    7  A    between atoms: C_20  and  C_21
REMARK                            x       y       z     vdW  Elec       q    Type
REMARK                         _______ _______ _______ _____ _____    ______ ____
ROOT
ATOM      1  C   UNL     1       5.519   3.848  15.071  0.00  0.00    +0.000 C 
ATOM      2  C   UNL     1       6.025   3.577  16.506  0.00  0.00    +0.000 C 
ATOM      3  N   UNL     1       4.722   4.114  16.947  0.00  0.00    +0.000 N 
ATOM      4  C   UNL     1       3.702   3.366  17.519  0.00  0.00    +0.000 C 
ATOM      5  O   UNL     1       3.888   2.197  17.870  0.00  0.00    +0.000 OA
ATOM      6  C   UNL     1       4.638   4.942  15.738  0.00  0.00    +0.000 C 
ENDROOT
BRANCH   1  11
ATOM      7  C   UNL     1       6.592   4.057  12.815  0.00  0.00    +0.000 A 
ATOM      8  N   UNL     1       7.563   4.783  12.291  0.00  0.00    +0.000 NA
ATOM      9  N   UNL     1       8.120   5.548  13.288  0.00  0.00    +0.000 NA
ATOM     10  C   UNL     1       7.482   5.277  14.400  0.00  0.00    +0.000 A 
ATOM     11  N   UNL     1       6.500   4.361  14.155  0.00  0.00    +0.000 N 
BRANCH   7  12
ATOM     12  C   UNL     1       5.797   3.032  12.090  0.00  0.00    +0.000 C 
BRANCH  12  14
ATOM     13  C   UNL     1       3.850   3.227  10.787  0.00  0.00    +0.000 C 
ATOM     14  O   UNL     1       4.435   3.459  12.064  0.00  0.00    +0.000 OA
ENDBRANCH  12  14
ENDBRANCH   7  12
ENDBRANCH   1  11
BRANCH   4  15
ATOM     15  C   UNL     1       2.345   4.060  17.674  0.00  0.00    +0.000 C 
BRANCH  15  16
ATOM     16  C   UNL     1       2.274   5.262  18.616  0.00  0.00    +0.000 A 
ATOM     17  C   UNL     1       2.541   6.566  18.166  0.00  0.00    +0.000 A 
ATOM     18  C   UNL     1       2.343   7.678  18.989  0.00  0.00    +0.000 A 
ATOM     19  C   UNL     1       1.849   7.514  20.276  0.00  0.00    +0.000 A 
ATOM     20  C   UNL     1       1.627   6.231  20.767  0.00  0.00    +0.000 A 
ATOM     21  C   UNL     1       1.866   5.099  19.962  0.00  0.00    +0.000 A 
ATOM     22  C   UNL     1       1.771   3.747  20.620  0.00  0.00    +0.000 C 
ENDBRANCH  15  16
ENDBRANCH   4  15
TORSDOF 5
ENDMDL
MODEL 8
REMARK VINA RESULT:      -6.6      2.822      6.115
REMARK  Name = 
REMARK  7 active torsions:
REMARK  status: ('A' for Active; 'I' for Inactive)
REMARK    1  A    between atoms: C_1  and  O_2
REMARK    2  A    between atoms: O_2  and  C_3
REMARK    3  A    between atoms: C_3  and  C_4
REMARK    4  A    between atoms: N_8  and  C_9
REMARK    5  A    between atoms: C_12  and  C_14
REMARK    6  A    between atoms: C_14  and  C_15
REMARK    7  A    between atoms: C_20  and  C_21
REMARK                            x       y       z     vdW  Elec       q    Type
REMARK                         _______ _______ _______ _____ _____    ______ ____
ROOT
ATOM      1  C   UNL     1       2.273   5.172  19.124  0.00  0.00    +0.000 C 
ATOM      2  C   UNL     1       2.545   6.606  19.635  0.00  0.00    +0.000 C 
ATOM      3  N   UNL     1       3.583   6.661  18.585  0.00  0.00    +0.000 N 
ATOM      4  C   UNL     1       3.515   7.438  17.436  0.00  0.00    +0.000 C 
ATOM      5  O   UNL     1       2.636   8.293  17.295  0.00  0.00    +0.000 OA
ATOM      6  C   UNL     1       3.755   5.206  18.658  0.00  0.00    +0.000 C 
ENDROOT
BRANCH   1  11
ATOM      7  C   UNL     1       1.469   2.940  19.934  0.00  0.00    +0.000 A 
ATOM      8  N   UNL     1       1.441   2.305  21.092  0.00  0.00    +0.000 NA
ATOM      9  N   UNL     1       1.933   3.148  22.061  0.00  0.00    +0.000 NA
ATOM     10  C   UNL     1       2.251   4.278  21.479  0.00  0.00    +0.000 A 
ATOM     11  N   UNL     1       1.998   4.195  20.140  0.00  0.00    +0.000 N 
BRANCH   7  12
ATOM     12  C   UNL     1       0.942   2.409  18.649  0.00  0.00    +0.000 C 
BRANCH  12  14
ATOM     13  C   UNL     1       3.107   1.574  18.274  0.00  0.00    +0.000 C 
ATOM     14  O   UNL     1       2.025   2.320  17.725  0.00  0.00    +0.000 OA
ENDBRANCH  12  14
ENDBRANCH   7  12
ENDBRANCH   1  11
BRANCH   4  15
ATOM     15  C   UNL     1       4.571   7.165  16.359  0.00  0.00    +0.000 C 
BRANCH  15  16
ATOM     16  C   UNL     1       5.806   6.365  16.775  0.00  0.00    +0.000 A 
ATOM     17  C   UNL     1       6.634   6.783  17.830  0.00  0.00    +0.000 A 
ATOM     18  C   UNL     1       7.681   5.985  18.299  0.00  0.00    +0.000 A 
ATOM     19  C   UNL     1       7.909   4.735  17.740  0.00  0.00    +0.000 A 
ATOM     20  C   UNL     1       7.140   4.317  16.658  0.00  0.00    +0.000 A 
ATOM     21  C   UNL     1       6.111   5.133  16.146  0.00  0.00    +0.000 A 
ATOM     22  C   UNL     1       5.443   4.689  14.870  0.00  0.00    +0.000 C 
ENDBRANCH  15  16
ENDBRANCH   4  15
TORSDOF 5
ENDMDL
MODEL 9
REMARK VINA RESULT:      -6.5      1.738      2.314
REMARK  Name = 
REMARK  7 active torsions:
REMARK  status: ('A' for Active; 'I' for Inactive)
REMARK    1  A    between atoms: C_1  and  O_2
REMARK    2  A    between atoms: O_2  and  C_3
REMARK    3  A    between atoms: C_3  and  C_4
REMARK    4  A    between atoms: N_8  and  C_9
REMARK    5  A    between atoms: C_12  and  C_14
REMARK    6  A    between atoms: C_14  and  C_15
REMARK    7  A    between atoms: C_20  and  C_21
REMARK                            x       y       z     vdW  Elec       q    Type
REMARK                         _______ _______ _______ _____ _____    ______ ____
ROOT
ATOM      1  C   UNL     1       4.318   5.189  17.240  0.00  0.00    +0.000 C 
ATOM      2  C   UNL     1       3.926   3.931  18.047  0.00  0.00    +0.000 C 
ATOM      3  N   UNL     1       3.530   4.875  19.112  0.00  0.00    +0.000 N 
ATOM      4  C   UNL     1       2.223   5.130  19.506  0.00  0.00    +0.000 C 
ATOM      5  O   UNL     1       1.287   4.435  19.101  0.00  0.00    +0.000 OA
ATOM      6  C   UNL     1       4.514   5.852  18.633  0.00  0.00    +0.000 C 
ENDROOT
BRANCH   1  11
ATOM      7  C   UNL     1       6.623   5.903  16.560  0.00  0.00    +0.000 A 
ATOM      8  N   UNL     1       7.559   5.439  15.753  0.00  0.00    +0.000 NA
ATOM      9  N   UNL     1       7.069   4.323  15.116  0.00  0.00    +0.000 NA
ATOM     10  C   UNL     1       5.846   4.127  15.544  0.00  0.00    +0.000 A 
ATOM     11  N   UNL     1       5.523   5.079  16.467  0.00  0.00    +0.000 N 
BRANCH   7  12
ATOM     12  C   UNL     1       6.721   7.149  17.365  0.00  0.00    +0.000 C 
BRANCH  12  14
ATOM     13  C   UNL     1       8.216   8.889  17.877  0.00  0.00    +0.000 C 
ATOM     14  O   UNL     1       7.890   7.856  16.953  0.00  0.00    +0.000 OA
ENDBRANCH  12  14
ENDBRANCH   7  12
ENDBRANCH   1  11
BRANCH   4  15
ATOM     15  C   UNL     1       2.010   6.320  20.449  0.00  0.00    +0.000 C 
BRANCH  15  16
ATOM     16  C   UNL     1       1.762   7.687  19.809  0.00  0.00    +0.000 A 
ATOM     17  C   UNL     1       2.055   7.931  18.457  0.00  0.00    +0.000 A 
ATOM     18  C   UNL     1       1.702   9.132  17.837  0.00  0.00    +0.000 A 
ATOM     19  C   UNL     1       1.023  10.111  18.549  0.00  0.00    +0.000 A 
ATOM     20  C   UNL     1       0.767   9.920  19.903  0.00  0.00    +0.000 A 
ATOM     21  C   UNL     1       1.159   8.731  20.551  0.00  0.00    +0.000 A 
ATOM     22  C   UNL     1       1.004   8.673  22.049  0.00  0.00    +0.000 C 
ENDBRANCH  15  16
ENDBRANCH   4  15
TORSDOF 5
ENDMDL
