MODEL 1
REMARK VINA RESULT:      -8.4      0.000      0.000
REMARK  Name = 
REMARK  2 active torsions:
REMARK  status: ('A' for Active; 'I' for Inactive)
REMARK    1  A    between atoms: C_7  and  S_8
REMARK    2  A    between atoms: S_8  and  N_11
REMARK                            x       y       z     vdW  Elec       q    Type
REMARK                         _______ _______ _______ _____ _____    ______ ____
ROOT
ATOM      1  S   UNL     1       4.255   5.610  17.863  0.00  0.00    +0.000 S 
ATOM      2  O   UNL     1       4.885   5.945  16.604  0.00  0.00    +0.000 OA
ATOM      3  O   UNL     1       5.065   5.206  19.005  0.00  0.00    +0.000 OA
ENDROOT
BRANCH   1  10
ATOM      4  O   UNL     1      -1.152  10.821  20.540  0.00  0.00    +0.000 OA
ATOM      5  C   UNL     1      -0.144  10.143  20.382  0.00  0.00    +0.000 C 
ATOM      6  C   UNL     1       0.717   9.651  21.523  0.00  0.00    +0.000 C 
ATOM      7  C   UNL     1       1.152   8.212  21.274  0.00  0.00    +0.000 C 
ATOM      8  C   UNL     1       1.812   8.107  19.924  0.00  0.00    +0.000 A 
ATOM      9  C   UNL     1       2.721   7.084  19.625  0.00  0.00    +0.000 A 
ATOM     10  C   UNL     1       3.344   7.057  18.368  0.00  0.00    +0.000 A 
ATOM     11  C   UNL     1       3.066   8.045  17.416  0.00  0.00    +0.000 A 
ATOM     12  C   UNL     1       2.077   8.996  17.676  0.00  0.00    +0.000 A 
ATOM     13  C   UNL     1       1.438   9.004  18.911  0.00  0.00    +0.000 A 
ATOM     14  N   UNL     1       0.373   9.885  19.133  0.00  0.00    +0.000 N 
ATOM     15  H   UNL     1      -0.098  10.325  18.354  0.00  0.00    +0.000 HD
ENDBRANCH   1  10
BRANCH   1  16
ATOM     16  N   UNL     1       3.073   4.449  17.590  0.00  0.00    +0.000 NA
ATOM     17  C   UNL     1       3.267   3.019  17.949  0.00  0.00    +0.000 C 
ATOM     18  C   UNL     1       1.949   2.560  18.619  0.00  0.00    +0.000 C 
ATOM     19  C   UNL     1       1.971   2.038  20.093  0.00  0.00    +0.000 C 
ATOM     20  C   UNL     1       3.053   2.723  20.926  0.00  0.00    +0.000 C 
ATOM     21  C   UNL     1       2.580   4.186  20.900  0.00  0.00    +0.000 C 
ATOM     22  C   UNL     1       1.162   4.112  20.272  0.00  0.00    +0.000 C 
ATOM     23  C   UNL     1       0.733   2.711  20.727  0.00  0.00    +0.000 C 
ATOM     24  C   UNL     1       1.114   3.841  18.751  0.00  0.00    +0.000 C 
ATOM     25  C   UNL     1       1.667   4.813  17.737  0.00  0.00    +0.000 C 
ENDBRANCH   1  16
TORSDOF 2
ENDMDL
MODEL 2
REMARK VINA RESULT:      -8.4      1.040      1.755
REMARK  Name = 
REMARK  2 active torsions:
REMARK  status: ('A' for Active; 'I' for Inactive)
REMARK    1  A    between atoms: C_7  and  S_8
REMARK    2  A    between atoms: S_8  and  N_11
REMARK                            x       y       z     vdW  Elec       q    Type
REMARK                         _______ _______ _______ _____ _____    ______ ____
ROOT
ATOM      1  S   UNL     1       3.859   6.288  18.149  0.00  0.00    +0.000 S 
ATOM      2  O   UNL     1       4.420   7.101  17.091  0.00  0.00    +0.000 OA
ATOM      3  O   UNL     1       4.699   5.828  19.246  0.00  0.00    +0.000 OA
ENDROOT
BRANCH   1  10
ATOM      4  O   UNL     1      -0.861  12.036  21.022  0.00  0.00    +0.000 OA
ATOM      5  C   UNL     1      -0.393  11.105  20.376  0.00  0.00    +0.000 C 
ATOM      6  C   UNL     1      -0.664  10.894  18.904  0.00  0.00    +0.000 C 
ATOM      7  C   UNL     1       0.612  10.471  18.188  0.00  0.00    +0.000 C 
ATOM      8  C   UNL     1       1.207   9.269  18.876  0.00  0.00    +0.000 A 
ATOM      9  C   UNL     1       2.056   8.381  18.204  0.00  0.00    +0.000 A 
ATOM     10  C   UNL     1       2.547   7.251  18.877  0.00  0.00    +0.000 A 
ATOM     11  C   UNL     1       2.190   7.007  20.210  0.00  0.00    +0.000 A 
ATOM     12  C   UNL     1       1.436   7.952  20.907  0.00  0.00    +0.000 A 
ATOM     13  C   UNL     1       0.975   9.087  20.248  0.00  0.00    +0.000 A 
ATOM     14  N   UNL     1       0.314  10.087  20.971  0.00  0.00    +0.000 N 
ATOM     15  H   UNL     1       0.386  10.122  21.979  0.00  0.00    +0.000 HD
ENDBRANCH   1  10
BRANCH   1  16
ATOM     16  N   UNL     1       3.077   4.969  17.466  0.00  0.00    +0.000 NA
ATOM     17  C   UNL     1       3.676   3.608  17.456  0.00  0.00    +0.000 C 
ATOM     18  C   UNL     1       2.539   2.633  17.849  0.00  0.00    +0.000 C 
ATOM     19  C   UNL     1       2.687   1.748  19.130  0.00  0.00    +0.000 C 
ATOM     20  C   UNL     1       3.504   2.446  20.216  0.00  0.00    +0.000 C 
ATOM     21  C   UNL     1       2.622   3.667  20.527  0.00  0.00    +0.000 C 
ATOM     22  C   UNL     1       1.300   3.380  19.764  0.00  0.00    +0.000 C 
ATOM     23  C   UNL     1       1.295   1.846  19.792  0.00  0.00    +0.000 C 
ATOM     24  C   UNL     1       1.362   3.542  18.227  0.00  0.00    +0.000 C 
ATOM     25  C   UNL     1       1.623   4.872  17.563  0.00  0.00    +0.000 C 
ENDBRANCH   1  16
TORSDOF 2
ENDMDL
MODEL 3
REMARK VINA RESULT:      -8.0      2.404      3.825
REMARK  Name = 
REMARK  2 active torsions:
REMARK  status: ('A' for Active; 'I' for Inactive)
REMARK    1  A    between atoms: C_7  and  S_8
REMARK    2  A    between atoms: S_8  and  N_11
REMARK                            x       y       z     vdW  Elec       q    Type
REMARK                         _______ _______ _______ _____ _____    ______ ____
ROOT
ATOM      1  S   UNL     1       2.637   4.642  18.747  0.00  0.00    +0.000 S 
ATOM      2  O   UNL     1       1.903   3.933  19.773  0.00  0.00    +0.000 OA
ATOM      3  O   UNL     1       2.332   4.421  17.340  0.00  0.00    +0.000 OA
ENDROOT
BRANCH   1  10
ATOM      4  O   UNL     1      -0.208  11.836  20.671  0.00  0.00    +0.000 OA
ATOM      5  C   UNL     1       0.445  10.801  20.618  0.00  0.00    +0.000 C 
ATOM      6  C   UNL     1       1.064  10.143  21.829  0.00  0.00    +0.000 C 
ATOM      7  C   UNL     1       0.888   8.631  21.756  0.00  0.00    +0.000 C 
ATOM      8  C   UNL     1       1.426   8.120  20.445  0.00  0.00    +0.000 A 
ATOM      9  C   UNL     1       1.849   6.794  20.289  0.00  0.00    +0.000 A 
ATOM     10  C   UNL     1       2.384   6.379  19.060  0.00  0.00    +0.000 A 
ATOM     11  C   UNL     1       2.500   7.280  17.994  0.00  0.00    +0.000 A 
ATOM     12  C   UNL     1       1.974   8.568  18.119  0.00  0.00    +0.000 A 
ATOM     13  C   UNL     1       1.416   8.969  19.328  0.00  0.00    +0.000 A 
ATOM     14  N   UNL     1       0.791  10.219  19.421  0.00  0.00    +0.000 N 
ATOM     15  H   UNL     1       0.517  10.717  18.584  0.00  0.00    +0.000 HD
ENDBRANCH   1  10
BRANCH   1  16
ATOM     16  N   UNL     1       4.282   4.410  18.994  0.00  0.00    +0.000 NA
ATOM     17  C   UNL     1       5.103   3.543  18.109  0.00  0.00    +0.000 C 
ATOM     18  C   UNL     1       6.415   4.322  17.839  0.00  0.00    +0.000 C 
ATOM     19  C   UNL     1       6.797   4.708  16.373  0.00  0.00    +0.000 C 
ATOM     20  C   UNL     1       5.564   4.965  15.508  0.00  0.00    +0.000 C 
ATOM     21  C   UNL     1       4.940   6.178  16.218  0.00  0.00    +0.000 C 
ATOM     22  C   UNL     1       6.022   6.614  17.242  0.00  0.00    +0.000 C 
ATOM     23  C   UNL     1       7.292   6.165  16.506  0.00  0.00    +0.000 C 
ATOM     24  C   UNL     1       6.186   5.699  18.478  0.00  0.00    +0.000 C 
ATOM     25  C   UNL     1       5.090   5.516  19.500  0.00  0.00    +0.000 C 
ENDBRANCH   1  16
TORSDOF 2
ENDMDL
MODEL 4
REMARK VINA RESULT:      -7.8      1.701      2.628
REMARK  Name = 
REMARK  2 active torsions:
REMARK  status: ('A' for Active; 'I' for Inactive)
REMARK    1  A    between atoms: C_7  and  S_8
REMARK    2  A    between atoms: S_8  and  N_11
REMARK                            x       y       z     vdW  Elec       q    Type
REMARK                         _______ _______ _______ _____ _____    ______ ____
ROOT
ATOM      1  S   UNL     1       2.646   6.947  18.288  0.00  0.00    +0.000 S 
ATOM      2  O   UNL     1       1.566   6.337  17.543  0.00  0.00    +0.000 OA
ATOM      3  O   UNL     1       3.812   7.475  17.594  0.00  0.00    +0.000 OA
ENDROOT
BRANCH   1  10
ATOM      4  O   UNL     1      -2.046  11.868  22.450  0.00  0.00    +0.000 OA
ATOM      5  C   UNL     1      -1.132  11.142  22.079  0.00  0.00    +0.000 C 
ATOM      6  C   UNL     1      -0.328  10.271  23.016  0.00  0.00    +0.000 C 
ATOM      7  C   UNL     1      -0.077   8.907  22.384  0.00  0.00    +0.000 C 
ATOM      8  C   UNL     1       0.552   9.083  21.027  0.00  0.00    +0.000 A 
ATOM      9  C   UNL     1       1.324   8.075  20.435  0.00  0.00    +0.000 A 
ATOM     10  C   UNL     1       1.927   8.307  19.189  0.00  0.00    +0.000 A 
ATOM     11  C   UNL     1       1.763   9.536  18.538  0.00  0.00    +0.000 A 
ATOM     12  C   UNL     1       0.903  10.494  19.077  0.00  0.00    +0.000 A 
ATOM     13  C   UNL     1       0.282  10.252  20.298  0.00  0.00    +0.000 A 
ATOM     14  N   UNL     1      -0.664  11.162  20.786  0.00  0.00    +0.000 N 
ATOM     15  H   UNL     1      -1.084  11.844  20.168  0.00  0.00    +0.000 HD
ENDBRANCH   1  10
BRANCH   1  16
ATOM     16  N   UNL     1       3.155   5.881  19.482  0.00  0.00    +0.000 NA
ATOM     17  C   UNL     1       2.221   4.940  20.156  0.00  0.00    +0.000 C 
ATOM     18  C   UNL     1       2.957   3.578  20.226  0.00  0.00    +0.000 C 
ATOM     19  C   UNL     1       2.338   2.328  19.521  0.00  0.00    +0.000 C 
ATOM     20  C   UNL     1       1.553   2.708  18.266  0.00  0.00    +0.000 C 
ATOM     21  C   UNL     1       2.659   3.308  17.383  0.00  0.00    +0.000 C 
ATOM     22  C   UNL     1       3.971   2.967  18.138  0.00  0.00    +0.000 C 
ATOM     23  C   UNL     1       3.555   1.666  18.837  0.00  0.00    +0.000 C 
ATOM     24  C   UNL     1       4.244   3.791  19.418  0.00  0.00    +0.000 C 
ATOM     25  C   UNL     1       4.483   5.282  19.385  0.00  0.00    +0.000 C 
ENDBRANCH   1  16
TORSDOF 2
ENDMDL
MODEL 5
REMARK VINA RESULT:      -7.7      2.641      4.321
REMARK  Name = 
REMARK  2 active torsions:
REMARK  status: ('A' for Active; 'I' for Inactive)
REMARK    1  A    between atoms: C_7  and  S_8
REMARK    2  A    between atoms: S_8  and  N_11
REMARK                            x       y       z     vdW  Elec       q    Type
REMARK                         _______ _______ _______ _____ _____    ______ ____
ROOT
ATOM      1  S   UNL     1       3.183   3.763  18.363  0.00  0.00    +0.000 S 
ATOM      2  O   UNL     1       2.672   2.680  19.175  0.00  0.00    +0.000 OA
ATOM      3  O   UNL     1       3.044   3.725  16.914  0.00  0.00    +0.000 OA
ENDROOT
BRANCH   1  10
ATOM      4  O   UNL     1       1.091  11.192  20.361  0.00  0.00    +0.000 OA
ATOM      5  C   UNL     1       1.157  10.083  19.844  0.00  0.00    +0.000 C 
ATOM      6  C   UNL     1       0.825   9.820  18.394  0.00  0.00    +0.000 C 
ATOM      7  C   UNL     1       1.833   8.851  17.789  0.00  0.00    +0.000 C 
ATOM      8  C   UNL     1       1.910   7.604  18.632  0.00  0.00    +0.000 A 
ATOM      9  C   UNL     1       2.344   6.382  18.104  0.00  0.00    +0.000 A 
ATOM     10  C   UNL     1       2.353   5.240  18.919  0.00  0.00    +0.000 A 
ATOM     11  C   UNL     1       1.930   5.315  20.252  0.00  0.00    +0.000 A 
ATOM     12  C   UNL     1       1.606   6.555  20.805  0.00  0.00    +0.000 A 
ATOM     13  C   UNL     1       1.626   7.692  20.004  0.00  0.00    +0.000 A 
ATOM     14  N   UNL     1       1.409   8.949  20.581  0.00  0.00    +0.000 N 
ATOM     15  H   UNL     1       1.489   9.074  21.582  0.00  0.00    +0.000 HD
ENDBRANCH   1  10
BRANCH   1  16
ATOM     16  N   UNL     1       4.796   4.021  18.752  0.00  0.00    +0.000 NA
ATOM     17  C   UNL     1       5.907   3.570  17.873  0.00  0.00    +0.000 C 
ATOM     18  C   UNL     1       6.916   4.744  17.817  0.00  0.00    +0.000 C 
ATOM     19  C   UNL     1       7.251   5.411  16.443  0.00  0.00    +0.000 C 
ATOM     20  C   UNL     1       6.059   5.383  15.488  0.00  0.00    +0.000 C 
ATOM     21  C   UNL     1       5.035   6.243  16.247  0.00  0.00    +0.000 C 
ATOM     22  C   UNL     1       5.854   6.858  17.414  0.00  0.00    +0.000 C 
ATOM     23  C   UNL     1       7.245   6.921  16.770  0.00  0.00    +0.000 C 
ATOM     24  C   UNL     1       6.220   5.890  18.563  0.00  0.00    +0.000 C 
ATOM     25  C   UNL     1       5.176   5.250  19.445  0.00  0.00    +0.000 C 
ENDBRANCH   1  16
TORSDOF 2
ENDMDL
MODEL 6
REMARK VINA RESULT:      -7.7      3.542      6.356
REMARK  Name = 
REMARK  2 active torsions:
REMARK  status: ('A' for Active; 'I' for Inactive)
REMARK    1  A    between atoms: C_7  and  S_8
REMARK    2  A    between atoms: S_8  and  N_11
REMARK                            x       y       z     vdW  Elec       q    Type
REMARK                         _______ _______ _______ _____ _____    ______ ____
ROOT
ATOM      1  S   UNL     1       5.548   4.610  19.279  0.00  0.00    +0.000 S 
ATOM      2  O   UNL     1       5.604   3.171  19.422  0.00  0.00    +0.000 OA
ATOM      3  O   UNL     1       6.461   5.459  20.031  0.00  0.00    +0.000 OA
ENDROOT
BRANCH   1  10
ATOM      4  O   UNL     1       7.628   4.435  11.584  0.00  0.00    +0.000 OA
ATOM      5  C   UNL     1       7.003   4.484  12.637  0.00  0.00    +0.000 C 
ATOM      6  C   UNL     1       5.632   3.876  12.821  0.00  0.00    +0.000 C 
ATOM      7  C   UNL     1       5.537   3.189  14.178  0.00  0.00    +0.000 C 
ATOM      8  C   UNL     1       5.925   4.157  15.266  0.00  0.00    +0.000 A 
ATOM      9  C   UNL     1       5.483   3.998  16.586  0.00  0.00    +0.000 A 
ATOM     10  C   UNL     1       5.835   4.952  17.553  0.00  0.00    +0.000 A 
ATOM     11  C   UNL     1       6.619   6.059  17.205  0.00  0.00    +0.000 A 
ATOM     12  C   UNL     1       7.150   6.154  15.918  0.00  0.00    +0.000 A 
ATOM     13  C   UNL     1       6.825   5.191  14.967  0.00  0.00    +0.000 A 
ATOM     14  N   UNL     1       7.441   5.224  13.711  0.00  0.00    +0.000 N 
ATOM     15  H   UNL     1       8.285   5.764  13.568  0.00  0.00    +0.000 HD
ENDBRANCH   1  10
BRANCH   1  16
ATOM     16  N   UNL     1       3.972   5.124  19.548  0.00  0.00    +0.000 NA
ATOM     17  C   UNL     1       3.039   5.439  18.434  0.00  0.00    +0.000 C 
ATOM     18  C   UNL     1       1.682   4.795  18.813  0.00  0.00    +0.000 C 
ATOM     19  C   UNL     1       1.055   3.706  17.883  0.00  0.00    +0.000 C 
ATOM     20  C   UNL     1       2.124   2.874  17.175  0.00  0.00    +0.000 C 
ATOM     21  C   UNL     1       2.826   2.199  18.365  0.00  0.00    +0.000 C 
ATOM     22  C   UNL     1       1.914   2.532  19.577  0.00  0.00    +0.000 C 
ATOM     23  C   UNL     1       0.553   2.635  18.877  0.00  0.00    +0.000 C 
ATOM     24  C   UNL     1       1.977   3.990  20.086  0.00  0.00    +0.000 C 
ATOM     25  C   UNL     1       3.230   4.585  20.684  0.00  0.00    +0.000 C 
ENDBRANCH   1  16
TORSDOF 2
ENDMDL
MODEL 7
REMARK VINA RESULT:      -7.7      2.702      3.974
REMARK  Name = 
REMARK  2 active torsions:
REMARK  status: ('A' for Active; 'I' for Inactive)
REMARK    1  A    between atoms: C_7  and  S_8
REMARK    2  A    between atoms: S_8  and  N_11
REMARK                            x       y       z     vdW  Elec       q    Type
REMARK                         _______ _______ _______ _____ _____    ______ ____
ROOT
ATOM      1  S   UNL     1       3.326   5.646  18.795  0.00  0.00    +0.000 S 
ATOM      2  O   UNL     1       3.227   4.917  20.042  0.00  0.00    +0.000 OA
ATOM      3  O   UNL     1       2.730   5.107  17.581  0.00  0.00    +0.000 OA
ENDROOT
BRANCH   1  10
ATOM      4  O   UNL     1      -1.539  11.681  20.660  0.00  0.00    +0.000 OA
ATOM      5  C   UNL     1      -0.601  10.894  20.607  0.00  0.00    +0.000 C 
ATOM      6  C   UNL     1       0.217  10.491  21.812  0.00  0.00    +0.000 C 
ATOM      7  C   UNL     1       0.510   8.997  21.775  0.00  0.00    +0.000 C 
ATOM      8  C   UNL     1       1.148   8.636  20.459  0.00  0.00    +0.000 A 
ATOM      9  C   UNL     1       1.953   7.498  20.317  0.00  0.00    +0.000 A 
ATOM     10  C   UNL     1       2.561   7.231  19.081  0.00  0.00    +0.000 A 
ATOM     11  C   UNL     1       2.371   8.094  17.994  0.00  0.00    +0.000 A 
ATOM     12  C   UNL     1       1.480   9.163  18.108  0.00  0.00    +0.000 A 
ATOM     13  C   UNL     1       0.853   9.409  19.325  0.00  0.00    +0.000 A 
ATOM     14  N   UNL     1      -0.121  10.411  19.412  0.00  0.00    +0.000 N 
ATOM     15  H   UNL     1      -0.554  10.777  18.574  0.00  0.00    +0.000 HD
ENDBRANCH   1  10
BRANCH   1  16
ATOM     16  N   UNL     1       4.938   6.009  18.502  0.00  0.00    +0.000 NA
ATOM     17  C   UNL     1       5.999   4.968  18.500  0.00  0.00    +0.000 C 
ATOM     18  C   UNL     1       6.892   5.263  17.270  0.00  0.00    +0.000 C 
ATOM     19  C   UNL     1       7.040   4.187  16.145  0.00  0.00    +0.000 C 
ATOM     20  C   UNL     1       5.773   3.349  15.985  0.00  0.00    +0.000 C 
ATOM     21  C   UNL     1       4.752   4.415  15.554  0.00  0.00    +0.000 C 
ATOM     22  C   UNL     1       5.616   5.674  15.279  0.00  0.00    +0.000 C 
ATOM     23  C   UNL     1       6.932   5.015  14.845  0.00  0.00    +0.000 C 
ATOM     24  C   UNL     1       6.169   6.396  16.529  0.00  0.00    +0.000 C 
ATOM     25  C   UNL     1       5.271   7.061  17.544  0.00  0.00    +0.000 C 
ENDBRANCH   1  16
TORSDOF 2
ENDMDL
MODEL 8
REMARK VINA RESULT:      -7.5      2.527      3.771
REMARK  Name = 
REMARK  2 active torsions:
REMARK  status: ('A' for Active; 'I' for Inactive)
REMARK    1  A    between atoms: C_7  and  S_8
REMARK    2  A    between atoms: S_8  and  N_11
REMARK                            x       y       z     vdW  Elec       q    Type
REMARK                         _______ _______ _______ _____ _____    ______ ____
ROOT
ATOM      1  S   UNL     1       2.927   5.718  19.147  0.00  0.00    +0.000 S 
ATOM      2  O   UNL     1       4.049   5.583  20.051  0.00  0.00    +0.000 OA
ATOM      3  O   UNL     1       1.816   4.778  19.209  0.00  0.00    +0.000 OA
ENDROOT
BRANCH   1  10
ATOM      4  O   UNL     1      -1.664  11.990  20.921  0.00  0.00    +0.000 OA
ATOM      5  C   UNL     1      -0.774  11.148  20.896  0.00  0.00    +0.000 C 
ATOM      6  C   UNL     1      -0.050  10.666  22.131  0.00  0.00    +0.000 C 
ATOM      7  C   UNL     1       0.156   9.157  22.067  0.00  0.00    +0.000 C 
ATOM      8  C   UNL     1       0.842   8.792  20.777  0.00  0.00    +0.000 A 
ATOM      9  C   UNL     1       1.585   7.611  20.645  0.00  0.00    +0.000 A 
ATOM     10  C   UNL     1       2.243   7.339  19.436  0.00  0.00    +0.000 A 
ATOM     11  C   UNL     1       2.166   8.240  18.367  0.00  0.00    +0.000 A 
ATOM     12  C   UNL     1       1.335   9.358  18.464  0.00  0.00    +0.000 A 
ATOM     13  C   UNL     1       0.658   9.611  19.652  0.00  0.00    +0.000 A 
ATOM     14  N   UNL     1      -0.259  10.667  19.715  0.00  0.00    +0.000 N 
ATOM     15  H   UNL     1      -0.621  11.081  18.867  0.00  0.00    +0.000 HD
ENDBRANCH   1  10
BRANCH   1  16
ATOM     16  N   UNL     1       3.501   5.785  17.570  0.00  0.00    +0.000 NA
ATOM     17  C   UNL     1       4.446   6.838  17.114  0.00  0.00    +0.000 C 
ATOM     18  C   UNL     1       5.520   6.115  16.264  0.00  0.00    +0.000 C 
ATOM     19  C   UNL     1       7.020   6.172  16.701  0.00  0.00    +0.000 C 
ATOM     20  C   UNL     1       7.172   6.248  18.219  0.00  0.00    +0.000 C 
ATOM     21  C   UNL     1       6.555   4.909  18.656  0.00  0.00    +0.000 C 
ATOM     22  C   UNL     1       6.359   4.133  17.326  0.00  0.00    +0.000 C 
ATOM     23  C   UNL     1       7.507   4.721  16.494  0.00  0.00    +0.000 C 
ATOM     24  C   UNL     1       5.202   4.622  16.425  0.00  0.00    +0.000 C 
ATOM     25  C   UNL     1       3.755   4.540  16.850  0.00  0.00    +0.000 C 
ENDBRANCH   1  16
TORSDOF 2
ENDMDL
MODEL 9
REMARK VINA RESULT:      -7.5      1.473      2.357
REMARK  Name = 
REMARK  2 active torsions:
REMARK  status: ('A' for Active; 'I' for Inactive)
REMARK    1  A    between atoms: C_7  and  S_8
REMARK    2  A    between atoms: S_8  and  N_11
REMARK                            x       y       z     vdW  Elec       q    Type
REMARK                         _______ _______ _______ _____ _____    ______ ____
ROOT
ATOM      1  S   UNL     1       5.409   4.648  18.952  0.00  0.00    +0.000 S 
ATOM      2  O   UNL     1       5.574   4.029  17.654  0.00  0.00    +0.000 OA
ATOM      3  O   UNL     1       6.575   5.050  19.726  0.00  0.00    +0.000 OA
ENDROOT
BRANCH   1  10
ATOM      4  O   UNL     1      -0.373  10.078  18.154  0.00  0.00    +0.000 OA
ATOM      5  C   UNL     1       0.615   9.450  18.517  0.00  0.00    +0.000 C 
ATOM      6  C   UNL     1       1.086   9.396  19.952  0.00  0.00    +0.000 C 
ATOM      7  C   UNL     1       1.528   7.982  20.310  0.00  0.00    +0.000 C 
ATOM      8  C   UNL     1       2.552   7.503  19.314  0.00  0.00    +0.000 A 
ATOM      9  C   UNL     1       3.475   6.498  19.632  0.00  0.00    +0.000 A 
ATOM     10  C   UNL     1       4.438   6.119  18.685  0.00  0.00    +0.000 A 
ATOM     11  C   UNL     1       4.484   6.740  17.430  0.00  0.00    +0.000 A 
ATOM     12  C   UNL     1       3.494   7.659  17.078  0.00  0.00    +0.000 A 
ATOM     13  C   UNL     1       2.521   8.012  18.007  0.00  0.00    +0.000 A 
ATOM     14  N   UNL     1       1.466   8.848  17.621  0.00  0.00    +0.000 N 
ATOM     15  H   UNL     1       1.260   8.992  16.641  0.00  0.00    +0.000 HD
ENDBRANCH   1  10
BRANCH   1  16
ATOM     16  N   UNL     1       4.430   3.669  19.902  0.00  0.00    +0.000 NA
ATOM     17  C   UNL     1       3.148   4.152  20.479  0.00  0.00    +0.000 C 
ATOM     18  C   UNL     1       2.120   3.014  20.257  0.00  0.00    +0.000 C 
ATOM     19  C   UNL     1       0.839   3.284  19.402  0.00  0.00    +0.000 C 
ATOM     20  C   UNL     1       1.095   4.308  18.297  0.00  0.00    +0.000 C 
ATOM     21  C   UNL     1       2.147   3.582  17.443  0.00  0.00    +0.000 C 
ATOM     22  C   UNL     1       2.174   2.142  18.022  0.00  0.00    +0.000 C 
ATOM     23  C   UNL     1       0.728   2.020  18.521  0.00  0.00    +0.000 C 
ATOM     24  C   UNL     1       2.863   1.983  19.397  0.00  0.00    +0.000 C 
ATOM     25  C   UNL     1       4.336   2.244  19.599  0.00  0.00    +0.000 C 
ENDBRANCH   1  16
TORSDOF 2
ENDMDL
