MODEL 1
REMARK VINA RESULT:      -7.0      0.000      0.000
REMARK  Name = 
REMARK  3 active torsions:
REMARK  status: ('A' for Active; 'I' for Inactive)
REMARK    1  A    between atoms: C_1  and  C_2
REMARK    2  A    between atoms: C_6  and  C_7
REMARK    3  A    between atoms: N_9  and  C_10
REMARK                            x       y       z     vdW  Elec       q    Type
REMARK                         _______ _______ _______ _____ _____    ______ ____
ROOT
ATOM      1  C   UNL     1       4.641   3.756  18.345  0.00  0.00    +0.000 C 
ATOM      2  O   UNL     1       5.628   3.717  19.073  0.00  0.00    +0.000 OA
ATOM      3  N   UNL     1       4.714   4.160  17.019  0.00  0.00    +0.000 N 
ATOM      4  H   UNL     1       3.833   4.189  16.512  0.00  0.00    +0.000 HD
ENDROOT
BRANCH   1  10
ATOM      5  C   UNL     1       1.640   2.602  22.035  0.00  0.00    +0.000 C 
ATOM      6  C   UNL     1       1.859   2.809  20.565  0.00  0.00    +0.000 A 
ATOM      7  C   UNL     1       0.787   2.738  19.687  0.00  0.00    +0.000 A 
ATOM      8  C   UNL     1       1.062   2.976  18.362  0.00  0.00    +0.000 A 
ATOM      9  N   UNL     1       2.285   3.274  17.901  0.00  0.00    +0.000 NA
ATOM     10  C   UNL     1       3.268   3.316  18.822  0.00  0.00    +0.000 A 
ATOM     11  N   UNL     1       3.119   3.089  20.152  0.00  0.00    +0.000 NA
ENDBRANCH   1  10
BRANCH   3  12
ATOM     12  C   UNL     1       5.957   4.404  16.307  0.00  0.00    +0.000 C 
ATOM     13  C   UNL     1       6.678   5.718  16.628  0.00  0.00    +0.000 C 
ATOM     14  N   UNL     1       7.594   5.853  15.535  0.00  0.00    +0.000 N 
ATOM     15  C   UNL     1       7.140   5.185  14.413  0.00  0.00    +0.000 C 
ATOM     16  O   UNL     1       7.664   5.236  13.313  0.00  0.00    +0.000 OA
ATOM     17  C   UNL     1       5.882   4.426  14.777  0.00  0.00    +0.000 C 
ATOM     18  H   UNL     1       8.331   6.541  15.456  0.00  0.00    +0.000 HD
ENDBRANCH   3  12
TORSDOF 2
ENDMDL
MODEL 2
REMARK VINA RESULT:      -6.9      1.469      1.601
REMARK  Name = 
REMARK  3 active torsions:
REMARK  status: ('A' for Active; 'I' for Inactive)
REMARK    1  A    between atoms: C_1  and  C_2
REMARK    2  A    between atoms: C_6  and  C_7
REMARK    3  A    between atoms: N_9  and  C_10
REMARK                            x       y       z     vdW  Elec       q    Type
REMARK                         _______ _______ _______ _____ _____    ______ ____
ROOT
ATOM      1  C   UNL     1       4.946   4.497  18.548  0.00  0.00    +0.000 C 
ATOM      2  O   UNL     1       5.963   4.030  19.053  0.00  0.00    +0.000 OA
ATOM      3  N   UNL     1       4.878   4.845  17.207  0.00  0.00    +0.000 N 
ATOM      4  H   UNL     1       4.002   5.256  16.896  0.00  0.00    +0.000 HD
ENDROOT
BRANCH   1  10
ATOM      5  C   UNL     1       1.585   2.675  21.605  0.00  0.00    +0.000 C 
ATOM      6  C   UNL     1       2.111   3.829  20.802  0.00  0.00    +0.000 A 
ATOM      7  C   UNL     1       1.510   5.075  20.904  0.00  0.00    +0.000 A 
ATOM      8  C   UNL     1       2.072   6.089  20.167  0.00  0.00    +0.000 A 
ATOM      9  N   UNL     1       3.148   5.928  19.384  0.00  0.00    +0.000 NA
ATOM     10  C   UNL     1       3.664   4.684  19.340  0.00  0.00    +0.000 A 
ATOM     11  N   UNL     1       3.190   3.605  20.014  0.00  0.00    +0.000 NA
ENDBRANCH   1  10
BRANCH   3  12
ATOM     12  C   UNL     1       5.911   4.540  16.230  0.00  0.00    +0.000 C 
ATOM     13  C   UNL     1       7.012   5.593  16.054  0.00  0.00    +0.000 C 
ATOM     14  N   UNL     1       7.612   5.217  14.809  0.00  0.00    +0.000 N 
ATOM     15  C   UNL     1       6.721   4.526  14.008  0.00  0.00    +0.000 C 
ATOM     16  O   UNL     1       6.933   4.197  12.853  0.00  0.00    +0.000 OA
ATOM     17  C   UNL     1       5.447   4.292  14.792  0.00  0.00    +0.000 C 
ATOM     18  H   UNL     1       8.458   5.606  14.413  0.00  0.00    +0.000 HD
ENDBRANCH   3  12
TORSDOF 2
ENDMDL
MODEL 3
REMARK VINA RESULT:      -6.8      1.058      1.630
REMARK  Name = 
REMARK  3 active torsions:
REMARK  status: ('A' for Active; 'I' for Inactive)
REMARK    1  A    between atoms: C_1  and  C_2
REMARK    2  A    between atoms: C_6  and  C_7
REMARK    3  A    between atoms: N_9  and  C_10
REMARK                            x       y       z     vdW  Elec       q    Type
REMARK                         _______ _______ _______ _____ _____    ______ ____
ROOT
ATOM      1  C   UNL     1       4.822   4.327  18.373  0.00  0.00    +0.000 C 
ATOM      2  O   UNL     1       5.869   4.093  18.969  0.00  0.00    +0.000 OA
ATOM      3  N   UNL     1       4.787   4.594  17.012  0.00  0.00    +0.000 N 
ATOM      4  H   UNL     1       3.873   4.809  16.622  0.00  0.00    +0.000 HD
ENDROOT
BRANCH   1  10
ATOM      5  C   UNL     1       0.449   2.211  18.972  0.00  0.00    +0.000 C 
ATOM      6  C   UNL     1       1.436   3.270  19.366  0.00  0.00    +0.000 A 
ATOM      7  C   UNL     1       1.167   4.103  20.443  0.00  0.00    +0.000 A 
ATOM      8  C   UNL     1       2.136   5.023  20.765  0.00  0.00    +0.000 A 
ATOM      9  N   UNL     1       3.297   5.137  20.105  0.00  0.00    +0.000 NA
ATOM     10  C   UNL     1       3.472   4.293  19.070  0.00  0.00    +0.000 A 
ATOM     11  N   UNL     1       2.585   3.354  18.653  0.00  0.00    +0.000 NA
ENDBRANCH   1  10
BRANCH   3  12
ATOM     12  C   UNL     1       5.929   4.455  16.123  0.00  0.00    +0.000 C 
ATOM     13  C   UNL     1       6.964   5.585  16.165  0.00  0.00    +0.000 C 
ATOM     14  N   UNL     1       7.708   5.377  14.958  0.00  0.00    +0.000 N 
ATOM     15  C   UNL     1       6.950   4.721  14.006  0.00  0.00    +0.000 C 
ATOM     16  O   UNL     1       7.296   4.526  12.853  0.00  0.00    +0.000 OA
ATOM     17  C   UNL     1       5.625   4.329  14.627  0.00  0.00    +0.000 C 
ATOM     18  H   UNL     1       8.559   5.856  14.691  0.00  0.00    +0.000 HD
ENDBRANCH   3  12
TORSDOF 2
ENDMDL
MODEL 4
REMARK VINA RESULT:      -6.8      2.360      6.745
REMARK  Name = 
REMARK  3 active torsions:
REMARK  status: ('A' for Active; 'I' for Inactive)
REMARK    1  A    between atoms: C_1  and  C_2
REMARK    2  A    between atoms: C_6  and  C_7
REMARK    3  A    between atoms: N_9  and  C_10
REMARK                            x       y       z     vdW  Elec       q    Type
REMARK                         _______ _______ _______ _____ _____    ______ ____
ROOT
ATOM      1  C   UNL     1       6.680   4.890  16.108  0.00  0.00    +0.000 C 
ATOM      2  O   UNL     1       7.424   5.565  16.813  0.00  0.00    +0.000 OA
ATOM      3  N   UNL     1       5.522   4.306  16.601  0.00  0.00    +0.000 N 
ATOM      4  H   UNL     1       4.993   3.738  15.943  0.00  0.00    +0.000 HD
ENDROOT
BRANCH   1  10
ATOM      5  C   UNL     1       5.472   2.728  11.886  0.00  0.00    +0.000 C 
ATOM      6  C   UNL     1       6.343   3.687  12.643  0.00  0.00    +0.000 A 
ATOM      7  C   UNL     1       7.269   4.467  11.965  0.00  0.00    +0.000 A 
ATOM      8  C   UNL     1       8.002   5.347  12.723  0.00  0.00    +0.000 A 
ATOM      9  N   UNL     1       7.858   5.482  14.049  0.00  0.00    +0.000 NA
ATOM     10  C   UNL     1       6.941   4.682  14.627  0.00  0.00    +0.000 A 
ATOM     11  N   UNL     1       6.167   3.770  13.984  0.00  0.00    +0.000 NA
ENDBRANCH   1  10
BRANCH   3  12
ATOM     12  C   UNL     1       4.974   4.566  17.922  0.00  0.00    +0.000 C 
ATOM     13  C   UNL     1       4.152   3.435  18.551  0.00  0.00    +0.000 C 
ATOM     14  N   UNL     1       3.448   4.104  19.604  0.00  0.00    +0.000 N 
ATOM     15  C   UNL     1       3.291   5.450  19.330  0.00  0.00    +0.000 C 
ATOM     16  O   UNL     1       2.627   6.224  19.997  0.00  0.00    +0.000 OA
ATOM     17  C   UNL     1       4.044   5.775  18.057  0.00  0.00    +0.000 C 
ATOM     18  H   UNL     1       2.891   3.662  20.324  0.00  0.00    +0.000 HD
ENDBRANCH   3  12
TORSDOF 2
ENDMDL
MODEL 5
REMARK VINA RESULT:      -6.7      1.546      1.722
REMARK  Name = 
REMARK  3 active torsions:
REMARK  status: ('A' for Active; 'I' for Inactive)
REMARK    1  A    between atoms: C_1  and  C_2
REMARK    2  A    between atoms: C_6  and  C_7
REMARK    3  A    between atoms: N_9  and  C_10
REMARK                            x       y       z     vdW  Elec       q    Type
REMARK                         _______ _______ _______ _____ _____    ______ ____
ROOT
ATOM      1  C   UNL     1       4.900   4.283  18.596  0.00  0.00    +0.000 C 
ATOM      2  O   UNL     1       5.972   3.990  19.120  0.00  0.00    +0.000 OA
ATOM      3  N   UNL     1       4.793   4.578  17.245  0.00  0.00    +0.000 N 
ATOM      4  H   UNL     1       3.867   4.841  16.918  0.00  0.00    +0.000 HD
ENDROOT
BRANCH   1  10
ATOM      5  C   UNL     1       1.386   6.816  20.874  0.00  0.00    +0.000 C 
ATOM      6  C   UNL     1       1.936   5.499  20.413  0.00  0.00    +0.000 A 
ATOM      7  C   UNL     1       1.191   4.340  20.577  0.00  0.00    +0.000 A 
ATOM      8  C   UNL     1       1.746   3.179  20.096  0.00  0.00    +0.000 A 
ATOM      9  N   UNL     1       2.939   3.126  19.488  0.00  0.00    +0.000 NA
ATOM     10  C   UNL     1       3.597   4.296  19.377  0.00  0.00    +0.000 A 
ATOM     11  N   UNL     1       3.155   5.500  19.821  0.00  0.00    +0.000 NA
ENDBRANCH   1  10
BRANCH   3  12
ATOM     12  C   UNL     1       5.869   4.404  16.283  0.00  0.00    +0.000 C 
ATOM     13  C   UNL     1       6.936   5.504  16.252  0.00  0.00    +0.000 C 
ATOM     14  N   UNL     1       7.592   5.273  14.999  0.00  0.00    +0.000 N 
ATOM     15  C   UNL     1       6.754   4.637  14.102  0.00  0.00    +0.000 C 
ATOM     16  O   UNL     1       7.017   4.430  12.929  0.00  0.00    +0.000 OA
ATOM     17  C   UNL     1       5.463   4.285  14.811  0.00  0.00    +0.000 C 
ATOM     18  H   UNL     1       8.437   5.726  14.675  0.00  0.00    +0.000 HD
ENDBRANCH   3  12
TORSDOF 2
ENDMDL
MODEL 6
REMARK VINA RESULT:      -6.7      2.191      2.345
REMARK  Name = 
REMARK  3 active torsions:
REMARK  status: ('A' for Active; 'I' for Inactive)
REMARK    1  A    between atoms: C_1  and  C_2
REMARK    2  A    between atoms: C_6  and  C_7
REMARK    3  A    between atoms: N_9  and  C_10
REMARK                            x       y       z     vdW  Elec       q    Type
REMARK                         _______ _______ _______ _____ _____    ______ ____
ROOT
ATOM      1  C   UNL     1       4.451   3.839  17.898  0.00  0.00    +0.000 C 
ATOM      2  O   UNL     1       4.711   3.702  16.706  0.00  0.00    +0.000 OA
ATOM      3  N   UNL     1       5.301   4.504  18.770  0.00  0.00    +0.000 N 
ATOM      4  H   UNL     1       5.010   4.532  19.744  0.00  0.00    +0.000 HD
ENDROOT
BRANCH   1  10
ATOM      5  C   UNL     1       1.820   2.714  21.869  0.00  0.00    +0.000 C 
ATOM      6  C   UNL     1       1.916   2.843  20.378  0.00  0.00    +0.000 A 
ATOM      7  C   UNL     1       0.791   2.641  19.590  0.00  0.00    +0.000 A 
ATOM      8  C   UNL     1       0.950   2.814  18.237  0.00  0.00    +0.000 A 
ATOM      9  N   UNL     1       2.112   3.166  17.666  0.00  0.00    +0.000 NA
ATOM     10  C   UNL     1       3.153   3.335  18.505  0.00  0.00    +0.000 A 
ATOM     11  N   UNL     1       3.118   3.183  19.853  0.00  0.00    +0.000 NA
ENDBRANCH   1  10
BRANCH   3  12
ATOM     12  C   UNL     1       6.477   5.251  18.353  0.00  0.00    +0.000 C 
ATOM     13  C   UNL     1       7.419   5.713  19.471  0.00  0.00    +0.000 C 
ATOM     14  N   UNL     1       8.213   6.713  18.822  0.00  0.00    +0.000 N 
ATOM     15  C   UNL     1       7.537   7.279  17.756  0.00  0.00    +0.000 C 
ATOM     16  O   UNL     1       7.932   8.234  17.109  0.00  0.00    +0.000 OA
ATOM     17  C   UNL     1       6.229   6.541  17.565  0.00  0.00    +0.000 C 
ATOM     18  H   UNL     1       9.032   7.167  19.206  0.00  0.00    +0.000 HD
ENDBRANCH   3  12
TORSDOF 2
ENDMDL
MODEL 7
REMARK VINA RESULT:      -6.6      2.243      6.663
REMARK  Name = 
REMARK  3 active torsions:
REMARK  status: ('A' for Active; 'I' for Inactive)
REMARK    1  A    between atoms: C_1  and  C_2
REMARK    2  A    between atoms: C_6  and  C_7
REMARK    3  A    between atoms: N_9  and  C_10
REMARK                            x       y       z     vdW  Elec       q    Type
REMARK                         _______ _______ _______ _____ _____    ______ ____
ROOT
ATOM      1  C   UNL     1       3.599   3.843  17.228  0.00  0.00    +0.000 C 
ATOM      2  O   UNL     1       2.689   3.382  16.545  0.00  0.00    +0.000 OA
ATOM      3  N   UNL     1       3.552   3.851  18.615  0.00  0.00    +0.000 N 
ATOM      4  H   UNL     1       4.341   4.287  19.086  0.00  0.00    +0.000 HD
ENDROOT
BRANCH   1  10
ATOM      5  C   UNL     1       7.393   6.926  17.464  0.00  0.00    +0.000 C 
ATOM      6  C   UNL     1       6.667   5.825  16.749  0.00  0.00    +0.000 A 
ATOM      7  C   UNL     1       7.230   5.235  15.627  0.00  0.00    +0.000 A 
ATOM      8  C   UNL     1       6.522   4.209  15.051  0.00  0.00    +0.000 A 
ATOM      9  N   UNL     1       5.348   3.764  15.521  0.00  0.00    +0.000 NA
ATOM     10  C   UNL     1       4.871   4.397  16.611  0.00  0.00    +0.000 A 
ATOM     11  N   UNL     1       5.475   5.427  17.257  0.00  0.00    +0.000 NA
ENDBRANCH   1  10
BRANCH   3  12
ATOM     12  C   UNL     1       2.536   3.172  19.402  0.00  0.00    +0.000 C 
ATOM     13  C   UNL     1       1.162   3.847  19.465  0.00  0.00    +0.000 C 
ATOM     14  N   UNL     1       0.541   3.197  20.580  0.00  0.00    +0.000 N 
ATOM     15  C   UNL     1       1.482   2.712  21.469  0.00  0.00    +0.000 C 
ATOM     16  O   UNL     1       1.227   2.225  22.557  0.00  0.00    +0.000 OA
ATOM     17  C   UNL     1       2.860   2.926  20.879  0.00  0.00    +0.000 C 
ATOM     18  H   UNL     1      -0.427   3.290  20.862  0.00  0.00    +0.000 HD
ENDBRANCH   3  12
TORSDOF 2
ENDMDL
MODEL 8
REMARK VINA RESULT:      -6.6      2.255      6.882
REMARK  Name = 
REMARK  3 active torsions:
REMARK  status: ('A' for Active; 'I' for Inactive)
REMARK    1  A    between atoms: C_1  and  C_2
REMARK    2  A    between atoms: C_6  and  C_7
REMARK    3  A    between atoms: N_9  and  C_10
REMARK                            x       y       z     vdW  Elec       q    Type
REMARK                         _______ _______ _______ _____ _____    ______ ____
ROOT
ATOM      1  C   UNL     1       3.676   3.609  17.266  0.00  0.00    +0.000 C 
ATOM      2  O   UNL     1       2.693   3.320  16.590  0.00  0.00    +0.000 OA
ATOM      3  N   UNL     1       3.653   3.585  18.653  0.00  0.00    +0.000 N 
ATOM      4  H   UNL     1       4.509   3.874  19.120  0.00  0.00    +0.000 HD
ENDROOT
BRANCH   1  10
ATOM      5  C   UNL     1       6.448   4.091  13.261  0.00  0.00    +0.000 C 
ATOM      6  C   UNL     1       6.293   4.222  14.748  0.00  0.00    +0.000 A 
ATOM      7  C   UNL     1       7.306   4.795  15.504  0.00  0.00    +0.000 A 
ATOM      8  C   UNL     1       7.074   4.914  16.852  0.00  0.00    +0.000 A 
ATOM      9  N   UNL     1       5.939   4.517  17.446  0.00  0.00    +0.000 NA
ATOM     10  C   UNL     1       5.012   3.967  16.639  0.00  0.00    +0.000 A 
ATOM     11  N   UNL     1       5.133   3.788  15.298  0.00  0.00    +0.000 NA
ENDBRANCH   1  10
BRANCH   3  12
ATOM     12  C   UNL     1       2.552   3.057  19.443  0.00  0.00    +0.000 C 
ATOM     13  C   UNL     1       1.288   3.922  19.510  0.00  0.00    +0.000 C 
ATOM     14  N   UNL     1       0.584   3.366  20.627  0.00  0.00    +0.000 N 
ATOM     15  C   UNL     1       1.449   2.751  21.513  0.00  0.00    +0.000 C 
ATOM     16  O   UNL     1       1.129   2.304  22.601  0.00  0.00    +0.000 OA
ATOM     17  C   UNL     1       2.841   2.766  20.919  0.00  0.00    +0.000 C 
ATOM     18  H   UNL     1      -0.360   3.595  20.911  0.00  0.00    +0.000 HD
ENDBRANCH   3  12
TORSDOF 2
ENDMDL
MODEL 9
REMARK VINA RESULT:      -6.6      2.299      6.800
REMARK  Name = 
REMARK  3 active torsions:
REMARK  status: ('A' for Active; 'I' for Inactive)
REMARK    1  A    between atoms: C_1  and  C_2
REMARK    2  A    between atoms: C_6  and  C_7
REMARK    3  A    between atoms: N_9  and  C_10
REMARK                            x       y       z     vdW  Elec       q    Type
REMARK                         _______ _______ _______ _____ _____    ______ ____
ROOT
ATOM      1  C   UNL     1       5.726   5.338  15.770  0.00  0.00    +0.000 C 
ATOM      2  O   UNL     1       5.845   6.495  16.161  0.00  0.00    +0.000 OA
ATOM      3  N   UNL     1       4.987   4.393  16.466  0.00  0.00    +0.000 N 
ATOM      4  H   UNL     1       4.980   3.454  16.075  0.00  0.00    +0.000 HD
ENDROOT
BRANCH   1  10
ATOM      5  C   UNL     1       5.415   2.581  11.738  0.00  0.00    +0.000 C 
ATOM      6  C   UNL     1       6.165   3.588  12.558  0.00  0.00    +0.000 A 
ATOM      7  C   UNL     1       7.320   4.170  12.057  0.00  0.00    +0.000 A 
ATOM      8  C   UNL     1       7.929   5.111  12.851  0.00  0.00    +0.000 A 
ATOM      9  N   UNL     1       7.461   5.481  14.052  0.00  0.00    +0.000 NA
ATOM     10  C   UNL     1       6.338   4.861  14.464  0.00  0.00    +0.000 A 
ATOM     11  N   UNL     1       5.657   3.912  13.772  0.00  0.00    +0.000 NA
ENDBRANCH   1  10
BRANCH   3  12
ATOM     12  C   UNL     1       4.143   4.697  17.610  0.00  0.00    +0.000 C 
ATOM     13  C   UNL     1       4.652   4.220  18.975  0.00  0.00    +0.000 C 
ATOM     14  N   UNL     1       3.479   4.299  19.795  0.00  0.00    +0.000 N 
ATOM     15  C   UNL     1       2.328   4.187  19.038  0.00  0.00    +0.000 C 
ATOM     16  O   UNL     1       1.200   4.100  19.494  0.00  0.00    +0.000 OA
ATOM     17  C   UNL     1       2.712   4.152  17.574  0.00  0.00    +0.000 C 
ATOM     18  H   UNL     1       3.444   4.178  20.799  0.00  0.00    +0.000 HD
ENDBRANCH   3  12
TORSDOF 2
ENDMDL
