MODEL 1
REMARK VINA RESULT:      -5.5      0.000      0.000
REMARK  Name = 
REMARK  3 active torsions:
REMARK  status: ('A' for Active; 'I' for Inactive)
REMARK    1  A    between atoms: C_1  and  C_2
REMARK    2  A    between atoms: C_2  and  C_5
REMARK    3  A    between atoms: N_3  and  O_4
REMARK                            x       y       z     vdW  Elec       q    Type
REMARK                         _______ _______ _______ _____ _____    ______ ____
ROOT
ATOM      1  C   UNL     1       6.818   5.646  17.242  0.00  0.00    +0.000 A 
ATOM      2  C   UNL     1       5.858   6.503  16.687  0.00  0.00    +0.000 A 
ATOM      3  C   UNL     1       5.220   6.170  15.486  0.00  0.00    +0.000 A 
ATOM      4  C   UNL     1       5.540   4.985  14.830  0.00  0.00    +0.000 A 
ATOM      5  C   UNL     1       6.499   4.129  15.367  0.00  0.00    +0.000 A 
ATOM      6  C   UNL     1       7.136   4.458  16.567  0.00  0.00    +0.000 A 
ENDROOT
BRANCH   1   8
ATOM      7  C   UNL     1       8.235   7.297  18.642  0.00  0.00    +0.000 C 
ATOM      8  C   UNL     1       7.512   5.966  18.538  0.00  0.00    +0.000 C 
ATOM      9  N   UNL     1       7.460   5.092  19.504  0.00  0.00    +0.000 NA
BRANCH   9  10
ATOM     10  O   UNL     1       8.144   5.517  20.646  0.00  0.00    +0.000 OA
ATOM     11  H   UNL     1       8.139   4.718  21.203  0.00  0.00    +0.000 HD
ENDBRANCH   9  10
ENDBRANCH   1   8
TORSDOF 2
ENDMDL
MODEL 2
REMARK VINA RESULT:      -5.4      5.027      5.487
REMARK  Name = 
REMARK  3 active torsions:
REMARK  status: ('A' for Active; 'I' for Inactive)
REMARK    1  A    between atoms: C_1  and  C_2
REMARK    2  A    between atoms: C_2  and  C_5
REMARK    3  A    between atoms: N_3  and  O_4
REMARK                            x       y       z     vdW  Elec       q    Type
REMARK                         _______ _______ _______ _____ _____    ______ ____
ROOT
ATOM      1  C   UNL     1       3.348   3.553  19.482  0.00  0.00    +0.000 A 
ATOM      2  C   UNL     1       2.101   4.119  19.184  0.00  0.00    +0.000 A 
ATOM      3  C   UNL     1       1.005   3.902  20.026  0.00  0.00    +0.000 A 
ATOM      4  C   UNL     1       1.144   3.115  21.167  0.00  0.00    +0.000 A 
ATOM      5  C   UNL     1       2.377   2.540  21.469  0.00  0.00    +0.000 A 
ATOM      6  C   UNL     1       3.474   2.758  20.630  0.00  0.00    +0.000 A 
ENDROOT
BRANCH   1   8
ATOM      7  C   UNL     1       4.337   3.781  17.102  0.00  0.00    +0.000 C 
ATOM      8  C   UNL     1       4.550   3.779  18.606  0.00  0.00    +0.000 C 
ATOM      9  N   UNL     1       5.710   3.959  19.173  0.00  0.00    +0.000 NA
BRANCH   9  10
ATOM     10  O   UNL     1       6.735   4.156  18.245  0.00  0.00    +0.000 OA
ATOM     11  H   UNL     1       6.613   5.089  17.992  0.00  0.00    +0.000 HD
ENDBRANCH   9  10
ENDBRANCH   1   8
TORSDOF 2
ENDMDL
MODEL 3
REMARK VINA RESULT:      -5.3      3.192      4.275
REMARK  Name = 
REMARK  3 active torsions:
REMARK  status: ('A' for Active; 'I' for Inactive)
REMARK    1  A    between atoms: C_1  and  C_2
REMARK    2  A    between atoms: C_2  and  C_5
REMARK    3  A    between atoms: N_3  and  O_4
REMARK                            x       y       z     vdW  Elec       q    Type
REMARK                         _______ _______ _______ _____ _____    ______ ____
ROOT
ATOM      1  C   UNL     1       5.196   5.011  16.118  0.00  0.00    +0.000 A 
ATOM      2  C   UNL     1       4.586   3.864  16.645  0.00  0.00    +0.000 A 
ATOM      3  C   UNL     1       3.603   3.976  17.634  0.00  0.00    +0.000 A 
ATOM      4  C   UNL     1       3.225   5.230  18.107  0.00  0.00    +0.000 A 
ATOM      5  C   UNL     1       3.829   6.377  17.597  0.00  0.00    +0.000 A 
ATOM      6  C   UNL     1       4.811   6.268  16.607  0.00  0.00    +0.000 A 
ENDROOT
BRANCH   1   8
ATOM      7  C   UNL     1       5.997   3.975  13.887  0.00  0.00    +0.000 C 
ATOM      8  C   UNL     1       6.246   4.927  15.043  0.00  0.00    +0.000 C 
ATOM      9  N   UNL     1       7.311   5.670  15.154  0.00  0.00    +0.000 NA
BRANCH   9  10
ATOM     10  O   UNL     1       8.200   5.493  14.091  0.00  0.00    +0.000 OA
ATOM     11  H   UNL     1       9.059   5.428  14.544  0.00  0.00    +0.000 HD
ENDBRANCH   9  10
ENDBRANCH   1   8
TORSDOF 2
ENDMDL
MODEL 4
REMARK VINA RESULT:      -5.3      2.699      3.248
REMARK  Name = 
REMARK  3 active torsions:
REMARK  status: ('A' for Active; 'I' for Inactive)
REMARK    1  A    between atoms: C_1  and  C_2
REMARK    2  A    between atoms: C_2  and  C_5
REMARK    3  A    between atoms: N_3  and  O_4
REMARK                            x       y       z     vdW  Elec       q    Type
REMARK                         _______ _______ _______ _____ _____    ______ ____
ROOT
ATOM      1  C   UNL     1       4.978   4.762  18.325  0.00  0.00    +0.000 A 
ATOM      2  C   UNL     1       4.508   3.796  17.425  0.00  0.00    +0.000 A 
ATOM      3  C   UNL     1       3.136   3.663  17.181  0.00  0.00    +0.000 A 
ATOM      4  C   UNL     1       2.226   4.489  17.835  0.00  0.00    +0.000 A 
ATOM      5  C   UNL     1       2.680   5.448  18.737  0.00  0.00    +0.000 A 
ATOM      6  C   UNL     1       4.050   5.584  18.982  0.00  0.00    +0.000 A 
ENDROOT
BRANCH   1   8
ATOM      7  C   UNL     1       7.417   4.642  17.471  0.00  0.00    +0.000 C 
ATOM      8  C   UNL     1       6.446   4.942  18.600  0.00  0.00    +0.000 C 
ATOM      9  N   UNL     1       6.814   5.341  19.785  0.00  0.00    +0.000 NA
BRANCH   9  10
ATOM     10  O   UNL     1       8.201   5.465  19.901  0.00  0.00    +0.000 OA
ATOM     11  H   UNL     1       8.299   6.339  20.318  0.00  0.00    +0.000 HD
ENDBRANCH   9  10
ENDBRANCH   1   8
TORSDOF 2
ENDMDL
MODEL 5
REMARK VINA RESULT:      -5.3      2.698      2.965
REMARK  Name = 
REMARK  3 active torsions:
REMARK  status: ('A' for Active; 'I' for Inactive)
REMARK    1  A    between atoms: C_1  and  C_2
REMARK    2  A    between atoms: C_2  and  C_5
REMARK    3  A    between atoms: N_3  and  O_4
REMARK                            x       y       z     vdW  Elec       q    Type
REMARK                         _______ _______ _______ _____ _____    ______ ____
ROOT
ATOM      1  C   UNL     1       4.985   4.812  18.361  0.00  0.00    +0.000 A 
ATOM      2  C   UNL     1       4.038   5.601  19.028  0.00  0.00    +0.000 A 
ATOM      3  C   UNL     1       2.671   5.430  18.778  0.00  0.00    +0.000 A 
ATOM      4  C   UNL     1       2.242   4.476  17.860  0.00  0.00    +0.000 A 
ATOM      5  C   UNL     1       3.174   3.691  17.185  0.00  0.00    +0.000 A 
ATOM      6  C   UNL     1       4.540   3.859  17.434  0.00  0.00    +0.000 A 
ENDROOT
BRANCH   1   8
ATOM      7  C   UNL     1       7.410   4.633  17.477  0.00  0.00    +0.000 C 
ATOM      8  C   UNL     1       6.460   4.960  18.616  0.00  0.00    +0.000 C 
ATOM      9  N   UNL     1       6.852   5.358  19.794  0.00  0.00    +0.000 NA
BRANCH   9  10
ATOM     10  O   UNL     1       8.243   5.451  19.892  0.00  0.00    +0.000 OA
ATOM     11  H   UNL     1       8.364   6.302  20.350  0.00  0.00    +0.000 HD
ENDBRANCH   9  10
ENDBRANCH   1   8
TORSDOF 2
ENDMDL
MODEL 6
REMARK VINA RESULT:      -5.3      4.997      5.619
REMARK  Name = 
REMARK  3 active torsions:
REMARK  status: ('A' for Active; 'I' for Inactive)
REMARK    1  A    between atoms: C_1  and  C_2
REMARK    2  A    between atoms: C_2  and  C_5
REMARK    3  A    between atoms: N_3  and  O_4
REMARK                            x       y       z     vdW  Elec       q    Type
REMARK                         _______ _______ _______ _____ _____    ______ ____
ROOT
ATOM      1  C   UNL     1       3.409   3.544  19.509  0.00  0.00    +0.000 A 
ATOM      2  C   UNL     1       3.476   2.731  20.649  0.00  0.00    +0.000 A 
ATOM      3  C   UNL     1       2.345   2.539  21.450  0.00  0.00    +0.000 A 
ATOM      4  C   UNL     1       1.143   3.161  21.123  0.00  0.00    +0.000 A 
ATOM      5  C   UNL     1       1.065   3.978  19.998  0.00  0.00    +0.000 A 
ATOM      6  C   UNL     1       2.194   4.169  19.194  0.00  0.00    +0.000 A 
ENDROOT
BRANCH   1   8
ATOM      7  C   UNL     1       4.383   3.687  17.117  0.00  0.00    +0.000 C 
ATOM      8  C   UNL     1       4.602   3.759  18.618  0.00  0.00    +0.000 C 
ATOM      9  N   UNL     1       5.759   3.994  19.171  0.00  0.00    +0.000 NA
BRANCH   9  10
ATOM     10  O   UNL     1       6.775   4.174  18.230  0.00  0.00    +0.000 OA
ATOM     11  H   UNL     1       6.286   4.162  17.388  0.00  0.00    +0.000 HD
ENDBRANCH   9  10
ENDBRANCH   1   8
TORSDOF 2
ENDMDL
MODEL 7
REMARK VINA RESULT:      -5.3      3.209      4.068
REMARK  Name = 
REMARK  3 active torsions:
REMARK  status: ('A' for Active; 'I' for Inactive)
REMARK    1  A    between atoms: C_1  and  C_2
REMARK    2  A    between atoms: C_2  and  C_5
REMARK    3  A    between atoms: N_3  and  O_4
REMARK                            x       y       z     vdW  Elec       q    Type
REMARK                         _______ _______ _______ _____ _____    ______ ____
ROOT
ATOM      1  C   UNL     1       5.164   5.078  16.115  0.00  0.00    +0.000 A 
ATOM      2  C   UNL     1       4.770   6.326  16.617  0.00  0.00    +0.000 A 
ATOM      3  C   UNL     1       3.806   6.411  17.627  0.00  0.00    +0.000 A 
ATOM      4  C   UNL     1       3.225   5.254  18.140  0.00  0.00    +0.000 A 
ATOM      5  C   UNL     1       3.603   4.008  17.644  0.00  0.00    +0.000 A 
ATOM      6  C   UNL     1       4.567   3.920  16.635  0.00  0.00    +0.000 A 
ENDROOT
BRANCH   1   8
ATOM      7  C   UNL     1       5.935   3.981  13.903  0.00  0.00    +0.000 C 
ATOM      8  C   UNL     1       6.208   4.950  15.039  0.00  0.00    +0.000 C 
ATOM      9  N   UNL     1       7.290   5.671  15.133  0.00  0.00    +0.000 NA
BRANCH   9  10
ATOM     10  O   UNL     1       8.171   5.454  14.070  0.00  0.00    +0.000 OA
ATOM     11  H   UNL     1       8.820   6.171  14.186  0.00  0.00    +0.000 HD
ENDBRANCH   9  10
ENDBRANCH   1   8
TORSDOF 2
ENDMDL
MODEL 8
REMARK VINA RESULT:      -5.3      4.749      5.271
REMARK  Name = 
REMARK  3 active torsions:
REMARK  status: ('A' for Active; 'I' for Inactive)
REMARK    1  A    between atoms: C_1  and  C_2
REMARK    2  A    between atoms: C_2  and  C_5
REMARK    3  A    between atoms: N_3  and  O_4
REMARK                            x       y       z     vdW  Elec       q    Type
REMARK                         _______ _______ _______ _____ _____    ______ ____
ROOT
ATOM      1  C   UNL     1       3.251   3.768  18.929  0.00  0.00    +0.000 A 
ATOM      2  C   UNL     1       2.283   2.905  18.399  0.00  0.00    +0.000 A 
ATOM      3  C   UNL     1       1.034   2.777  19.016  0.00  0.00    +0.000 A 
ATOM      4  C   UNL     1       0.744   3.505  20.167  0.00  0.00    +0.000 A 
ATOM      5  C   UNL     1       1.701   4.361  20.708  0.00  0.00    +0.000 A 
ATOM      6  C   UNL     1       2.949   4.491  20.092  0.00  0.00    +0.000 A 
ENDROOT
BRANCH   1   8
ATOM      7  C   UNL     1       4.650   4.014  16.767  0.00  0.00    +0.000 C 
ATOM      8  C   UNL     1       4.599   3.940  18.283  0.00  0.00    +0.000 C 
ATOM      9  N   UNL     1       5.652   4.016  19.048  0.00  0.00    +0.000 NA
BRANCH   9  10
ATOM     10  O   UNL     1       6.833   4.174  18.318  0.00  0.00    +0.000 OA
ATOM     11  H   UNL     1       6.934   5.143  18.290  0.00  0.00    +0.000 HD
ENDBRANCH   9  10
ENDBRANCH   1   8
TORSDOF 2
ENDMDL
MODEL 9
REMARK VINA RESULT:      -5.3      4.836      5.239
REMARK  Name = 
REMARK  3 active torsions:
REMARK  status: ('A' for Active; 'I' for Inactive)
REMARK    1  A    between atoms: C_1  and  C_2
REMARK    2  A    between atoms: C_2  and  C_5
REMARK    3  A    between atoms: N_3  and  O_4
REMARK                            x       y       z     vdW  Elec       q    Type
REMARK                         _______ _______ _______ _____ _____    ______ ____
ROOT
ATOM      1  C   UNL     1       3.188   3.750  18.982  0.00  0.00    +0.000 A 
ATOM      2  C   UNL     1       2.832   4.462  20.136  0.00  0.00    +0.000 A 
ATOM      3  C   UNL     1       1.585   4.258  20.737  0.00  0.00    +0.000 A 
ATOM      4  C   UNL     1       0.685   3.348  20.190  0.00  0.00    +0.000 A 
ATOM      5  C   UNL     1       1.024   2.640  19.039  0.00  0.00    +0.000 A 
ATOM      6  C   UNL     1       2.270   2.841  18.437  0.00  0.00    +0.000 A 
ENDROOT
BRANCH   1   8
ATOM      7  C   UNL     1       4.550   4.078  16.807  0.00  0.00    +0.000 C 
ATOM      8  C   UNL     1       4.526   3.935  18.319  0.00  0.00    +0.000 C 
ATOM      9  N   UNL     1       5.594   3.962  19.066  0.00  0.00    +0.000 NA
BRANCH   9  10
ATOM     10  O   UNL     1       6.763   4.139  18.322  0.00  0.00    +0.000 OA
ATOM     11  H   UNL     1       7.455   4.098  19.007  0.00  0.00    +0.000 HD
ENDBRANCH   9  10
ENDBRANCH   1   8
TORSDOF 2
ENDMDL
