MODEL 1
REMARK VINA RESULT:      -8.3      0.000      0.000
REMARK  Name = 
REMARK  13 active torsions:
REMARK  status: ('A' for Active; 'I' for Inactive)
REMARK    1  A    between atoms: C_2  and  C_3
REMARK    2  A    between atoms: C_3  and  C_4
REMARK    3  A    between atoms: C_7  and  O_8
REMARK    4  A    between atoms: O_8  and  C_9
REMARK    5  A    between atoms: C_11  and  C_12
REMARK    6  A    between atoms: C_15  and  C_16
REMARK    7  A    between atoms: N_17  and  O_18
REMARK    8  A    between atoms: N_19  and  C_20
REMARK    9  A    between atoms: C_20  and  C_21
REMARK   10  A    between atoms: C_24  and  O_25
REMARK   11  A    between atoms: O_25  and  C_26
REMARK   12  A    between atoms: C_29  and  O_30
REMARK   13  A    between atoms: O_30  and  C_31
REMARK                            x       y       z     vdW  Elec       q    Type
REMARK                         _______ _______ _______ _____ _____    ______ ____
ROOT
ATOM      1  C   UNL     1       3.634   5.384  19.466  0.00  0.00    +0.000 A 
ATOM      2  N   UNL     1       3.722   4.107  19.944  0.00  0.00    +0.000 NA
ATOM      3  C   UNL     1       2.708   3.602  20.680  0.00  0.00    +0.000 A 
ATOM      4  C   UNL     1       2.940   2.267  21.322  0.00  0.00    +0.000 C 
ATOM      5  C   UNL     1       1.533   4.304  20.886  0.00  0.00    +0.000 A 
ATOM      6  C   UNL     1       1.401   5.562  20.300  0.00  0.00    +0.000 A 
ATOM      7  C   UNL     1       2.460   6.136  19.568  0.00  0.00    +0.000 A 
ENDROOT
BRANCH   7   8
ATOM      8  C   UNL     1       2.244   7.504  18.974  0.00  0.00    +0.000 C 
ATOM      9  N   UNL     1       2.720   7.669  17.771  0.00  0.00    +0.000 NA
ATOM     10  N   UNL     1       1.666   8.476  19.771  0.00  0.00    +0.000 N 
ATOM     11  H   UNL     1       1.625   8.309  20.767  0.00  0.00    +0.000 HD
BRANCH   9  12
ATOM     12  O   UNL     1       2.674   8.998  17.340  0.00  0.00    +0.000 OA
ATOM     13  H   UNL     1       1.767   9.079  16.995  0.00  0.00    +0.000 HD
ENDBRANCH   9  12
BRANCH  10  14
ATOM     14  C   UNL     1       0.742   9.495  19.307  0.00  0.00    +0.000 C 
BRANCH  14  15
ATOM     15  C   UNL     1       0.174  10.259  20.482  0.00  0.00    +0.000 A 
ATOM     16  C   UNL     1      -0.102  11.630  20.380  0.00  0.00    +0.000 A 
ATOM     17  C   UNL     1      -0.619  12.334  21.471  0.00  0.00    +0.000 A 
ATOM     18  C   UNL     1      -0.883  11.679  22.674  0.00  0.00    +0.000 A 
ATOM     19  C   UNL     1      -0.606  10.317  22.788  0.00  0.00    +0.000 A 
ATOM     20  C   UNL     1      -0.086   9.611  21.698  0.00  0.00    +0.000 A 
BRANCH  18  21
ATOM     21  O   UNL     1      -1.365  12.471  23.679  0.00  0.00    +0.000 OA
ATOM     22  C   UNL     1      -1.452  13.859  23.375  0.00  0.00    +0.000 C 
ENDBRANCH  18  21
ENDBRANCH  14  15
ENDBRANCH  10  14
ENDBRANCH   7   8
BRANCH   1  23
ATOM     23  O   UNL     1       4.820   5.958  19.008  0.00  0.00    +0.000 OA
BRANCH  23  27
ATOM     24  C   UNL     1       6.216   4.531  15.293  0.00  0.00    +0.000 A 
ATOM     25  C   UNL     1       4.964   4.154  15.770  0.00  0.00    +0.000 A 
ATOM     26  C   UNL     1       4.546   4.558  17.035  0.00  0.00    +0.000 A 
ATOM     27  C   UNL     1       5.322   5.428  17.817  0.00  0.00    +0.000 A 
ATOM     28  C   UNL     1       6.607   5.791  17.368  0.00  0.00    +0.000 A 
ATOM     29  C   UNL     1       7.041   5.324  16.111  0.00  0.00    +0.000 A 
BRANCH  28  30
ATOM     30  O   UNL     1       7.374   6.573  18.190  0.00  0.00    +0.000 OA
ATOM     31  C   UNL     1       7.737   7.858  17.677  0.00  0.00    +0.000 C 
ENDBRANCH  28  30
BRANCH  24  32
ATOM     32  C   UNL     1       6.655   4.093  13.915  0.00  0.00    +0.000 C 
BRANCH  32  34
ATOM     33  C   UNL     1       5.557   2.926  11.973  0.00  0.00    +0.000 C 
ATOM     34  C   UNL     1       5.508   3.805  12.991  0.00  0.00    +0.000 C 
ENDBRANCH  32  34
ENDBRANCH  24  32
ENDBRANCH  23  27
ENDBRANCH   1  23
TORSDOF 10
ENDMDL
MODEL 2
REMARK VINA RESULT:      -7.9      3.617      7.512
REMARK  Name = 
REMARK  13 active torsions:
REMARK  status: ('A' for Active; 'I' for Inactive)
REMARK    1  A    between atoms: C_2  and  C_3
REMARK    2  A    between atoms: C_3  and  C_4
REMARK    3  A    between atoms: C_7  and  O_8
REMARK    4  A    between atoms: O_8  and  C_9
REMARK    5  A    between atoms: C_11  and  C_12
REMARK    6  A    between atoms: C_15  and  C_16
REMARK    7  A    between atoms: N_17  and  O_18
REMARK    8  A    between atoms: N_19  and  C_20
REMARK    9  A    between atoms: C_20  and  C_21
REMARK   10  A    between atoms: C_24  and  O_25
REMARK   11  A    between atoms: O_25  and  C_26
REMARK   12  A    between atoms: C_29  and  O_30
REMARK   13  A    between atoms: O_30  and  C_31
REMARK                            x       y       z     vdW  Elec       q    Type
REMARK                         _______ _______ _______ _____ _____    ______ ____
ROOT
ATOM      1  C   UNL     1       5.337   5.402  16.081  0.00  0.00    +0.000 A 
ATOM      2  N   UNL     1       4.962   4.817  14.904  0.00  0.00    +0.000 NA
ATOM      3  C   UNL     1       5.911   4.348  14.064  0.00  0.00    +0.000 A 
ATOM      4  C   UNL     1       5.447   3.881  12.717  0.00  0.00    +0.000 C 
ATOM      5  C   UNL     1       7.253   4.352  14.400  0.00  0.00    +0.000 A 
ATOM      6  C   UNL     1       7.622   4.845  15.651  0.00  0.00    +0.000 A 
ATOM      7  C   UNL     1       6.661   5.386  16.529  0.00  0.00    +0.000 A 
ENDROOT
BRANCH   7   8
ATOM      8  C   UNL     1       7.140   5.909  17.859  0.00  0.00    +0.000 C 
ATOM      9  N   UNL     1       7.078   5.058  18.845  0.00  0.00    +0.000 NA
ATOM     10  N   UNL     1       7.499   7.242  17.944  0.00  0.00    +0.000 N 
ATOM     11  H   UNL     1       7.214   7.858  17.194  0.00  0.00    +0.000 HD
BRANCH   9  12
ATOM     12  O   UNL     1       7.341   5.639  20.089  0.00  0.00    +0.000 OA
ATOM     13  H   UNL     1       7.256   4.885  20.699  0.00  0.00    +0.000 HD
ENDBRANCH   9  12
BRANCH  10  14
ATOM     14  C   UNL     1       8.584   7.766  18.753  0.00  0.00    +0.000 C 
BRANCH  14  15
ATOM     15  C   UNL     1       8.676   9.267  18.598  0.00  0.00    +0.000 A 
ATOM     16  C   UNL     1       9.471  10.030  19.464  0.00  0.00    +0.000 A 
ATOM     17  C   UNL     1       9.546  11.418  19.322  0.00  0.00    +0.000 A 
ATOM     18  C   UNL     1       8.843  12.065  18.305  0.00  0.00    +0.000 A 
ATOM     19  C   UNL     1       8.044  11.315  17.442  0.00  0.00    +0.000 A 
ATOM     20  C   UNL     1       7.965   9.926  17.584  0.00  0.00    +0.000 A 
BRANCH  18  21
ATOM     21  O   UNL     1       8.972  13.425  18.276  0.00  0.00    +0.000 OA
ATOM     22  C   UNL     1       7.828  14.138  17.819  0.00  0.00    +0.000 C 
ENDBRANCH  18  21
ENDBRANCH  14  15
ENDBRANCH  10  14
ENDBRANCH   7   8
BRANCH   1  23
ATOM     23  O   UNL     1       4.362   6.150  16.739  0.00  0.00    +0.000 OA
BRANCH  23  27
ATOM     24  C   UNL     1       1.707   3.814  19.038  0.00  0.00    +0.000 A 
ATOM     25  C   UNL     1       2.330   3.279  17.914  0.00  0.00    +0.000 A 
ATOM     26  C   UNL     1       3.136   4.080  17.111  0.00  0.00    +0.000 A 
ATOM     27  C   UNL     1       3.422   5.410  17.460  0.00  0.00    +0.000 A 
ATOM     28  C   UNL     1       2.773   5.981  18.572  0.00  0.00    +0.000 A 
ATOM     29  C   UNL     1       1.911   5.173  19.341  0.00  0.00    +0.000 A 
BRANCH  28  30
ATOM     30  O   UNL     1       3.008   7.303  18.839  0.00  0.00    +0.000 OA
ATOM     31  C   UNL     1       2.119   8.238  18.219  0.00  0.00    +0.000 C 
ENDBRANCH  28  30
BRANCH  24  32
ATOM     32  C   UNL     1       0.840   2.932  19.906  0.00  0.00    +0.000 C 
BRANCH  32  34
ATOM     33  C   UNL     1       2.448   2.549  21.805  0.00  0.00    +0.000 C 
ATOM     34  C   UNL     1       1.244   2.943  21.352  0.00  0.00    +0.000 C 
ENDBRANCH  32  34
ENDBRANCH  24  32
ENDBRANCH  23  27
ENDBRANCH   1  23
TORSDOF 10
ENDMDL
MODEL 3
REMARK VINA RESULT:      -7.8      2.404      8.587
REMARK  Name = 
REMARK  13 active torsions:
REMARK  status: ('A' for Active; 'I' for Inactive)
REMARK    1  A    between atoms: C_2  and  C_3
REMARK    2  A    between atoms: C_3  and  C_4
REMARK    3  A    between atoms: C_7  and  O_8
REMARK    4  A    between atoms: O_8  and  C_9
REMARK    5  A    between atoms: C_11  and  C_12
REMARK    6  A    between atoms: C_15  and  C_16
REMARK    7  A    between atoms: N_17  and  O_18
REMARK    8  A    between atoms: N_19  and  C_20
REMARK    9  A    between atoms: C_20  and  C_21
REMARK   10  A    between atoms: C_24  and  O_25
REMARK   11  A    between atoms: O_25  and  C_26
REMARK   12  A    between atoms: C_29  and  O_30
REMARK   13  A    between atoms: O_30  and  C_31
REMARK                            x       y       z     vdW  Elec       q    Type
REMARK                         _______ _______ _______ _____ _____    ______ ____
ROOT
ATOM      1  C   UNL     1       3.074   5.217  19.689  0.00  0.00    +0.000 A 
ATOM      2  N   UNL     1       1.860   4.626  19.905  0.00  0.00    +0.000 NA
ATOM      3  C   UNL     1       1.526   3.520  19.205  0.00  0.00    +0.000 A 
ATOM      4  C   UNL     1       0.119   3.026  19.357  0.00  0.00    +0.000 C 
ATOM      5  C   UNL     1       2.415   2.904  18.341  0.00  0.00    +0.000 A 
ATOM      6  C   UNL     1       3.693   3.444  18.210  0.00  0.00    +0.000 A 
ATOM      7  C   UNL     1       4.055   4.625  18.889  0.00  0.00    +0.000 A 
ENDROOT
BRANCH   7   8
ATOM      8  C   UNL     1       5.453   5.151  18.687  0.00  0.00    +0.000 C 
ATOM      9  N   UNL     1       6.352   4.665  19.497  0.00  0.00    +0.000 NA
ATOM     10  N   UNL     1       5.642   6.155  17.754  0.00  0.00    +0.000 N 
ATOM     11  H   UNL     1       4.827   6.649  17.418  0.00  0.00    +0.000 HD
BRANCH   9  12
ATOM     12  O   UNL     1       7.583   5.321  19.408  0.00  0.00    +0.000 OA
ATOM     13  H   UNL     1       7.779   5.279  18.455  0.00  0.00    +0.000 HD
ENDBRANCH   9  12
BRANCH  10  14
ATOM     14  C   UNL     1       6.805   6.289  16.897  0.00  0.00    +0.000 C 
BRANCH  14  15
ATOM     15  C   UNL     1       6.619   5.481  15.632  0.00  0.00    +0.000 A 
ATOM     16  C   UNL     1       7.642   5.400  14.677  0.00  0.00    +0.000 A 
ATOM     17  C   UNL     1       7.461   4.658  13.505  0.00  0.00    +0.000 A 
ATOM     18  C   UNL     1       6.267   3.974  13.277  0.00  0.00    +0.000 A 
ATOM     19  C   UNL     1       5.242   4.054  14.218  0.00  0.00    +0.000 A 
ATOM     20  C   UNL     1       5.419   4.798  15.390  0.00  0.00    +0.000 A 
BRANCH  18  21
ATOM     21  O   UNL     1       6.194   3.302  12.089  0.00  0.00    +0.000 OA
ATOM     22  C   UNL     1       4.879   3.006  11.634  0.00  0.00    +0.000 C 
ENDBRANCH  18  21
ENDBRANCH  14  15
ENDBRANCH  10  14
ENDBRANCH   7   8
BRANCH   1  23
ATOM     23  O   UNL     1       3.229   6.512  20.180  0.00  0.00    +0.000 OA
BRANCH  23  27
ATOM     24  C   UNL     1       0.613   9.261  18.340  0.00  0.00    +0.000 A 
ATOM     25  C   UNL     1       1.513   8.522  17.578  0.00  0.00    +0.000 A 
ATOM     26  C   UNL     1       2.433   7.681  18.199  0.00  0.00    +0.000 A 
ATOM     27  C   UNL     1       2.414   7.481  19.589  0.00  0.00    +0.000 A 
ATOM     28  C   UNL     1       1.536   8.247  20.380  0.00  0.00    +0.000 A 
ATOM     29  C   UNL     1       0.653   9.139  19.741  0.00  0.00    +0.000 A 
BRANCH  28  30
ATOM     30  O   UNL     1       1.600   8.089  21.739  0.00  0.00    +0.000 OA
ATOM     31  C   UNL     1       1.018   9.136  22.522  0.00  0.00    +0.000 C 
ENDBRANCH  28  30
BRANCH  24  32
ATOM     32  C   UNL     1      -0.386  10.164  17.652  0.00  0.00    +0.000 C 
BRANCH  32  34
ATOM     33  C   UNL     1      -2.885   9.864  17.596  0.00  0.00    +0.000 C 
ATOM     34  C   UNL     1      -1.751  10.120  18.274  0.00  0.00    +0.000 C 
ENDBRANCH  32  34
ENDBRANCH  24  32
ENDBRANCH  23  27
ENDBRANCH   1  23
TORSDOF 10
ENDMDL
MODEL 4
REMARK VINA RESULT:      -7.7      3.271      7.623
REMARK  Name = 
REMARK  13 active torsions:
REMARK  status: ('A' for Active; 'I' for Inactive)
REMARK    1  A    between atoms: C_2  and  C_3
REMARK    2  A    between atoms: C_3  and  C_4
REMARK    3  A    between atoms: C_7  and  O_8
REMARK    4  A    between atoms: O_8  and  C_9
REMARK    5  A    between atoms: C_11  and  C_12
REMARK    6  A    between atoms: C_15  and  C_16
REMARK    7  A    between atoms: N_17  and  O_18
REMARK    8  A    between atoms: N_19  and  C_20
REMARK    9  A    between atoms: C_20  and  C_21
REMARK   10  A    between atoms: C_24  and  O_25
REMARK   11  A    between atoms: O_25  and  C_26
REMARK   12  A    between atoms: C_29  and  O_30
REMARK   13  A    between atoms: O_30  and  C_31
REMARK                            x       y       z     vdW  Elec       q    Type
REMARK                         _______ _______ _______ _____ _____    ______ ____
ROOT
ATOM      1  C   UNL     1       5.397   5.646  16.139  0.00  0.00    +0.000 A 
ATOM      2  N   UNL     1       4.960   5.077  14.976  0.00  0.00    +0.000 NA
ATOM      3  C   UNL     1       5.853   4.491  14.148  0.00  0.00    +0.000 A 
ATOM      4  C   UNL     1       5.340   4.045  12.811  0.00  0.00    +0.000 C 
ATOM      5  C   UNL     1       7.189   4.361  14.485  0.00  0.00    +0.000 A 
ATOM      6  C   UNL     1       7.609   4.841  15.724  0.00  0.00    +0.000 A 
ATOM      7  C   UNL     1       6.712   5.500  16.589  0.00  0.00    +0.000 A 
ENDROOT
BRANCH   7   8
ATOM      8  C   UNL     1       7.246   6.000  17.907  0.00  0.00    +0.000 C 
ATOM      9  N   UNL     1       7.315   5.105  18.853  0.00  0.00    +0.000 NA
ATOM     10  N   UNL     1       7.513   7.351  18.031  0.00  0.00    +0.000 N 
ATOM     11  H   UNL     1       7.132   7.976  17.334  0.00  0.00    +0.000 HD
BRANCH   9  12
ATOM     12  O   UNL     1       7.624   5.650  20.102  0.00  0.00    +0.000 OA
ATOM     13  H   UNL     1       6.917   6.307  20.230  0.00  0.00    +0.000 HD
ENDBRANCH   9  12
BRANCH  10  14
ATOM     14  C   UNL     1       8.613   7.919  18.790  0.00  0.00    +0.000 C 
BRANCH  14  15
ATOM     15  C   UNL     1       8.704   9.408  18.545  0.00  0.00    +0.000 A 
ATOM     16  C   UNL     1       7.864  10.034  17.613  0.00  0.00    +0.000 A 
ATOM     17  C   UNL     1       7.959  11.410  17.384  0.00  0.00    +0.000 A 
ATOM     18  C   UNL     1       8.879  12.184  18.091  0.00  0.00    +0.000 A 
ATOM     19  C   UNL     1       9.723  11.569  19.015  0.00  0.00    +0.000 A 
ATOM     20  C   UNL     1       9.633  10.192  19.244  0.00  0.00    +0.000 A 
BRANCH  18  21
ATOM     21  O   UNL     1       8.899  13.512  17.768  0.00  0.00    +0.000 OA
ATOM     22  C   UNL     1       9.616  14.349  18.668  0.00  0.00    +0.000 C 
ENDBRANCH  18  21
ENDBRANCH  14  15
ENDBRANCH  10  14
ENDBRANCH   7   8
BRANCH   1  23
ATOM     23  O   UNL     1       4.508   6.508  16.780  0.00  0.00    +0.000 OA
BRANCH  23  27
ATOM     24  C   UNL     1       1.844   4.641  19.464  0.00  0.00    +0.000 A 
ATOM     25  C   UNL     1       2.743   3.884  18.719  0.00  0.00    +0.000 A 
ATOM     26  C   UNL     1       3.558   4.497  17.772  0.00  0.00    +0.000 A 
ATOM     27  C   UNL     1       3.569   5.892  17.612  0.00  0.00    +0.000 A 
ATOM     28  C   UNL     1       2.642   6.672  18.330  0.00  0.00    +0.000 A 
ATOM     29  C   UNL     1       1.780   6.029  19.241  0.00  0.00    +0.000 A 
BRANCH  28  30
ATOM     30  O   UNL     1       2.620   8.020  18.091  0.00  0.00    +0.000 OA
ATOM     31  C   UNL     1       1.760   8.795  18.933  0.00  0.00    +0.000 C 
ENDBRANCH  28  30
BRANCH  24  32
ATOM     32  C   UNL     1       0.969   3.965  20.495  0.00  0.00    +0.000 C 
BRANCH  32  34
ATOM     33  C   UNL     1       2.258   2.204  21.751  0.00  0.00    +0.000 C 
ATOM     34  C   UNL     1       1.738   3.443  21.674  0.00  0.00    +0.000 C 
ENDBRANCH  32  34
ENDBRANCH  24  32
ENDBRANCH  23  27
ENDBRANCH   1  23
TORSDOF 10
ENDMDL
MODEL 5
REMARK VINA RESULT:      -7.7      2.318      8.775
REMARK  Name = 
REMARK  13 active torsions:
REMARK  status: ('A' for Active; 'I' for Inactive)
REMARK    1  A    between atoms: C_2  and  C_3
REMARK    2  A    between atoms: C_3  and  C_4
REMARK    3  A    between atoms: C_7  and  O_8
REMARK    4  A    between atoms: O_8  and  C_9
REMARK    5  A    between atoms: C_11  and  C_12
REMARK    6  A    between atoms: C_15  and  C_16
REMARK    7  A    between atoms: N_17  and  O_18
REMARK    8  A    between atoms: N_19  and  C_20
REMARK    9  A    between atoms: C_20  and  C_21
REMARK   10  A    between atoms: C_24  and  O_25
REMARK   11  A    between atoms: O_25  and  C_26
REMARK   12  A    between atoms: C_29  and  O_30
REMARK   13  A    between atoms: O_30  and  C_31
REMARK                            x       y       z     vdW  Elec       q    Type
REMARK                         _______ _______ _______ _____ _____    ______ ____
ROOT
ATOM      1  C   UNL     1       3.124   5.459  19.698  0.00  0.00    +0.000 A 
ATOM      2  N   UNL     1       1.920   4.879  19.989  0.00  0.00    +0.000 NA
ATOM      3  C   UNL     1       1.570   3.730  19.369  0.00  0.00    +0.000 A 
ATOM      4  C   UNL     1       0.171   3.241  19.596  0.00  0.00    +0.000 C 
ATOM      5  C   UNL     1       2.434   3.066  18.517  0.00  0.00    +0.000 A 
ATOM      6  C   UNL     1       3.705   3.600  18.312  0.00  0.00    +0.000 A 
ATOM      7  C   UNL     1       4.082   4.822  18.906  0.00  0.00    +0.000 A 
ENDROOT
BRANCH   7   8
ATOM      8  C   UNL     1       5.470   5.340  18.627  0.00  0.00    +0.000 C 
ATOM      9  N   UNL     1       6.327   5.182  19.597  0.00  0.00    +0.000 NA
ATOM     10  N   UNL     1       5.687   6.013  17.438  0.00  0.00    +0.000 N 
ATOM     11  H   UNL     1       4.880   6.331  16.919  0.00  0.00    +0.000 HD
BRANCH   9  12
ATOM     12  O   UNL     1       7.536   5.849  19.376  0.00  0.00    +0.000 OA
ATOM     13  H   UNL     1       7.684   6.308  20.221  0.00  0.00    +0.000 HD
ENDBRANCH   9  12
BRANCH  10  14
ATOM     14  C   UNL     1       6.903   5.942  16.648  0.00  0.00    +0.000 C 
BRANCH  14  15
ATOM     15  C   UNL     1       6.647   5.189  15.362  0.00  0.00    +0.000 A 
ATOM     16  C   UNL     1       5.502   4.394  15.212  0.00  0.00    +0.000 A 
ATOM     17  C   UNL     1       5.275   3.692  14.024  0.00  0.00    +0.000 A 
ATOM     18  C   UNL     1       6.177   3.785  12.964  0.00  0.00    +0.000 A 
ATOM     19  C   UNL     1       7.322   4.568  13.106  0.00  0.00    +0.000 A 
ATOM     20  C   UNL     1       7.553   5.269  14.294  0.00  0.00    +0.000 A 
BRANCH  18  21
ATOM     21  O   UNL     1       5.865   3.039  11.862  0.00  0.00    +0.000 OA
ATOM     22  C   UNL     1       4.501   3.087  11.458  0.00  0.00    +0.000 C 
ENDBRANCH  18  21
ENDBRANCH  14  15
ENDBRANCH  10  14
ENDBRANCH   7   8
BRANCH   1  23
ATOM     23  O   UNL     1       3.288   6.782  20.104  0.00  0.00    +0.000 OA
BRANCH  23  27
ATOM     24  C   UNL     1       0.425   9.354  18.377  0.00  0.00    +0.000 A 
ATOM     25  C   UNL     1       1.391   8.737  17.587  0.00  0.00    +0.000 A 
ATOM     26  C   UNL     1       2.385   7.959  18.174  0.00  0.00    +0.000 A 
ATOM     27  C   UNL     1       2.386   7.696  19.553  0.00  0.00    +0.000 A 
ATOM     28  C   UNL     1       1.440   8.340  20.374  0.00  0.00    +0.000 A 
ATOM     29  C   UNL     1       0.477   9.173  19.771  0.00  0.00    +0.000 A 
BRANCH  28  30
ATOM     30  O   UNL     1       1.518   8.129  21.725  0.00  0.00    +0.000 OA
ATOM     31  C   UNL     1       1.054   9.197  22.557  0.00  0.00    +0.000 C 
ENDBRANCH  28  30
BRANCH  24  32
ATOM     32  C   UNL     1      -0.653  10.189  17.726  0.00  0.00    +0.000 C 
BRANCH  32  34
ATOM     33  C   UNL     1      -0.845  12.630  18.311  0.00  0.00    +0.000 C 
ATOM     34  C   UNL     1      -1.109  11.337  18.578  0.00  0.00    +0.000 C 
ENDBRANCH  32  34
ENDBRANCH  24  32
ENDBRANCH  23  27
ENDBRANCH   1  23
TORSDOF 10
ENDMDL
MODEL 6
REMARK VINA RESULT:      -7.6      2.964      7.738
REMARK  Name = 
REMARK  13 active torsions:
REMARK  status: ('A' for Active; 'I' for Inactive)
REMARK    1  A    between atoms: C_2  and  C_3
REMARK    2  A    between atoms: C_3  and  C_4
REMARK    3  A    between atoms: C_7  and  O_8
REMARK    4  A    between atoms: O_8  and  C_9
REMARK    5  A    between atoms: C_11  and  C_12
REMARK    6  A    between atoms: C_15  and  C_16
REMARK    7  A    between atoms: N_17  and  O_18
REMARK    8  A    between atoms: N_19  and  C_20
REMARK    9  A    between atoms: C_20  and  C_21
REMARK   10  A    between atoms: C_24  and  O_25
REMARK   11  A    between atoms: O_25  and  C_26
REMARK   12  A    between atoms: C_29  and  O_30
REMARK   13  A    between atoms: O_30  and  C_31
REMARK                            x       y       z     vdW  Elec       q    Type
REMARK                         _______ _______ _______ _____ _____    ______ ____
ROOT
ATOM      1  C   UNL     1       5.596   4.596  16.997  0.00  0.00    +0.000 A 
ATOM      2  N   UNL     1       5.145   4.014  15.845  0.00  0.00    +0.000 NA
ATOM      3  C   UNL     1       5.807   4.235  14.688  0.00  0.00    +0.000 A 
ATOM      4  C   UNL     1       5.165   3.718  13.436  0.00  0.00    +0.000 C 
ATOM      5  C   UNL     1       6.987   4.956  14.646  0.00  0.00    +0.000 A 
ATOM      6  C   UNL     1       7.505   5.451  15.841  0.00  0.00    +0.000 A 
ATOM      7  C   UNL     1       6.813   5.278  17.057  0.00  0.00    +0.000 A 
ENDROOT
BRANCH   7   8
ATOM      8  C   UNL     1       7.433   5.852  18.306  0.00  0.00    +0.000 C 
ATOM      9  N   UNL     1       7.605   5.003  19.281  0.00  0.00    +0.000 NA
ATOM     10  N   UNL     1       7.668   7.214  18.350  0.00  0.00    +0.000 N 
ATOM     11  H   UNL     1       7.214   7.796  17.659  0.00  0.00    +0.000 HD
BRANCH   9  12
ATOM     12  O   UNL     1       7.994   5.613  20.477  0.00  0.00    +0.000 OA
ATOM     13  H   UNL     1       7.414   6.394  20.518  0.00  0.00    +0.000 HD
ENDBRANCH   9  12
BRANCH  10  14
ATOM     14  C   UNL     1       8.806   7.846  18.993  0.00  0.00    +0.000 C 
BRANCH  14  15
ATOM     15  C   UNL     1       8.791   9.336  18.736  0.00  0.00    +0.000 A 
ATOM     16  C   UNL     1       8.057   9.873  17.669  0.00  0.00    +0.000 A 
ATOM     17  C   UNL     1       8.054  11.250  17.431  0.00  0.00    +0.000 A 
ATOM     18  C   UNL     1       8.769  12.114  18.261  0.00  0.00    +0.000 A 
ATOM     19  C   UNL     1       9.509  11.589  19.320  0.00  0.00    +0.000 A 
ATOM     20  C   UNL     1       9.515  10.211  19.559  0.00  0.00    +0.000 A 
BRANCH  18  21
ATOM     21  O   UNL     1       8.713  13.436  17.919  0.00  0.00    +0.000 OA
ATOM     22  C   UNL     1       9.967  14.108  17.868  0.00  0.00    +0.000 C 
ENDBRANCH  18  21
ENDBRANCH  14  15
ENDBRANCH  10  14
ENDBRANCH   7   8
BRANCH   1  23
ATOM     23  O   UNL     1       4.709   4.607  18.073  0.00  0.00    +0.000 OA
BRANCH  23  27
ATOM     24  C   UNL     1       2.271   8.038  18.341  0.00  0.00    +0.000 A 
ATOM     25  C   UNL     1       3.221   7.922  17.330  0.00  0.00    +0.000 A 
ATOM     26  C   UNL     1       4.081   6.828  17.299  0.00  0.00    +0.000 A 
ATOM     27  C   UNL     1       3.953   5.772  18.217  0.00  0.00    +0.000 A 
ATOM     28  C   UNL     1       3.023   5.888  19.268  0.00  0.00    +0.000 A 
ATOM     29  C   UNL     1       2.200   7.031  19.322  0.00  0.00    +0.000 A 
BRANCH  28  30
ATOM     30  O   UNL     1       2.978   4.881  20.195  0.00  0.00    +0.000 OA
ATOM     31  C   UNL     1       1.681   4.359  20.496  0.00  0.00    +0.000 C 
ENDBRANCH  28  30
BRANCH  24  32
ATOM     32  C   UNL     1       1.338   9.226  18.359  0.00  0.00    +0.000 C 
BRANCH  32  34
ATOM     33  C   UNL     1      -0.096   9.914  20.311  0.00  0.00    +0.000 C 
ATOM     34  C   UNL     1       1.113   9.783  19.735  0.00  0.00    +0.000 C 
ENDBRANCH  32  34
ENDBRANCH  24  32
ENDBRANCH  23  27
ENDBRANCH   1  23
TORSDOF 10
ENDMDL
MODEL 7
REMARK VINA RESULT:      -7.6      3.743     10.200
REMARK  Name = 
REMARK  13 active torsions:
REMARK  status: ('A' for Active; 'I' for Inactive)
REMARK    1  A    between atoms: C_2  and  C_3
REMARK    2  A    between atoms: C_3  and  C_4
REMARK    3  A    between atoms: C_7  and  O_8
REMARK    4  A    between atoms: O_8  and  C_9
REMARK    5  A    between atoms: C_11  and  C_12
REMARK    6  A    between atoms: C_15  and  C_16
REMARK    7  A    between atoms: N_17  and  O_18
REMARK    8  A    between atoms: N_19  and  C_20
REMARK    9  A    between atoms: C_20  and  C_21
REMARK   10  A    between atoms: C_24  and  O_25
REMARK   11  A    between atoms: O_25  and  C_26
REMARK   12  A    between atoms: C_29  and  O_30
REMARK   13  A    between atoms: O_30  and  C_31
REMARK                            x       y       z     vdW  Elec       q    Type
REMARK                         _______ _______ _______ _____ _____    ______ ____
ROOT
ATOM      1  C   UNL     1      -0.167  12.712  19.377  0.00  0.00    +0.000 A 
ATOM      2  N   UNL     1      -0.106  13.898  18.700  0.00  0.00    +0.000 NA
ATOM      3  C   UNL     1       0.216  15.028  19.368  0.00  0.00    +0.000 A 
ATOM      4  C   UNL     1       0.093  16.316  18.611  0.00  0.00    +0.000 C 
ATOM      5  C   UNL     1       0.581  15.010  20.703  0.00  0.00    +0.000 A 
ATOM      6  C   UNL     1       0.628  13.782  21.361  0.00  0.00    +0.000 A 
ATOM      7  C   UNL     1       0.251  12.593  20.704  0.00  0.00    +0.000 A 
ENDROOT
BRANCH   7   8
ATOM      8  C   UNL     1       0.319  11.306  21.487  0.00  0.00    +0.000 C 
ATOM      9  N   UNL     1      -0.266  11.334  22.652  0.00  0.00    +0.000 NA
ATOM     10  N   UNL     1       1.065  10.265  20.965  0.00  0.00    +0.000 N 
ATOM     11  H   UNL     1       1.710  10.473  20.216  0.00  0.00    +0.000 HD
BRANCH   9  12
ATOM     12  O   UNL     1      -0.011  10.195  23.422  0.00  0.00    +0.000 OA
ATOM     13  H   UNL     1      -0.508   9.503  22.951  0.00  0.00    +0.000 HD
ENDBRANCH   9  12
BRANCH  10  14
ATOM     14  C   UNL     1       0.724   8.858  21.072  0.00  0.00    +0.000 C 
BRANCH  14  15
ATOM     15  C   UNL     1       1.549   8.045  20.101  0.00  0.00    +0.000 A 
ATOM     16  C   UNL     1       1.921   8.574  18.857  0.00  0.00    +0.000 A 
ATOM     17  C   UNL     1       2.675   7.814  17.958  0.00  0.00    +0.000 A 
ATOM     18  C   UNL     1       3.085   6.523  18.293  0.00  0.00    +0.000 A 
ATOM     19  C   UNL     1       2.714   5.985  19.525  0.00  0.00    +0.000 A 
ATOM     20  C   UNL     1       1.956   6.742  20.424  0.00  0.00    +0.000 A 
BRANCH  18  21
ATOM     21  O   UNL     1       3.798   5.866  17.329  0.00  0.00    +0.000 OA
ATOM     22  C   UNL     1       3.933   4.462  17.520  0.00  0.00    +0.000 C 
ENDBRANCH  18  21
ENDBRANCH  14  15
ENDBRANCH  10  14
ENDBRANCH   7   8
BRANCH   1  23
ATOM     23  O   UNL     1      -0.812  11.661  18.727  0.00  0.00    +0.000 OA
BRANCH  23  27
ATOM     24  C   UNL     1      -5.020  11.932  18.819  0.00  0.00    +0.000 A 
ATOM     25  C   UNL     1      -4.250  12.546  19.802  0.00  0.00    +0.000 A 
ATOM     26  C   UNL     1      -2.868  12.381  19.815  0.00  0.00    +0.000 A 
ATOM     27  C   UNL     1      -2.208  11.679  18.793  0.00  0.00    +0.000 A 
ATOM     28  C   UNL     1      -2.972  11.019  17.811  0.00  0.00    +0.000 A 
ATOM     29  C   UNL     1      -4.375  11.146  17.847  0.00  0.00    +0.000 A 
BRANCH  28  30
ATOM     30  O   UNL     1      -2.304  10.274  16.876  0.00  0.00    +0.000 OA
ATOM     31  C   UNL     1      -2.693  10.476  15.515  0.00  0.00    +0.000 C 
ENDBRANCH  28  30
BRANCH  24  32
ATOM     32  C   UNL     1      -6.519  12.126  18.812  0.00  0.00    +0.000 C 
BRANCH  32  34
ATOM     33  C   UNL     1      -7.550  10.873  20.736  0.00  0.00    +0.000 C 
ATOM     34  C   UNL     1      -7.269  10.980  19.424  0.00  0.00    +0.000 C 
ENDBRANCH  32  34
ENDBRANCH  24  32
ENDBRANCH  23  27
ENDBRANCH   1  23
TORSDOF 10
ENDMDL
MODEL 8
REMARK VINA RESULT:      -7.5      1.043      1.372
REMARK  Name = 
REMARK  13 active torsions:
REMARK  status: ('A' for Active; 'I' for Inactive)
REMARK    1  A    between atoms: C_2  and  C_3
REMARK    2  A    between atoms: C_3  and  C_4
REMARK    3  A    between atoms: C_7  and  O_8
REMARK    4  A    between atoms: O_8  and  C_9
REMARK    5  A    between atoms: C_11  and  C_12
REMARK    6  A    between atoms: C_15  and  C_16
REMARK    7  A    between atoms: N_17  and  O_18
REMARK    8  A    between atoms: N_19  and  C_20
REMARK    9  A    between atoms: C_20  and  C_21
REMARK   10  A    between atoms: C_24  and  O_25
REMARK   11  A    between atoms: O_25  and  C_26
REMARK   12  A    between atoms: C_29  and  O_30
REMARK   13  A    between atoms: O_30  and  C_31
REMARK                            x       y       z     vdW  Elec       q    Type
REMARK                         _______ _______ _______ _____ _____    ______ ____
ROOT
ATOM      1  C   UNL     1       3.578   5.715  19.293  0.00  0.00    +0.000 A 
ATOM      2  N   UNL     1       3.751   4.431  19.730  0.00  0.00    +0.000 NA
ATOM      3  C   UNL     1       2.829   3.878  20.548  0.00  0.00    +0.000 A 
ATOM      4  C   UNL     1       3.162   2.539  21.132  0.00  0.00    +0.000 C 
ATOM      5  C   UNL     1       1.659   4.537  20.882  0.00  0.00    +0.000 A 
ATOM      6  C   UNL     1       1.432   5.802  20.341  0.00  0.00    +0.000 A 
ATOM      7  C   UNL     1       2.398   6.425  19.525  0.00  0.00    +0.000 A 
ENDROOT
BRANCH   7   8
ATOM      8  C   UNL     1       2.083   7.797  18.987  0.00  0.00    +0.000 C 
ATOM      9  N   UNL     1       2.600   8.069  17.821  0.00  0.00    +0.000 NA
ATOM     10  N   UNL     1       1.378   8.668  19.798  0.00  0.00    +0.000 N 
ATOM     11  H   UNL     1       1.303   8.446  20.781  0.00  0.00    +0.000 HD
BRANCH   9  12
ATOM     12  O   UNL     1       2.451   9.409  17.453  0.00  0.00    +0.000 OA
ATOM     13  H   UNL     1       3.189   9.544  16.832  0.00  0.00    +0.000 HD
ENDBRANCH   9  12
BRANCH  10  14
ATOM     14  C   UNL     1       0.386   9.622  19.335  0.00  0.00    +0.000 C 
BRANCH  14  15
ATOM     15  C   UNL     1       0.459  10.891  20.154  0.00  0.00    +0.000 A 
ATOM     16  C   UNL     1      -0.403  11.094  21.241  0.00  0.00    +0.000 A 
ATOM     17  C   UNL     1      -0.337  12.273  21.989  0.00  0.00    +0.000 A 
ATOM     18  C   UNL     1       0.598  13.259  21.676  0.00  0.00    +0.000 A 
ATOM     19  C   UNL     1       1.456  13.070  20.592  0.00  0.00    +0.000 A 
ATOM     20  C   UNL     1       1.390  11.893  19.840  0.00  0.00    +0.000 A 
BRANCH  18  21
ATOM     21  O   UNL     1       0.556  14.378  22.460  0.00  0.00    +0.000 OA
ATOM     22  C   UNL     1      -0.130  15.492  21.899  0.00  0.00    +0.000 C 
ENDBRANCH  18  21
ENDBRANCH  14  15
ENDBRANCH  10  14
ENDBRANCH   7   8
BRANCH   1  23
ATOM     23  O   UNL     1       4.696   6.336  18.737  0.00  0.00    +0.000 OA
BRANCH  23  27
ATOM     24  C   UNL     1       6.207   4.661  15.174  0.00  0.00    +0.000 A 
ATOM     25  C   UNL     1       4.870   4.495  15.522  0.00  0.00    +0.000 A 
ATOM     26  C   UNL     1       4.398   4.975  16.741  0.00  0.00    +0.000 A 
ATOM     27  C   UNL     1       5.223   5.719  17.600  0.00  0.00    +0.000 A 
ATOM     28  C   UNL     1       6.587   5.867  17.283  0.00  0.00    +0.000 A 
ATOM     29  C   UNL     1       7.063   5.322  16.073  0.00  0.00    +0.000 A 
BRANCH  28  30
ATOM     30  O   UNL     1       7.384   6.526  18.180  0.00  0.00    +0.000 OA
ATOM     31  C   UNL     1       7.947   5.729  19.226  0.00  0.00    +0.000 C 
ENDBRANCH  28  30
BRANCH  24  32
ATOM     32  C   UNL     1       6.704   4.142  13.844  0.00  0.00    +0.000 C 
BRANCH  32  34
ATOM     33  C   UNL     1       5.814   2.836  11.885  0.00  0.00    +0.000 C 
ATOM     34  C   UNL     1       5.609   3.605  12.970  0.00  0.00    +0.000 C 
ENDBRANCH  32  34
ENDBRANCH  24  32
ENDBRANCH  23  27
ENDBRANCH   1  23
TORSDOF 10
ENDMDL
MODEL 9
REMARK VINA RESULT:      -7.5      2.130      2.625
REMARK  Name = 
REMARK  13 active torsions:
REMARK  status: ('A' for Active; 'I' for Inactive)
REMARK    1  A    between atoms: C_2  and  C_3
REMARK    2  A    between atoms: C_3  and  C_4
REMARK    3  A    between atoms: C_7  and  O_8
REMARK    4  A    between atoms: O_8  and  C_9
REMARK    5  A    between atoms: C_11  and  C_12
REMARK    6  A    between atoms: C_15  and  C_16
REMARK    7  A    between atoms: N_17  and  O_18
REMARK    8  A    between atoms: N_19  and  C_20
REMARK    9  A    between atoms: C_20  and  C_21
REMARK   10  A    between atoms: C_24  and  O_25
REMARK   11  A    between atoms: O_25  and  C_26
REMARK   12  A    between atoms: C_29  and  O_30
REMARK   13  A    between atoms: O_30  and  C_31
REMARK                            x       y       z     vdW  Elec       q    Type
REMARK                         _______ _______ _______ _____ _____    ______ ____
ROOT
ATOM      1  C   UNL     1       3.660   5.428  19.339  0.00  0.00    +0.000 A 
ATOM      2  N   UNL     1       4.058   4.121  19.376  0.00  0.00    +0.000 NA
ATOM      3  C   UNL     1       3.465   3.271  20.244  0.00  0.00    +0.000 A 
ATOM      4  C   UNL     1       4.065   1.902  20.362  0.00  0.00    +0.000 C 
ATOM      5  C   UNL     1       2.396   3.658  21.032  0.00  0.00    +0.000 A 
ATOM      6  C   UNL     1       1.917   4.961  20.908  0.00  0.00    +0.000 A 
ATOM      7  C   UNL     1       2.546   5.885  20.048  0.00  0.00    +0.000 A 
ENDROOT
BRANCH   7   8
ATOM      8  C   UNL     1       1.975   7.278  19.977  0.00  0.00    +0.000 C 
ATOM      9  N   UNL     1       1.572   7.772  21.114  0.00  0.00    +0.000 NA
ATOM     10  N   UNL     1       1.836   7.862  18.730  0.00  0.00    +0.000 N 
ATOM     11  H   UNL     1       1.900   7.264  17.918  0.00  0.00    +0.000 HD
BRANCH   9  12
ATOM     12  O   UNL     1       0.874   8.975  20.974  0.00  0.00    +0.000 OA
ATOM     13  H   UNL     1       1.559   9.582  20.642  0.00  0.00    +0.000 HD
ENDBRANCH   9  12
BRANCH  10  14
ATOM     14  C   UNL     1       2.034   9.270  18.441  0.00  0.00    +0.000 C 
BRANCH  14  15
ATOM     15  C   UNL     1       0.704   9.950  18.213  0.00  0.00    +0.000 A 
ATOM     16  C   UNL     1      -0.330   9.293  17.531  0.00  0.00    +0.000 A 
ATOM     17  C   UNL     1      -1.556   9.930  17.315  0.00  0.00    +0.000 A 
ATOM     18  C   UNL     1      -1.775  11.223  17.790  0.00  0.00    +0.000 A 
ATOM     19  C   UNL     1      -0.751  11.888  18.464  0.00  0.00    +0.000 A 
ATOM     20  C   UNL     1       0.477  11.254  18.678  0.00  0.00    +0.000 A 
BRANCH  18  21
ATOM     21  O   UNL     1      -3.001  11.754  17.501  0.00  0.00    +0.000 OA
ATOM     22  C   UNL     1      -3.963  11.675  18.547  0.00  0.00    +0.000 C 
ENDBRANCH  18  21
ENDBRANCH  14  15
ENDBRANCH  10  14
ENDBRANCH   7   8
BRANCH   1  23
ATOM     23  O   UNL     1       4.509   6.316  18.681  0.00  0.00    +0.000 OA
BRANCH  23  27
ATOM     24  C   UNL     1       6.369   4.937  15.156  0.00  0.00    +0.000 A 
ATOM     25  C   UNL     1       5.074   4.540  15.474  0.00  0.00    +0.000 A 
ATOM     26  C   UNL     1       4.498   4.929  16.680  0.00  0.00    +0.000 A 
ATOM     27  C   UNL     1       5.161   5.802  17.557  0.00  0.00    +0.000 A 
ATOM     28  C   UNL     1       6.486   6.185  17.271  0.00  0.00    +0.000 A 
ATOM     29  C   UNL     1       7.077   5.734  16.074  0.00  0.00    +0.000 A 
BRANCH  28  30
ATOM     30  O   UNL     1       7.136   6.970  18.186  0.00  0.00    +0.000 OA
ATOM     31  C   UNL     1       7.777   8.140  17.669  0.00  0.00    +0.000 C 
ENDBRANCH  28  30
BRANCH  24  32
ATOM     32  C   UNL     1       6.980   4.515  13.839  0.00  0.00    +0.000 C 
BRANCH  32  34
ATOM     33  C   UNL     1       6.359   3.201  11.784  0.00  0.00    +0.000 C 
ATOM     34  C   UNL     1       6.096   3.601  13.041  0.00  0.00    +0.000 C 
ENDBRANCH  32  34
ENDBRANCH  24  32
ENDBRANCH  23  27
ENDBRANCH   1  23
TORSDOF 10
ENDMDL
