MODEL 1
REMARK VINA RESULT:      -8.5      0.000      0.000
REMARK  Name = 
REMARK  6 active torsions:
REMARK  status: ('A' for Active; 'I' for Inactive)
REMARK    1  A    between atoms: C_1  and  C_2
REMARK    2  A    between atoms: N_4  and  C_5
REMARK    3  A    between atoms: N_10  and  C_11
REMARK    4  A    between atoms: C_13  and  C_14
REMARK    5  A    between atoms: C_13  and  C_15
REMARK    6  A    between atoms: C_20  and  C_21
REMARK                            x       y       z     vdW  Elec       q    Type
REMARK                         _______ _______ _______ _____ _____    ______ ____
ROOT
ATOM      1  C   UNL     1       4.891   4.263  18.328  0.00  0.00    +0.000 C 
ATOM      2  C   UNL     1       4.262   3.123  18.732  0.00  0.00    +0.000 C 
ATOM      3  C   UNL     1       2.799   3.207  18.947  0.00  0.00    +0.000 C 
ATOM      4  C   UNL     1       2.055   3.767  17.671  0.00  0.00    +0.000 C 
ATOM      5  C   UNL     1       2.113   1.897  19.270  0.00  0.00    +0.000 C 
ATOM      6  O   UNL     1       2.724   3.995  20.129  0.00  0.00    +0.000 OA
ATOM      7  C   UNL     1       3.052   5.292  19.778  0.00  0.00    +0.000 A 
ATOM      8  C   UNL     1       2.078   6.140  20.329  0.00  0.00    +0.000 A 
ATOM      9  C   UNL     1       1.823   7.327  19.694  0.00  0.00    +0.000 A 
ATOM     10  C   UNL     1       2.634   7.700  18.602  0.00  0.00    +0.000 A 
ATOM     11  C   UNL     1       3.739   6.844  18.144  0.00  0.00    +0.000 A 
ATOM     12  C   UNL     1       3.988   5.559  18.705  0.00  0.00    +0.000 A 
ENDROOT
BRANCH   1  18
ATOM     13  C   UNL     1       5.543   4.173  14.854  0.00  0.00    +0.000 A 
ATOM     14  C   UNL     1       6.645   5.110  14.786  0.00  0.00    +0.000 A 
ATOM     15  C   UNL     1       7.304   5.438  15.903  0.00  0.00    +0.000 A 
ATOM     16  C   UNL     1       6.982   4.823  17.227  0.00  0.00    +0.000 A 
ATOM     17  O   UNL     1       7.639   5.222  18.196  0.00  0.00    +0.000 OA
ATOM     18  N   UNL     1       5.852   3.936  17.300  0.00  0.00    +0.000 N 
ATOM     19  C   UNL     1       5.201   3.645  16.042  0.00  0.00    +0.000 A 
BRANCH  13  23
ATOM     20  C   UNL     1       4.455   3.381  11.316  0.00  0.00    +0.000 C 
ATOM     21  C   UNL     1       5.421   3.430  12.480  0.00  0.00    +0.000 C 
ATOM     22  O   UNL     1       6.563   2.980  12.376  0.00  0.00    +0.000 OA
ATOM     23  N   UNL     1       4.899   4.003  13.622  0.00  0.00    +0.000 N 
ATOM     24  H   UNL     1       3.893   4.156  13.603  0.00  0.00    +0.000 HD
ENDBRANCH  13  23
ENDBRANCH   1  18
BRANCH  10  25
ATOM     25  C   UNL     1       2.210   8.947  17.949  0.00  0.00    +0.000 C 
ATOM     26  N   UNL     1       1.976   9.980  17.504  0.00  0.00    +0.000 NA
ENDBRANCH  10  25
TORSDOF 3
ENDMDL
MODEL 2
REMARK VINA RESULT:      -8.4      1.987      6.571
REMARK  Name = 
REMARK  6 active torsions:
REMARK  status: ('A' for Active; 'I' for Inactive)
REMARK    1  A    between atoms: C_1  and  C_2
REMARK    2  A    between atoms: N_4  and  C_5
REMARK    3  A    between atoms: N_10  and  C_11
REMARK    4  A    between atoms: C_13  and  C_14
REMARK    5  A    between atoms: C_13  and  C_15
REMARK    6  A    between atoms: C_20  and  C_21
REMARK                            x       y       z     vdW  Elec       q    Type
REMARK                         _______ _______ _______ _____ _____    ______ ____
ROOT
ATOM      1  C   UNL     1       5.721   4.364  17.706  0.00  0.00    +0.000 C 
ATOM      2  C   UNL     1       6.300   5.523  18.126  0.00  0.00    +0.000 C 
ATOM      3  C   UNL     1       6.565   6.551  17.092  0.00  0.00    +0.000 C 
ATOM      4  C   UNL     1       5.259   6.907  16.280  0.00  0.00    +0.000 C 
ATOM      5  C   UNL     1       7.090   7.873  17.609  0.00  0.00    +0.000 C 
ATOM      6  O   UNL     1       7.632   5.959  16.361  0.00  0.00    +0.000 OA
ATOM      7  C   UNL     1       7.096   4.920  15.623  0.00  0.00    +0.000 A 
ATOM      8  C   UNL     1       7.570   5.047  14.307  0.00  0.00    +0.000 A 
ATOM      9  C   UNL     1       6.793   4.553  13.292  0.00  0.00    +0.000 A 
ATOM     10  C   UNL     1       5.627   3.831  13.621  0.00  0.00    +0.000 A 
ATOM     11  C   UNL     1       5.241   3.599  15.021  0.00  0.00    +0.000 A 
ATOM     12  C   UNL     1       5.959   4.169  16.111  0.00  0.00    +0.000 A 
ENDROOT
BRANCH   1  18
ATOM     13  C   UNL     1       2.872   5.382  19.536  0.00  0.00    +0.000 A 
ATOM     14  C   UNL     1       1.884   4.485  18.974  0.00  0.00    +0.000 A 
ATOM     15  C   UNL     1       2.284   3.402  18.297  0.00  0.00    +0.000 A 
ATOM     16  C   UNL     1       3.728   3.046  18.145  0.00  0.00    +0.000 A 
ATOM     17  O   UNL     1       3.981   2.037  17.475  0.00  0.00    +0.000 OA
ATOM     18  N   UNL     1       4.706   3.969  18.655  0.00  0.00    +0.000 N 
ATOM     19  C   UNL     1       4.178   5.111  19.368  0.00  0.00    +0.000 A 
BRANCH  13  23
ATOM     20  C   UNL     1       1.391   8.741  20.458  0.00  0.00    +0.000 C 
ATOM     21  C   UNL     1       2.032   7.727  19.536  0.00  0.00    +0.000 C 
ATOM     22  O   UNL     1       2.269   8.001  18.359  0.00  0.00    +0.000 OA
ATOM     23  N   UNL     1       2.300   6.512  20.134  0.00  0.00    +0.000 N 
ATOM     24  H   UNL     1       1.880   6.384  21.053  0.00  0.00    +0.000 HD
ENDBRANCH  13  23
ENDBRANCH   1  18
BRANCH  10  25
ATOM     25  C   UNL     1       4.832   3.429  12.452  0.00  0.00    +0.000 C 
ATOM     26  N   UNL     1       4.257   3.221  11.479  0.00  0.00    +0.000 NA
ENDBRANCH  10  25
TORSDOF 3
ENDMDL
MODEL 3
REMARK VINA RESULT:      -6.8      4.307      6.852
REMARK  Name = 
REMARK  6 active torsions:
REMARK  status: ('A' for Active; 'I' for Inactive)
REMARK    1  A    between atoms: C_1  and  C_2
REMARK    2  A    between atoms: N_4  and  C_5
REMARK    3  A    between atoms: N_10  and  C_11
REMARK    4  A    between atoms: C_13  and  C_14
REMARK    5  A    between atoms: C_13  and  C_15
REMARK    6  A    between atoms: C_20  and  C_21
REMARK                            x       y       z     vdW  Elec       q    Type
REMARK                         _______ _______ _______ _____ _____    ______ ____
ROOT
ATOM      1  C   UNL     1       1.545   9.105  19.887  0.00  0.00    +0.000 C 
ATOM      2  C   UNL     1       1.418   9.231  21.238  0.00  0.00    +0.000 C 
ATOM      3  C   UNL     1       0.065   9.537  21.756  0.00  0.00    +0.000 C 
ATOM      4  C   UNL     1      -1.003   8.491  21.247  0.00  0.00    +0.000 C 
ATOM      5  C   UNL     1      -0.068   9.544  23.264  0.00  0.00    +0.000 C 
ATOM      6  O   UNL     1      -0.109  10.885  21.337  0.00  0.00    +0.000 OA
ATOM      7  C   UNL     1      -0.308  10.865  19.969  0.00  0.00    +0.000 A 
ATOM      8  C   UNL     1      -1.427  11.668  19.691  0.00  0.00    +0.000 A 
ATOM      9  C   UNL     1      -2.168  11.377  18.576  0.00  0.00    +0.000 A 
ATOM     10  C   UNL     1      -1.704  10.378  17.695  0.00  0.00    +0.000 A 
ATOM     11  C   UNL     1      -0.448   9.657  17.952  0.00  0.00    +0.000 A 
ATOM     12  C   UNL     1       0.311   9.852  19.140  0.00  0.00    +0.000 A 
ENDROOT
BRANCH   1  18
ATOM     13  C   UNL     1       1.899   5.589  20.007  0.00  0.00    +0.000 A 
ATOM     14  C   UNL     1       1.999   5.302  18.591  0.00  0.00    +0.000 A 
ATOM     15  C   UNL     1       2.281   6.292  17.735  0.00  0.00    +0.000 A 
ATOM     16  C   UNL     1       2.557   7.687  18.194  0.00  0.00    +0.000 A 
ATOM     17  O   UNL     1       2.779   8.525  17.312  0.00  0.00    +0.000 OA
ATOM     18  N   UNL     1       2.401   7.979  19.594  0.00  0.00    +0.000 N 
ATOM     19  C   UNL     1       2.092   6.847  20.439  0.00  0.00    +0.000 A 
BRANCH  13  23
ATOM     20  C   UNL     1       1.544   2.315  21.874  0.00  0.00    +0.000 C 
ATOM     21  C   UNL     1       2.248   3.333  21.003  0.00  0.00    +0.000 C 
ATOM     22  O   UNL     1       3.385   3.124  20.576  0.00  0.00    +0.000 OA
ATOM     23  N   UNL     1       1.510   4.473  20.760  0.00  0.00    +0.000 N 
ATOM     24  H   UNL     1       0.672   4.571  21.329  0.00  0.00    +0.000 HD
ENDBRANCH  13  23
ENDBRANCH   1  18
BRANCH  10  25
ATOM     25  C   UNL     1      -2.625  10.094  16.586  0.00  0.00    +0.000 C 
ATOM     26  N   UNL     1      -3.244   9.894  15.638  0.00  0.00    +0.000 NA
ENDBRANCH  10  25
TORSDOF 3
ENDMDL
MODEL 4
REMARK VINA RESULT:      -6.7      2.461      5.176
REMARK  Name = 
REMARK  6 active torsions:
REMARK  status: ('A' for Active; 'I' for Inactive)
REMARK    1  A    between atoms: C_1  and  C_2
REMARK    2  A    between atoms: N_4  and  C_5
REMARK    3  A    between atoms: N_10  and  C_11
REMARK    4  A    between atoms: C_13  and  C_14
REMARK    5  A    between atoms: C_13  and  C_15
REMARK    6  A    between atoms: C_20  and  C_21
REMARK                            x       y       z     vdW  Elec       q    Type
REMARK                         _______ _______ _______ _____ _____    ______ ____
ROOT
ATOM      1  C   UNL     1       3.584   4.801  17.443  0.00  0.00    +0.000 C 
ATOM      2  C   UNL     1       2.815   5.888  17.736  0.00  0.00    +0.000 C 
ATOM      3  C   UNL     1       2.512   6.126  19.166  0.00  0.00    +0.000 C 
ATOM      4  C   UNL     1       3.829   6.193  20.036  0.00  0.00    +0.000 C 
ATOM      5  C   UNL     1       1.765   7.407  19.468  0.00  0.00    +0.000 C 
ATOM      6  O   UNL     1       1.609   5.064  19.453  0.00  0.00    +0.000 OA
ATOM      7  C   UNL     1       2.349   3.897  19.492  0.00  0.00    +0.000 A 
ATOM      8  C   UNL     1       1.990   3.206  20.660  0.00  0.00    +0.000 A 
ATOM      9  C   UNL     1       2.920   2.377  21.230  0.00  0.00    +0.000 A 
ATOM     10  C   UNL     1       4.136   2.155  20.552  0.00  0.00    +0.000 A 
ATOM     11  C   UNL     1       4.416   2.791  19.256  0.00  0.00    +0.000 A 
ATOM     12  C   UNL     1       3.527   3.734  18.666  0.00  0.00    +0.000 A 
ENDROOT
BRANCH   1  18
ATOM     13  C   UNL     1       6.468   6.705  16.695  0.00  0.00    +0.000 A 
ATOM     14  C   UNL     1       7.395   5.636  16.383  0.00  0.00    +0.000 A 
ATOM     15  C   UNL     1       6.926   4.412  16.114  0.00  0.00    +0.000 A 
ATOM     16  C   UNL     1       5.462   4.113  16.065  0.00  0.00    +0.000 A 
ATOM     17  O   UNL     1       5.145   2.940  15.834  0.00  0.00    +0.000 OA
ATOM     18  N   UNL     1       4.548   5.163  16.430  0.00  0.00    +0.000 N 
ATOM     19  C   UNL     1       5.148   6.448  16.707  0.00  0.00    +0.000 A 
BRANCH  13  23
ATOM     20  C   UNL     1       8.548   9.505  18.165  0.00  0.00    +0.000 C 
ATOM     21  C   UNL     1       8.016   8.092  18.068  0.00  0.00    +0.000 C 
ATOM     22  O   UNL     1       8.388   7.218  18.853  0.00  0.00    +0.000 OA
ATOM     23  N   UNL     1       7.114   7.898  17.041  0.00  0.00    +0.000 N 
ATOM     24  H   UNL     1       7.052   8.666  16.375  0.00  0.00    +0.000 HD
ENDBRANCH  13  23
ENDBRANCH   1  18
BRANCH  10  25
ATOM     25  C   UNL     1       5.086   1.320  21.301  0.00  0.00    +0.000 C 
ATOM     26  N   UNL     1       5.888   0.778  21.921  0.00  0.00    +0.000 NA
ENDBRANCH  10  25
TORSDOF 3
ENDMDL
MODEL 5
REMARK VINA RESULT:      -6.6      8.446     10.685
REMARK  Name = 
REMARK  6 active torsions:
REMARK  status: ('A' for Active; 'I' for Inactive)
REMARK    1  A    between atoms: C_1  and  C_2
REMARK    2  A    between atoms: N_4  and  C_5
REMARK    3  A    between atoms: N_10  and  C_11
REMARK    4  A    between atoms: C_13  and  C_14
REMARK    5  A    between atoms: C_13  and  C_15
REMARK    6  A    between atoms: C_20  and  C_21
REMARK                            x       y       z     vdW  Elec       q    Type
REMARK                         _______ _______ _______ _____ _____    ______ ____
ROOT
ATOM      1  C   UNL     1      -1.014  11.056  19.184  0.00  0.00    +0.000 C 
ATOM      2  C   UNL     1      -0.877  10.459  20.401  0.00  0.00    +0.000 C 
ATOM      3  C   UNL     1      -0.634  11.351  21.559  0.00  0.00    +0.000 C 
ATOM      4  C   UNL     1      -1.741  12.472  21.670  0.00  0.00    +0.000 C 
ATOM      5  C   UNL     1      -0.614  10.671  22.911  0.00  0.00    +0.000 C 
ATOM      6  O   UNL     1       0.697  11.788  21.315  0.00  0.00    +0.000 OA
ATOM      7  C   UNL     1       0.650  12.675  20.255  0.00  0.00    +0.000 A 
ATOM      8  C   UNL     1       1.390  13.811  20.620  0.00  0.00    +0.000 A 
ATOM      9  C   UNL     1       1.046  15.012  20.057  0.00  0.00    +0.000 A 
ATOM     10  C   UNL     1       0.061  15.031  19.048  0.00  0.00    +0.000 A 
ATOM     11  C   UNL     1      -0.591  13.793  18.594  0.00  0.00    +0.000 A 
ATOM     12  C   UNL     1      -0.342  12.534  19.209  0.00  0.00    +0.000 A 
ENDROOT
BRANCH   1  18
ATOM     13  C   UNL     1      -4.051  11.555  17.443  0.00  0.00    +0.000 A 
ATOM     14  C   UNL     1      -3.665  11.076  16.131  0.00  0.00    +0.000 A 
ATOM     15  C   UNL     1      -2.567  10.323  15.999  0.00  0.00    +0.000 A 
ATOM     16  C   UNL     1      -1.744   9.902  17.174  0.00  0.00    +0.000 A 
ATOM     17  O   UNL     1      -0.735   9.230  16.930  0.00  0.00    +0.000 OA
ATOM     18  N   UNL     1      -2.099  10.426  18.466  0.00  0.00    +0.000 N 
ATOM     19  C   UNL     1      -3.298  11.232  18.509  0.00  0.00    +0.000 A 
BRANCH  13  23
ATOM     20  C   UNL     1      -7.440  13.234  17.599  0.00  0.00    +0.000 C 
ATOM     21  C   UNL     1      -6.468  12.082  17.731  0.00  0.00    +0.000 C 
ATOM     22  O   UNL     1      -6.848  10.972  18.108  0.00  0.00    +0.000 OA
ATOM     23  N   UNL     1      -5.166  12.401  17.404  0.00  0.00    +0.000 N 
ATOM     24  H   UNL     1      -4.984  13.397  17.290  0.00  0.00    +0.000 HD
ENDBRANCH  13  23
ENDBRANCH   1  18
BRANCH  10  25
ATOM     25  C   UNL     1      -0.284  16.382  18.584  0.00  0.00    +0.000 C 
ATOM     26  N   UNL     1      -0.630  17.380  18.132  0.00  0.00    +0.000 NA
ENDBRANCH  10  25
TORSDOF 3
ENDMDL
MODEL 6
REMARK VINA RESULT:      -6.5      2.856      6.853
REMARK  Name = 
REMARK  6 active torsions:
REMARK  status: ('A' for Active; 'I' for Inactive)
REMARK    1  A    between atoms: C_1  and  C_2
REMARK    2  A    between atoms: N_4  and  C_5
REMARK    3  A    between atoms: N_10  and  C_11
REMARK    4  A    between atoms: C_13  and  C_14
REMARK    5  A    between atoms: C_13  and  C_15
REMARK    6  A    between atoms: C_20  and  C_21
REMARK                            x       y       z     vdW  Elec       q    Type
REMARK                         _______ _______ _______ _____ _____    ______ ____
ROOT
ATOM      1  C   UNL     1       2.055   6.889  18.591  0.00  0.00    +0.000 C 
ATOM      2  C   UNL     1       1.474   6.055  19.499  0.00  0.00    +0.000 C 
ATOM      3  C   UNL     1       2.196   4.800  19.810  0.00  0.00    +0.000 C 
ATOM      4  C   UNL     1       3.682   5.083  20.266  0.00  0.00    +0.000 C 
ATOM      5  C   UNL     1       1.591   3.959  20.913  0.00  0.00    +0.000 C 
ATOM      6  O   UNL     1       2.025   4.060  18.608  0.00  0.00    +0.000 OA
ATOM      7  C   UNL     1       2.834   4.643  17.650  0.00  0.00    +0.000 A 
ATOM      8  C   UNL     1       3.556   3.615  17.022  0.00  0.00    +0.000 A 
ATOM      9  C   UNL     1       4.781   3.920  16.490  0.00  0.00    +0.000 A 
ATOM     10  C   UNL     1       5.200   5.267  16.480  0.00  0.00    +0.000 A 
ATOM     11  C   UNL     1       4.348   6.336  17.023  0.00  0.00    +0.000 A 
ATOM     12  C   UNL     1       3.110   6.064  17.673  0.00  0.00    +0.000 A 
ENDROOT
BRANCH   1  18
ATOM     13  C   UNL     1       0.167   9.875  18.431  0.00  0.00    +0.000 A 
ATOM     14  C   UNL     1      -0.257   9.972  19.813  0.00  0.00    +0.000 A 
ATOM     15  C   UNL     1       0.373   9.255  20.750  0.00  0.00    +0.000 A 
ATOM     16  C   UNL     1       1.551   8.390  20.433  0.00  0.00    +0.000 A 
ATOM     17  O   UNL     1       2.036   7.752  21.374  0.00  0.00    +0.000 OA
ATOM     18  N   UNL     1       1.933   8.253  19.053  0.00  0.00    +0.000 N 
ATOM     19  C   UNL     1       1.191   9.064  18.113  0.00  0.00    +0.000 A 
BRANCH  13  23
ATOM     20  C   UNL     1      -2.566  11.365  16.277  0.00  0.00    +0.000 C 
ATOM     21  C   UNL     1      -1.965  10.365  17.241  0.00  0.00    +0.000 C 
ATOM     22  O   UNL     1      -2.634   9.429  17.683  0.00  0.00    +0.000 OA
ATOM     23  N   UNL     1      -0.646  10.612  17.561  0.00  0.00    +0.000 N 
ATOM     24  H   UNL     1      -0.294  11.519  17.260  0.00  0.00    +0.000 HD
ENDBRANCH  13  23
ENDBRANCH   1  18
BRANCH  10  25
ATOM     25  C   UNL     1       6.563   5.458  15.966  0.00  0.00    +0.000 C 
ATOM     26  N   UNL     1       7.580   5.583  15.446  0.00  0.00    +0.000 NA
ENDBRANCH  10  25
TORSDOF 3
ENDMDL
MODEL 7
REMARK VINA RESULT:      -6.4      7.468     10.231
REMARK  Name = 
REMARK  6 active torsions:
REMARK  status: ('A' for Active; 'I' for Inactive)
REMARK    1  A    between atoms: C_1  and  C_2
REMARK    2  A    between atoms: N_4  and  C_5
REMARK    3  A    between atoms: N_10  and  C_11
REMARK    4  A    between atoms: C_13  and  C_14
REMARK    5  A    between atoms: C_13  and  C_15
REMARK    6  A    between atoms: C_20  and  C_21
REMARK                            x       y       z     vdW  Elec       q    Type
REMARK                         _______ _______ _______ _____ _____    ______ ____
ROOT
ATOM      1  C   UNL     1      -0.787  12.047  21.621  0.00  0.00    +0.000 C 
ATOM      2  C   UNL     1      -1.643  11.910  22.673  0.00  0.00    +0.000 C 
ATOM      3  C   UNL     1      -2.579  13.030  22.923  0.00  0.00    +0.000 C 
ATOM      4  C   UNL     1      -3.420  13.383  21.633  0.00  0.00    +0.000 C 
ATOM      5  C   UNL     1      -3.600  12.793  24.015  0.00  0.00    +0.000 C 
ATOM      6  O   UNL     1      -1.703  14.038  23.411  0.00  0.00    +0.000 OA
ATOM      7  C   UNL     1      -0.965  14.496  22.335  0.00  0.00    +0.000 A 
ATOM      8  C   UNL     1      -1.005  15.899  22.361  0.00  0.00    +0.000 A 
ATOM      9  C   UNL     1      -0.879  16.570  21.173  0.00  0.00    +0.000 A 
ATOM     10  C   UNL     1      -0.587  15.833  20.006  0.00  0.00    +0.000 A 
ATOM     11  C   UNL     1      -0.414  14.373  20.048  0.00  0.00    +0.000 A 
ATOM     12  C   UNL     1      -0.626  13.617  21.236  0.00  0.00    +0.000 A 
ENDROOT
BRANCH   1  18
ATOM     13  C   UNL     1      -0.818  10.480  18.451  0.00  0.00    +0.000 A 
ATOM     14  C   UNL     1       0.513   9.908  18.446  0.00  0.00    +0.000 A 
ATOM     15  C   UNL     1       1.186   9.790  19.596  0.00  0.00    +0.000 A 
ATOM     16  C   UNL     1       0.589  10.176  20.912  0.00  0.00    +0.000 A 
ATOM     17  O   UNL     1       1.314  10.049  21.906  0.00  0.00    +0.000 OA
ATOM     18  N   UNL     1      -0.709  10.794  20.906  0.00  0.00    +0.000 N 
ATOM     19  C   UNL     1      -1.357  10.882  19.616  0.00  0.00    +0.000 A 
BRANCH  13  23
ATOM     20  C   UNL     1      -2.847  10.456  15.256  0.00  0.00    +0.000 C 
ATOM     21  C   UNL     1      -2.547  10.108  16.698  0.00  0.00    +0.000 C 
ATOM     22  O   UNL     1      -3.332   9.430  17.363  0.00  0.00    +0.000 OA
ATOM     23  N   UNL     1      -1.353  10.620  17.165  0.00  0.00    +0.000 N 
ATOM     24  H   UNL     1      -0.913  11.305  16.555  0.00  0.00    +0.000 HD
ENDBRANCH  13  23
ENDBRANCH   1  18
BRANCH  10  25
ATOM     25  C   UNL     1      -0.563  16.647  18.783  0.00  0.00    +0.000 C 
ATOM     26  N   UNL     1      -0.675  17.282  17.832  0.00  0.00    +0.000 NA
ENDBRANCH  10  25
TORSDOF 3
ENDMDL
MODEL 8
REMARK VINA RESULT:      -6.4      6.953     10.809
REMARK  Name = 
REMARK  6 active torsions:
REMARK  status: ('A' for Active; 'I' for Inactive)
REMARK    1  A    between atoms: C_1  and  C_2
REMARK    2  A    between atoms: N_4  and  C_5
REMARK    3  A    between atoms: N_10  and  C_11
REMARK    4  A    between atoms: C_13  and  C_14
REMARK    5  A    between atoms: C_13  and  C_15
REMARK    6  A    between atoms: C_20  and  C_21
REMARK                            x       y       z     vdW  Elec       q    Type
REMARK                         _______ _______ _______ _____ _____    ______ ____
ROOT
ATOM      1  C   UNL     1       1.199  12.527  19.491  0.00  0.00    +0.000 C 
ATOM      2  C   UNL     1       1.612  11.468  18.739  0.00  0.00    +0.000 C 
ATOM      3  C   UNL     1       0.897  10.187  18.939  0.00  0.00    +0.000 C 
ATOM      4  C   UNL     1      -0.662  10.356  18.755  0.00  0.00    +0.000 C 
ATOM      5  C   UNL     1       1.293   9.068  18.000  0.00  0.00    +0.000 C 
ATOM      6  O   UNL     1       1.351   9.800  20.230  0.00  0.00    +0.000 OA
ATOM      7  C   UNL     1       0.737  10.633  21.147  0.00  0.00    +0.000 A 
ATOM      8  C   UNL     1       0.211   9.826  22.168  0.00  0.00    +0.000 A 
ATOM      9  C   UNL     1      -0.887  10.283  22.849  0.00  0.00    +0.000 A 
ATOM     10  C   UNL     1      -1.354  11.587  22.586  0.00  0.00    +0.000 A 
ATOM     11  C   UNL     1      -0.685  12.455  21.605  0.00  0.00    +0.000 A 
ATOM     12  C   UNL     1       0.399  11.999  20.803  0.00  0.00    +0.000 A 
ENDROOT
BRANCH   1  18
ATOM     13  C   UNL     1      -0.270  15.705  18.998  0.00  0.00    +0.000 A 
ATOM     14  C   UNL     1       0.900  16.544  19.149  0.00  0.00    +0.000 A 
ATOM     15  C   UNL     1       2.120  15.999  19.063  0.00  0.00    +0.000 A 
ATOM     16  C   UNL     1       2.324  14.550  18.757  0.00  0.00    +0.000 A 
ATOM     17  O   UNL     1       3.495  14.151  18.730  0.00  0.00    +0.000 OA
ATOM     18  N   UNL     1       1.160  13.711  18.664  0.00  0.00    +0.000 N 
ATOM     19  C   UNL     1      -0.112  14.389  18.773  0.00  0.00    +0.000 A 
BRANCH  13  23
ATOM     20  C   UNL     1      -3.422  17.367  20.275  0.00  0.00    +0.000 C 
ATOM     21  C   UNL     1      -2.169  16.528  20.386  0.00  0.00    +0.000 C 
ATOM     22  O   UNL     1      -1.835  16.024  21.459  0.00  0.00    +0.000 OA
ATOM     23  N   UNL     1      -1.467  16.403  19.203  0.00  0.00    +0.000 N 
ATOM     24  H   UNL     1      -1.772  17.024  18.457  0.00  0.00    +0.000 HD
ENDBRANCH  13  23
ENDBRANCH   1  18
BRANCH  10  25
ATOM     25  C   UNL     1      -2.586  11.931  23.310  0.00  0.00    +0.000 C 
ATOM     26  N   UNL     1      -3.537  12.085  23.937  0.00  0.00    +0.000 NA
ENDBRANCH  10  25
TORSDOF 3
ENDMDL
MODEL 9
REMARK VINA RESULT:      -6.3      2.553      4.090
REMARK  Name = 
REMARK  6 active torsions:
REMARK  status: ('A' for Active; 'I' for Inactive)
REMARK    1  A    between atoms: C_1  and  C_2
REMARK    2  A    between atoms: N_4  and  C_5
REMARK    3  A    between atoms: N_10  and  C_11
REMARK    4  A    between atoms: C_13  and  C_14
REMARK    5  A    between atoms: C_13  and  C_15
REMARK    6  A    between atoms: C_20  and  C_21
REMARK                            x       y       z     vdW  Elec       q    Type
REMARK                         _______ _______ _______ _____ _____    ______ ____
ROOT
ATOM      1  C   UNL     1       5.922   5.196  15.425  0.00  0.00    +0.000 C 
ATOM      2  C   UNL     1       6.829   6.020  16.021  0.00  0.00    +0.000 C 
ATOM      3  C   UNL     1       6.693   6.218  17.483  0.00  0.00    +0.000 C 
ATOM      4  C   UNL     1       6.680   4.841  18.256  0.00  0.00    +0.000 C 
ATOM      5  C   UNL     1       7.789   7.034  18.133  0.00  0.00    +0.000 C 
ATOM      6  O   UNL     1       5.512   7.006  17.560  0.00  0.00    +0.000 OA
ATOM      7  C   UNL     1       4.445   6.176  17.268  0.00  0.00    +0.000 A 
ATOM      8  C   UNL     1       3.467   6.380  18.254  0.00  0.00    +0.000 A 
ATOM      9  C   UNL     1       2.620   5.342  18.546  0.00  0.00    +0.000 A 
ATOM     10  C   UNL     1       2.683   4.174  17.758  0.00  0.00    +0.000 A 
ATOM     11  C   UNL     1       3.631   4.057  16.639  0.00  0.00    +0.000 A 
ATOM     12  C   UNL     1       4.596   5.064  16.353  0.00  0.00    +0.000 A 
ENDROOT
BRANCH   1  18
ATOM     13  C   UNL     1       5.657   3.418  12.380  0.00  0.00    +0.000 A 
ATOM     14  C   UNL     1       6.642   4.129  11.592  0.00  0.00    +0.000 A 
ATOM     15  C   UNL     1       7.547   4.902  12.206  0.00  0.00    +0.000 A 
ATOM     16  C   UNL     1       7.617   5.016  13.695  0.00  0.00    +0.000 A 
ATOM     17  O   UNL     1       8.476   5.781  14.150  0.00  0.00    +0.000 OA
ATOM     18  N   UNL     1       6.603   4.353  14.469  0.00  0.00    +0.000 N 
ATOM     19  C   UNL     1       5.668   3.545  13.718  0.00  0.00    +0.000 A 
BRANCH  13  23
ATOM     20  C   UNL     1       2.916   2.249  10.045  0.00  0.00    +0.000 C 
ATOM     21  C   UNL     1       3.750   3.273  10.785  0.00  0.00    +0.000 C 
ATOM     22  O   UNL     1       3.544   4.479  10.644  0.00  0.00    +0.000 OA
ATOM     23  N   UNL     1       4.728   2.728  11.591  0.00  0.00    +0.000 N 
ATOM     24  H   UNL     1       4.888   1.731  11.457  0.00  0.00    +0.000 HD
ENDBRANCH  13  23
ENDBRANCH   1  18
BRANCH  10  25
ATOM     25  C   UNL     1       1.791   3.101  18.219  0.00  0.00    +0.000 C 
ATOM     26  N   UNL     1       1.033   2.353  18.652  0.00  0.00    +0.000 NA
ENDBRANCH  10  25
TORSDOF 3
ENDMDL
