MODEL 1
REMARK VINA RESULT:      -7.3      0.000      0.000
REMARK  Name = 
REMARK  6 active torsions:
REMARK  status: ('A' for Active; 'I' for Inactive)
REMARK    1  A    between atoms: N_1  and  C_2
REMARK    2  A    between atoms: C_2  and  C_3
REMARK    3  A    between atoms: C_2  and  C_9
REMARK    4  A    between atoms: N_16  and  C_17
REMARK    5  A    between atoms: C_17  and  C_18
REMARK    6  A    between atoms: C_17  and  C_24
REMARK                            x       y       z     vdW  Elec       q    Type
REMARK                         _______ _______ _______ _____ _____    ______ ____
ROOT
ATOM      1  C   UNL     1      -4.709  13.597  22.060  0.00  0.00    +0.000 A 
ATOM      2  C   UNL     1      -5.280  13.405  23.308  0.00  0.00    +0.000 A 
ATOM      3  S   UNL     1      -4.173  12.600  24.353  0.00  0.00    +0.000 S 
ATOM      4  C   UNL     1      -3.073  12.495  23.065  0.00  0.00    +0.000 A 
ATOM      5  N   UNL     1      -1.902  11.834  23.307  0.00  0.00    +0.000 N 
ATOM      6  C   UNL     1      -0.995  11.496  22.336  0.00  0.00    +0.000 C 
ATOM      7  O   UNL     1       0.058  10.950  22.648  0.00  0.00    +0.000 OA
ATOM      8  N   UNL     1      -1.353  11.765  21.057  0.00  0.00    +0.000 N 
ATOM      9  N   UNL     1      -3.440  13.038  21.930  0.00  0.00    +0.000 NA
ATOM     10  H   UNL     1      -1.689  11.549  24.251  0.00  0.00    +0.000 HD
ATOM     11  H   UNL     1      -2.272  12.166  20.911  0.00  0.00    +0.000 HD
ENDROOT
BRANCH   1  12
ATOM     12  C   UNL     1      -5.289  14.371  20.901  0.00  0.00    +0.000 C 
BRANCH  12  13
ATOM     13  C   UNL     1      -5.986  13.357  20.013  0.00  0.00    +0.000 A 
ATOM     14  C   UNL     1      -6.157  12.014  20.390  0.00  0.00    +0.000 A 
ATOM     15  C   UNL     1      -6.742  11.094  19.514  0.00  0.00    +0.000 A 
ATOM     16  C   UNL     1      -7.202  11.499  18.267  0.00  0.00    +0.000 A 
ATOM     17  C   UNL     1      -7.062  12.827  17.884  0.00  0.00    +0.000 A 
ATOM     18  C   UNL     1      -6.454  13.745  18.745  0.00  0.00    +0.000 A 
ENDBRANCH  12  13
BRANCH  12  19
ATOM     19  N   UNL     1      -4.209  15.111  20.236  0.00  0.00    +0.000 NA
ATOM     20  H   UNL     1      -4.490  15.305  19.278  0.00  0.00    +0.000 HD
ATOM     21  H   UNL     1      -3.407  14.480  20.178  0.00  0.00    +0.000 HD
ENDBRANCH  12  19
ENDBRANCH   1  12
BRANCH   8  22
ATOM     22  C   UNL     1      -0.575  11.478  19.874  0.00  0.00    +0.000 C 
BRANCH  22  23
ATOM     23  C   UNL     1      -1.562  11.132  18.750  0.00  0.00    +0.000 A 
ATOM     24  C   UNL     1      -2.815  11.757  18.616  0.00  0.00    +0.000 A 
ATOM     25  C   UNL     1      -3.688  11.409  17.583  0.00  0.00    +0.000 A 
ATOM     26  C   UNL     1      -3.355  10.390  16.700  0.00  0.00    +0.000 A 
ATOM     27  C   UNL     1      -2.130   9.740  16.828  0.00  0.00    +0.000 A 
ATOM     28  C   UNL     1      -1.239  10.111  17.841  0.00  0.00    +0.000 A 
ENDBRANCH  22  23
BRANCH  22  29
ATOM     29  C   UNL     1       0.379  12.630  19.538  0.00  0.00    +0.000 A 
ATOM     30  C   UNL     1       0.027  13.985  19.689  0.00  0.00    +0.000 A 
ATOM     31  C   UNL     1       0.897  15.001  19.284  0.00  0.00    +0.000 A 
ATOM     32  C   UNL     1       2.136  14.683  18.732  0.00  0.00    +0.000 A 
ATOM     33  C   UNL     1       2.518  13.350  18.613  0.00  0.00    +0.000 A 
ATOM     34  C   UNL     1       1.656  12.333  19.027  0.00  0.00    +0.000 A 
ENDBRANCH  22  29
ENDBRANCH   8  22
TORSDOF 6
ENDMDL
MODEL 2
REMARK VINA RESULT:      -7.2      5.922      8.216
REMARK  Name = 
REMARK  6 active torsions:
REMARK  status: ('A' for Active; 'I' for Inactive)
REMARK    1  A    between atoms: N_1  and  C_2
REMARK    2  A    between atoms: C_2  and  C_3
REMARK    3  A    between atoms: C_2  and  C_9
REMARK    4  A    between atoms: N_16  and  C_17
REMARK    5  A    between atoms: C_17  and  C_18
REMARK    6  A    between atoms: C_17  and  C_24
REMARK                            x       y       z     vdW  Elec       q    Type
REMARK                         _______ _______ _______ _____ _____    ______ ____
ROOT
ATOM      1  C   UNL     1       0.534   9.897  19.782  0.00  0.00    +0.000 A 
ATOM      2  C   UNL     1      -0.104  10.156  20.984  0.00  0.00    +0.000 A 
ATOM      3  S   UNL     1       0.303   8.953  22.147  0.00  0.00    +0.000 S 
ATOM      4  C   UNL     1       1.211   8.149  20.961  0.00  0.00    +0.000 A 
ATOM      5  N   UNL     1       1.791   6.966  21.325  0.00  0.00    +0.000 N 
ATOM      6  C   UNL     1       2.394   6.103  20.447  0.00  0.00    +0.000 C 
ATOM      7  O   UNL     1       2.938   5.087  20.866  0.00  0.00    +0.000 OA
ATOM      8  N   UNL     1       2.313   6.426  19.133  0.00  0.00    +0.000 N 
ATOM      9  N   UNL     1       1.270   8.714  19.780  0.00  0.00    +0.000 NA
ATOM     10  H   UNL     1       1.761   6.686  22.293  0.00  0.00    +0.000 HD
ATOM     11  H   UNL     1       1.789   7.260  18.896  0.00  0.00    +0.000 HD
ENDROOT
BRANCH   1  12
ATOM     12  C   UNL     1       0.549  10.768  18.551  0.00  0.00    +0.000 C 
BRANCH  12  13
ATOM     13  C   UNL     1      -0.880  10.826  18.046  0.00  0.00    +0.000 A 
ATOM     14  C   UNL     1      -1.761  11.865  18.390  0.00  0.00    +0.000 A 
ATOM     15  C   UNL     1      -3.093  11.846  17.962  0.00  0.00    +0.000 A 
ATOM     16  C   UNL     1      -3.561  10.817  17.153  0.00  0.00    +0.000 A 
ATOM     17  C   UNL     1      -2.700   9.792  16.784  0.00  0.00    +0.000 A 
ATOM     18  C   UNL     1      -1.375   9.791  17.232  0.00  0.00    +0.000 A 
ENDBRANCH  12  13
BRANCH  12  19
ATOM     19  N   UNL     1       1.506  10.210  17.585  0.00  0.00    +0.000 NA
ATOM     20  H   UNL     1       1.730   9.258  17.864  0.00  0.00    +0.000 HD
ATOM     21  H   UNL     1       2.370  10.748  17.677  0.00  0.00    +0.000 HD
ENDBRANCH  12  19
ENDBRANCH   1  12
BRANCH   8  22
ATOM     22  C   UNL     1       2.848   5.660  18.031  0.00  0.00    +0.000 C 
BRANCH  22  23
ATOM     23  C   UNL     1       4.360   5.917  17.987  0.00  0.00    +0.000 A 
ATOM     24  C   UNL     1       5.253   5.380  18.932  0.00  0.00    +0.000 A 
ATOM     25  C   UNL     1       6.623   5.642  18.861  0.00  0.00    +0.000 A 
ATOM     26  C   UNL     1       7.122   6.494  17.884  0.00  0.00    +0.000 A 
ATOM     27  C   UNL     1       6.254   7.058  16.953  0.00  0.00    +0.000 A 
ATOM     28  C   UNL     1       4.886   6.768  17.001  0.00  0.00    +0.000 A 
ENDBRANCH  22  23
BRANCH  22  29
ATOM     29  C   UNL     1       2.466   4.179  18.141  0.00  0.00    +0.000 A 
ATOM     30  C   UNL     1       1.164   3.745  18.452  0.00  0.00    +0.000 A 
ATOM     31  C   UNL     1       0.885   2.387  18.630  0.00  0.00    +0.000 A 
ATOM     32  C   UNL     1       1.897   1.440  18.491  0.00  0.00    +0.000 A 
ATOM     33  C   UNL     1       3.181   1.847  18.143  0.00  0.00    +0.000 A 
ATOM     34  C   UNL     1       3.461   3.202  17.954  0.00  0.00    +0.000 A 
ENDBRANCH  22  29
ENDBRANCH   8  22
TORSDOF 6
ENDMDL
MODEL 3
REMARK VINA RESULT:      -7.0      2.494      4.993
REMARK  Name = 
REMARK  6 active torsions:
REMARK  status: ('A' for Active; 'I' for Inactive)
REMARK    1  A    between atoms: N_1  and  C_2
REMARK    2  A    between atoms: C_2  and  C_3
REMARK    3  A    between atoms: C_2  and  C_9
REMARK    4  A    between atoms: N_16  and  C_17
REMARK    5  A    between atoms: C_17  and  C_18
REMARK    6  A    between atoms: C_17  and  C_24
REMARK                            x       y       z     vdW  Elec       q    Type
REMARK                         _______ _______ _______ _____ _____    ______ ____
ROOT
ATOM      1  C   UNL     1      -5.156  13.088  20.158  0.00  0.00    +0.000 A 
ATOM      2  C   UNL     1      -6.227  13.198  19.285  0.00  0.00    +0.000 A 
ATOM      3  S   UNL     1      -5.931  12.277  17.861  0.00  0.00    +0.000 S 
ATOM      4  C   UNL     1      -4.397  11.879  18.467  0.00  0.00    +0.000 A 
ATOM      5  N   UNL     1      -3.591  11.127  17.659  0.00  0.00    +0.000 N 
ATOM      6  C   UNL     1      -2.266  10.879  17.910  0.00  0.00    +0.000 C 
ATOM      7  O   UNL     1      -1.630  10.146  17.159  0.00  0.00    +0.000 OA
ATOM      8  N   UNL     1      -1.729  11.508  18.983  0.00  0.00    +0.000 N 
ATOM      9  N   UNL     1      -4.093  12.342  19.654  0.00  0.00    +0.000 NA
ATOM     10  H   UNL     1      -3.975  10.742  16.809  0.00  0.00    +0.000 HD
ATOM     11  H   UNL     1      -2.333  12.135  19.499  0.00  0.00    +0.000 HD
ENDROOT
BRANCH   1  12
ATOM     12  C   UNL     1      -5.066  13.632  21.563  0.00  0.00    +0.000 C 
BRANCH  12  13
ATOM     13  C   UNL     1      -3.773  14.422  21.637  0.00  0.00    +0.000 A 
ATOM     14  C   UNL     1      -2.675  14.003  22.408  0.00  0.00    +0.000 A 
ATOM     15  C   UNL     1      -1.526  14.795  22.505  0.00  0.00    +0.000 A 
ATOM     16  C   UNL     1      -1.431  15.993  21.808  0.00  0.00    +0.000 A 
ATOM     17  C   UNL     1      -2.496  16.413  21.022  0.00  0.00    +0.000 A 
ATOM     18  C   UNL     1      -3.659  15.640  20.943  0.00  0.00    +0.000 A 
ENDBRANCH  12  13
BRANCH  12  19
ATOM     19  N   UNL     1      -5.141  12.512  22.512  0.00  0.00    +0.000 NA
ATOM     20  H   UNL     1      -4.657  12.778  23.366  0.00  0.00    +0.000 HD
ATOM     21  H   UNL     1      -4.605  11.742  22.106  0.00  0.00    +0.000 HD
ENDBRANCH  12  19
ENDBRANCH   1  12
BRANCH   8  22
ATOM     22  C   UNL     1      -0.357  11.419  19.425  0.00  0.00    +0.000 C 
BRANCH  22  23
ATOM     23  C   UNL     1       0.216  12.843  19.430  0.00  0.00    +0.000 A 
ATOM     24  C   UNL     1       1.305  13.225  20.234  0.00  0.00    +0.000 A 
ATOM     25  C   UNL     1       1.793  14.533  20.215  0.00  0.00    +0.000 A 
ATOM     26  C   UNL     1       1.168  15.501  19.439  0.00  0.00    +0.000 A 
ATOM     27  C   UNL     1       0.072  15.152  18.654  0.00  0.00    +0.000 A 
ATOM     28  C   UNL     1      -0.396  13.834  18.645  0.00  0.00    +0.000 A 
ENDBRANCH  22  23
BRANCH  22  29
ATOM     29  C   UNL     1      -0.249  10.695  20.773  0.00  0.00    +0.000 A 
ATOM     30  C   UNL     1      -1.037  11.033  21.889  0.00  0.00    +0.000 A 
ATOM     31  C   UNL     1      -0.840  10.407  23.122  0.00  0.00    +0.000 A 
ATOM     32  C   UNL     1       0.139   9.426  23.260  0.00  0.00    +0.000 A 
ATOM     33  C   UNL     1       0.900   9.048  22.158  0.00  0.00    +0.000 A 
ATOM     34  C   UNL     1       0.698   9.665  20.922  0.00  0.00    +0.000 A 
ENDBRANCH  22  29
ENDBRANCH   8  22
TORSDOF 6
ENDMDL
MODEL 4
REMARK VINA RESULT:      -7.0      5.891      8.211
REMARK  Name = 
REMARK  6 active torsions:
REMARK  status: ('A' for Active; 'I' for Inactive)
REMARK    1  A    between atoms: N_1  and  C_2
REMARK    2  A    between atoms: C_2  and  C_3
REMARK    3  A    between atoms: C_2  and  C_9
REMARK    4  A    between atoms: N_16  and  C_17
REMARK    5  A    between atoms: C_17  and  C_18
REMARK    6  A    between atoms: C_17  and  C_24
REMARK                            x       y       z     vdW  Elec       q    Type
REMARK                         _______ _______ _______ _____ _____    ______ ____
ROOT
ATOM      1  C   UNL     1       0.469   9.918  19.778  0.00  0.00    +0.000 A 
ATOM      2  C   UNL     1      -0.187  10.189  20.969  0.00  0.00    +0.000 A 
ATOM      3  S   UNL     1       0.212   9.004  22.152  0.00  0.00    +0.000 S 
ATOM      4  C   UNL     1       1.141   8.191  20.988  0.00  0.00    +0.000 A 
ATOM      5  N   UNL     1       1.723   7.016  21.375  0.00  0.00    +0.000 N 
ATOM      6  C   UNL     1       2.343   6.146  20.515  0.00  0.00    +0.000 C 
ATOM      7  O   UNL     1       2.888   5.139  20.955  0.00  0.00    +0.000 OA
ATOM      8  N   UNL     1       2.277   6.451  19.197  0.00  0.00    +0.000 N 
ATOM      9  N   UNL     1       1.212   8.740  19.801  0.00  0.00    +0.000 NA
ATOM     10  H   UNL     1       1.682   6.748  22.346  0.00  0.00    +0.000 HD
ATOM     11  H   UNL     1       1.752   7.279  18.942  0.00  0.00    +0.000 HD
ENDROOT
BRANCH   1  12
ATOM     12  C   UNL     1       0.494  10.775  18.536  0.00  0.00    +0.000 C 
BRANCH  12  13
ATOM     13  C   UNL     1      -0.927  10.809  18.008  0.00  0.00    +0.000 A 
ATOM     14  C   UNL     1      -1.829  11.836  18.334  0.00  0.00    +0.000 A 
ATOM     15  C   UNL     1      -3.153  11.795  17.883  0.00  0.00    +0.000 A 
ATOM     16  C   UNL     1      -3.592  10.759  17.070  0.00  0.00    +0.000 A 
ATOM     17  C   UNL     1      -2.709   9.745  16.717  0.00  0.00    +0.000 A 
ATOM     18  C   UNL     1      -1.392   9.766  17.187  0.00  0.00    +0.000 A 
ENDBRANCH  12  13
BRANCH  12  19
ATOM     19  N   UNL     1       1.473  10.215  17.594  0.00  0.00    +0.000 NA
ATOM     20  H   UNL     1       1.203   9.259  17.375  0.00  0.00    +0.000 HD
ATOM     21  H   UNL     1       2.364  10.156  18.090  0.00  0.00    +0.000 HD
ENDBRANCH  12  19
ENDBRANCH   1  12
BRANCH   8  22
ATOM     22  C   UNL     1       2.831   5.675  18.112  0.00  0.00    +0.000 C 
BRANCH  22  23
ATOM     23  C   UNL     1       4.331   5.996  18.040  0.00  0.00    +0.000 A 
ATOM     24  C   UNL     1       4.885   6.834  17.056  0.00  0.00    +0.000 A 
ATOM     25  C   UNL     1       6.257   7.096  17.021  0.00  0.00    +0.000 A 
ATOM     26  C   UNL     1       7.110   6.479  17.926  0.00  0.00    +0.000 A 
ATOM     27  C   UNL     1       6.587   5.625  18.894  0.00  0.00    +0.000 A 
ATOM     28  C   UNL     1       5.209   5.389  18.954  0.00  0.00    +0.000 A 
ENDBRANCH  22  23
BRANCH  22  29
ATOM     29  C   UNL     1       2.516   4.183  18.273  0.00  0.00    +0.000 A 
ATOM     30  C   UNL     1       3.473   3.172  18.066  0.00  0.00    +0.000 A 
ATOM     31  C   UNL     1       3.116   1.823  18.136  0.00  0.00    +0.000 A 
ATOM     32  C   UNL     1       1.802   1.460  18.423  0.00  0.00    +0.000 A 
ATOM     33  C   UNL     1       0.851   2.446  18.671  0.00  0.00    +0.000 A 
ATOM     34  C   UNL     1       1.207   3.794  18.613  0.00  0.00    +0.000 A 
ENDBRANCH  22  29
ENDBRANCH   8  22
TORSDOF 6
ENDMDL
MODEL 5
REMARK VINA RESULT:      -7.0      2.428      5.574
REMARK  Name = 
REMARK  6 active torsions:
REMARK  status: ('A' for Active; 'I' for Inactive)
REMARK    1  A    between atoms: N_1  and  C_2
REMARK    2  A    between atoms: C_2  and  C_3
REMARK    3  A    between atoms: C_2  and  C_9
REMARK    4  A    between atoms: N_16  and  C_17
REMARK    5  A    between atoms: C_17  and  C_18
REMARK    6  A    between atoms: C_17  and  C_24
REMARK                            x       y       z     vdW  Elec       q    Type
REMARK                         _______ _______ _______ _____ _____    ______ ____
ROOT
ATOM      1  C   UNL     1      -2.261  13.182  22.661  0.00  0.00    +0.000 A 
ATOM      2  C   UNL     1      -2.464  13.684  23.937  0.00  0.00    +0.000 A 
ATOM      3  S   UNL     1      -4.113  13.496  24.396  0.00  0.00    +0.000 S 
ATOM      4  C   UNL     1      -4.441  12.853  22.861  0.00  0.00    +0.000 A 
ATOM      5  N   UNL     1      -5.743  12.534  22.592  0.00  0.00    +0.000 N 
ATOM      6  C   UNL     1      -6.208  12.185  21.350  0.00  0.00    +0.000 C 
ATOM      7  O   UNL     1      -7.383  11.861  21.208  0.00  0.00    +0.000 OA
ATOM      8  N   UNL     1      -5.319  12.260  20.331  0.00  0.00    +0.000 N 
ATOM      9  N   UNL     1      -3.425  12.730  22.042  0.00  0.00    +0.000 NA
ATOM     10  H   UNL     1      -6.420  12.576  23.338  0.00  0.00    +0.000 HD
ATOM     11  H   UNL     1      -4.390  12.596  20.554  0.00  0.00    +0.000 HD
ENDROOT
BRANCH   1  12
ATOM     12  C   UNL     1      -0.946  13.036  21.936  0.00  0.00    +0.000 C 
BRANCH  12  13
ATOM     13  C   UNL     1      -0.639  11.551  21.894  0.00  0.00    +0.000 A 
ATOM     14  C   UNL     1      -0.808  10.714  23.010  0.00  0.00    +0.000 A 
ATOM     15  C   UNL     1      -0.449   9.363  22.951  0.00  0.00    +0.000 A 
ATOM     16  C   UNL     1       0.046   8.813  21.775  0.00  0.00    +0.000 A 
ATOM     17  C   UNL     1       0.200   9.619  20.655  0.00  0.00    +0.000 A 
ATOM     18  C   UNL     1      -0.132  10.976  20.715  0.00  0.00    +0.000 A 
ENDBRANCH  12  13
BRANCH  12  19
ATOM     19  N   UNL     1       0.070  13.840  22.629  0.00  0.00    +0.000 NA
ATOM     20  H   UNL     1      -0.320  14.760  22.821  0.00  0.00    +0.000 HD
ATOM     21  H   UNL     1       0.836  13.985  21.969  0.00  0.00    +0.000 HD
ENDBRANCH  12  19
ENDBRANCH   1  12
BRANCH   8  22
ATOM     22  C   UNL     1      -5.586  11.967  18.941  0.00  0.00    +0.000 C 
BRANCH  22  23
ATOM     23  C   UNL     1      -6.155  13.243  18.306  0.00  0.00    +0.000 A 
ATOM     24  C   UNL     1      -6.219  14.472  18.988  0.00  0.00    +0.000 A 
ATOM     25  C   UNL     1      -6.750  15.610  18.376  0.00  0.00    +0.000 A 
ATOM     26  C   UNL     1      -7.283  15.531  17.096  0.00  0.00    +0.000 A 
ATOM     27  C   UNL     1      -7.253  14.319  16.410  0.00  0.00    +0.000 A 
ATOM     28  C   UNL     1      -6.689  13.187  17.008  0.00  0.00    +0.000 A 
ENDBRANCH  22  23
BRANCH  22  29
ATOM     29  C   UNL     1      -4.341  11.417  18.236  0.00  0.00    +0.000 A 
ATOM     30  C   UNL     1      -4.380  10.312  17.364  0.00  0.00    +0.000 A 
ATOM     31  C   UNL     1      -3.206   9.790  16.815  0.00  0.00    +0.000 A 
ATOM     32  C   UNL     1      -1.975  10.368  17.117  0.00  0.00    +0.000 A 
ATOM     33  C   UNL     1      -1.920  11.487  17.944  0.00  0.00    +0.000 A 
ATOM     34  C   UNL     1      -3.093  12.017  18.485  0.00  0.00    +0.000 A 
ENDBRANCH  22  29
ENDBRANCH   8  22
TORSDOF 6
ENDMDL
MODEL 6
REMARK VINA RESULT:      -7.0      2.505      5.730
REMARK  Name = 
REMARK  6 active torsions:
REMARK  status: ('A' for Active; 'I' for Inactive)
REMARK    1  A    between atoms: N_1  and  C_2
REMARK    2  A    between atoms: C_2  and  C_3
REMARK    3  A    between atoms: C_2  and  C_9
REMARK    4  A    between atoms: N_16  and  C_17
REMARK    5  A    between atoms: C_17  and  C_18
REMARK    6  A    between atoms: C_17  and  C_24
REMARK                            x       y       z     vdW  Elec       q    Type
REMARK                         _______ _______ _______ _____ _____    ______ ____
ROOT
ATOM      1  C   UNL     1      -2.683  13.048  22.535  0.00  0.00    +0.000 A 
ATOM      2  C   UNL     1      -2.946  13.383  23.853  0.00  0.00    +0.000 A 
ATOM      3  S   UNL     1      -4.597  13.071  24.230  0.00  0.00    +0.000 S 
ATOM      4  C   UNL     1      -4.850  12.604  22.619  0.00  0.00    +0.000 A 
ATOM      5  N   UNL     1      -6.127  12.265  22.270  0.00  0.00    +0.000 N 
ATOM      6  C   UNL     1      -6.540  12.048  20.980  0.00  0.00    +0.000 C 
ATOM      7  O   UNL     1      -7.693  11.693  20.760  0.00  0.00    +0.000 OA
ATOM      8  N   UNL     1      -5.626  12.284  20.008  0.00  0.00    +0.000 N 
ATOM      9  N   UNL     1      -3.807  12.625  21.827  0.00  0.00    +0.000 NA
ATOM     10  H   UNL     1      -6.827  12.187  22.992  0.00  0.00    +0.000 HD
ATOM     11  H   UNL     1      -4.720  12.629  20.301  0.00  0.00    +0.000 HD
ENDROOT
BRANCH   1  12
ATOM     12  C   UNL     1      -1.342  13.048  21.843  0.00  0.00    +0.000 C 
BRANCH  12  13
ATOM     13  C   UNL     1      -0.834  11.619  21.891  0.00  0.00    +0.000 A 
ATOM     14  C   UNL     1      -0.910  10.829  23.050  0.00  0.00    +0.000 A 
ATOM     15  C   UNL     1      -0.367   9.540  23.074  0.00  0.00    +0.000 A 
ATOM     16  C   UNL     1       0.224   9.000  21.939  0.00  0.00    +0.000 A 
ATOM     17  C   UNL     1       0.289   9.757  20.776  0.00  0.00    +0.000 A 
ATOM     18  C   UNL     1      -0.228  11.056  20.753  0.00  0.00    +0.000 A 
ENDBRANCH  12  13
BRANCH  12  19
ATOM     19  N   UNL     1      -0.464  14.020  22.508  0.00  0.00    +0.000 NA
ATOM     20  H   UNL     1      -0.874  14.266  23.407  0.00  0.00    +0.000 HD
ATOM     21  H   UNL     1      -0.481  14.871  21.943  0.00  0.00    +0.000 HD
ENDBRANCH  12  19
ENDBRANCH   1  12
BRANCH   8  22
ATOM     22  C   UNL     1      -5.839  12.149  18.585  0.00  0.00    +0.000 C 
BRANCH  22  23
ATOM     23  C   UNL     1      -6.328  13.508  18.065  0.00  0.00    +0.000 A 
ATOM     24  C   UNL     1      -6.843  13.688  16.769  0.00  0.00    +0.000 A 
ATOM     25  C   UNL     1      -7.273  14.942  16.331  0.00  0.00    +0.000 A 
ATOM     26  C   UNL     1      -7.142  16.053  17.154  0.00  0.00    +0.000 A 
ATOM     27  C   UNL     1      -6.611  15.904  18.433  0.00  0.00    +0.000 A 
ATOM     28  C   UNL     1      -6.213  14.641  18.887  0.00  0.00    +0.000 A 
ENDBRANCH  22  23
BRANCH  22  29
ATOM     29  C   UNL     1      -4.584  11.622  17.878  0.00  0.00    +0.000 A 
ATOM     30  C   UNL     1      -4.602  11.105  16.570  0.00  0.00    +0.000 A 
ATOM     31  C   UNL     1      -3.451  10.554  16.001  0.00  0.00    +0.000 A 
ATOM     32  C   UNL     1      -2.261  10.519  16.723  0.00  0.00    +0.000 A 
ATOM     33  C   UNL     1      -2.213  11.064  18.003  0.00  0.00    +0.000 A 
ATOM     34  C   UNL     1      -3.359  11.625  18.570  0.00  0.00    +0.000 A 
ENDBRANCH  22  29
ENDBRANCH   8  22
TORSDOF 6
ENDMDL
MODEL 7
REMARK VINA RESULT:      -6.9      2.510      5.103
REMARK  Name = 
REMARK  6 active torsions:
REMARK  status: ('A' for Active; 'I' for Inactive)
REMARK    1  A    between atoms: N_1  and  C_2
REMARK    2  A    between atoms: C_2  and  C_3
REMARK    3  A    between atoms: C_2  and  C_9
REMARK    4  A    between atoms: N_16  and  C_17
REMARK    5  A    between atoms: C_17  and  C_18
REMARK    6  A    between atoms: C_17  and  C_24
REMARK                            x       y       z     vdW  Elec       q    Type
REMARK                         _______ _______ _______ _____ _____    ______ ____
ROOT
ATOM      1  C   UNL     1      -5.102  13.019  20.159  0.00  0.00    +0.000 A 
ATOM      2  C   UNL     1      -6.199  13.157  19.323  0.00  0.00    +0.000 A 
ATOM      3  S   UNL     1      -5.965  12.253  17.877  0.00  0.00    +0.000 S 
ATOM      4  C   UNL     1      -4.417  11.825  18.425  0.00  0.00    +0.000 A 
ATOM      5  N   UNL     1      -3.651  11.073  17.580  0.00  0.00    +0.000 N 
ATOM      6  C   UNL     1      -2.322  10.802  17.782  0.00  0.00    +0.000 C 
ATOM      7  O   UNL     1      -1.722  10.072  17.000  0.00  0.00    +0.000 OA
ATOM      8  N   UNL     1      -1.739  11.407  18.845  0.00  0.00    +0.000 N 
ATOM      9  N   UNL     1      -4.067  12.265  19.608  0.00  0.00    +0.000 NA
ATOM     10  H   UNL     1      -4.068  10.706  16.738  0.00  0.00    +0.000 HD
ATOM     11  H   UNL     1      -2.317  12.036  19.391  0.00  0.00    +0.000 HD
ENDROOT
BRANCH   1  12
ATOM     12  C   UNL     1      -4.956  13.540  21.567  0.00  0.00    +0.000 C 
BRANCH  12  13
ATOM     13  C   UNL     1      -3.883  14.611  21.521  0.00  0.00    +0.000 A 
ATOM     14  C   UNL     1      -4.023  15.788  20.766  0.00  0.00    +0.000 A 
ATOM     15  C   UNL     1      -2.982  16.720  20.694  0.00  0.00    +0.000 A 
ATOM     16  C   UNL     1      -1.802  16.519  21.399  0.00  0.00    +0.000 A 
ATOM     17  C   UNL     1      -1.653  15.372  22.169  0.00  0.00    +0.000 A 
ATOM     18  C   UNL     1      -2.679  14.424  22.224  0.00  0.00    +0.000 A 
ENDBRANCH  12  13
BRANCH  12  19
ATOM     19  N   UNL     1      -4.645  12.416  22.460  0.00  0.00    +0.000 NA
ATOM     20  H   UNL     1      -3.661  12.180  22.355  0.00  0.00    +0.000 HD
ATOM     21  H   UNL     1      -5.172  11.610  22.118  0.00  0.00    +0.000 HD
ENDBRANCH  12  19
ENDBRANCH   1  12
BRANCH   8  22
ATOM     22  C   UNL     1      -0.355  11.292  19.240  0.00  0.00    +0.000 C 
BRANCH  22  23
ATOM     23  C   UNL     1       0.283  12.680  19.084  0.00  0.00    +0.000 A 
ATOM     24  C   UNL     1       1.666  12.901  19.203  0.00  0.00    +0.000 A 
ATOM     25  C   UNL     1       2.208  14.181  19.060  0.00  0.00    +0.000 A 
ATOM     26  C   UNL     1       1.374  15.274  18.856  0.00  0.00    +0.000 A 
ATOM     27  C   UNL     1      -0.002  15.082  18.760  0.00  0.00    +0.000 A 
ATOM     28  C   UNL     1      -0.543  13.796  18.867  0.00  0.00    +0.000 A 
ENDBRANCH  22  23
BRANCH  22  29
ATOM     29  C   UNL     1      -0.221  10.696  20.647  0.00  0.00    +0.000 A 
ATOM     30  C   UNL     1       0.569   9.565  20.927  0.00  0.00    +0.000 A 
ATOM     31  C   UNL     1       0.589   9.004  22.206  0.00  0.00    +0.000 A 
ATOM     32  C   UNL     1      -0.171   9.567  23.229  0.00  0.00    +0.000 A 
ATOM     33  C   UNL     1      -0.925  10.710  22.982  0.00  0.00    +0.000 A 
ATOM     34  C   UNL     1      -0.938  11.279  21.707  0.00  0.00    +0.000 A 
ENDBRANCH  22  29
ENDBRANCH   8  22
TORSDOF 6
ENDMDL
MODEL 8
REMARK VINA RESULT:      -6.9      2.477      5.068
REMARK  Name = 
REMARK  6 active torsions:
REMARK  status: ('A' for Active; 'I' for Inactive)
REMARK    1  A    between atoms: N_1  and  C_2
REMARK    2  A    between atoms: C_2  and  C_3
REMARK    3  A    between atoms: C_2  and  C_9
REMARK    4  A    between atoms: N_16  and  C_17
REMARK    5  A    between atoms: C_17  and  C_18
REMARK    6  A    between atoms: C_17  and  C_24
REMARK                            x       y       z     vdW  Elec       q    Type
REMARK                         _______ _______ _______ _____ _____    ______ ____
ROOT
ATOM      1  C   UNL     1      -2.404  16.134  20.967  0.00  0.00    +0.000 A 
ATOM      2  C   UNL     1      -1.734  17.311  21.263  0.00  0.00    +0.000 A 
ATOM      3  S   UNL     1      -0.151  17.282  20.589  0.00  0.00    +0.000 S 
ATOM      4  C   UNL     1      -0.440  15.703  20.040  0.00  0.00    +0.000 A 
ATOM      5  N   UNL     1       0.594  15.071  19.408  0.00  0.00    +0.000 N 
ATOM      6  C   UNL     1       0.593  13.740  19.074  0.00  0.00    +0.000 C 
ATOM      7  O   UNL     1       1.542  13.265  18.459  0.00  0.00    +0.000 OA
ATOM      8  N   UNL     1      -0.473  13.016  19.491  0.00  0.00    +0.000 N 
ATOM      9  N   UNL     1      -1.627  15.202  20.281  0.00  0.00    +0.000 NA
ATOM     10  H   UNL     1       1.426  15.596  19.189  0.00  0.00    +0.000 HD
ATOM     11  H   UNL     1      -1.172  13.499  20.041  0.00  0.00    +0.000 HD
ENDROOT
BRANCH   1  12
ATOM     12  C   UNL     1      -3.848  15.807  21.259  0.00  0.00    +0.000 C 
BRANCH  12  13
ATOM     13  C   UNL     1      -3.839  14.742  22.339  0.00  0.00    +0.000 A 
ATOM     14  C   UNL     1      -4.333  13.444  22.123  0.00  0.00    +0.000 A 
ATOM     15  C   UNL     1      -4.371  12.511  23.165  0.00  0.00    +0.000 A 
ATOM     16  C   UNL     1      -3.884  12.837  24.425  0.00  0.00    +0.000 A 
ATOM     17  C   UNL     1      -3.372  14.108  24.652  0.00  0.00    +0.000 A 
ATOM     18  C   UNL     1      -3.356  15.053  23.622  0.00  0.00    +0.000 A 
ENDBRANCH  12  13
BRANCH  12  19
ATOM     19  N   UNL     1      -4.502  15.392  20.011  0.00  0.00    +0.000 NA
ATOM     20  H   UNL     1      -3.974  15.768  19.227  0.00  0.00    +0.000 HD
ATOM     21  H   UNL     1      -5.415  15.850  19.987  0.00  0.00    +0.000 HD
ENDBRANCH  12  19
ENDBRANCH   1  12
BRANCH   8  22
ATOM     22  C   UNL     1      -0.680  11.602  19.279  0.00  0.00    +0.000 C 
BRANCH  22  23
ATOM     23  C   UNL     1      -0.569  10.913  20.646  0.00  0.00    +0.000 A 
ATOM     24  C   UNL     1      -0.132   9.584  20.797  0.00  0.00    +0.000 A 
ATOM     25  C   UNL     1      -0.051   8.991  22.059  0.00  0.00    +0.000 A 
ATOM     26  C   UNL     1      -0.460   9.689  23.188  0.00  0.00    +0.000 A 
ATOM     27  C   UNL     1      -0.919  10.998  23.059  0.00  0.00    +0.000 A 
ATOM     28  C   UNL     1      -0.968  11.606  21.801  0.00  0.00    +0.000 A 
ENDBRANCH  22  23
BRANCH  22  29
ATOM     29  C   UNL     1      -2.000  11.332  18.546  0.00  0.00    +0.000 A 
ATOM     30  C   UNL     1      -3.198  12.003  18.855  0.00  0.00    +0.000 A 
ATOM     31  C   UNL     1      -4.396  11.660  18.223  0.00  0.00    +0.000 A 
ATOM     32  C   UNL     1      -4.416  10.649  17.265  0.00  0.00    +0.000 A 
ATOM     33  C   UNL     1      -3.234  10.003  16.916  0.00  0.00    +0.000 A 
ATOM     34  C   UNL     1      -2.034  10.351  17.539  0.00  0.00    +0.000 A 
ENDBRANCH  22  29
ENDBRANCH   8  22
TORSDOF 6
ENDMDL
MODEL 9
REMARK VINA RESULT:      -6.8      2.490      5.188
REMARK  Name = 
REMARK  6 active torsions:
REMARK  status: ('A' for Active; 'I' for Inactive)
REMARK    1  A    between atoms: N_1  and  C_2
REMARK    2  A    between atoms: C_2  and  C_3
REMARK    3  A    between atoms: C_2  and  C_9
REMARK    4  A    between atoms: N_16  and  C_17
REMARK    5  A    between atoms: C_17  and  C_18
REMARK    6  A    between atoms: C_17  and  C_24
REMARK                            x       y       z     vdW  Elec       q    Type
REMARK                         _______ _______ _______ _____ _____    ______ ____
ROOT
ATOM      1  C   UNL     1      -4.466  13.261  21.698  0.00  0.00    +0.000 A 
ATOM      2  C   UNL     1      -5.743  13.653  21.330  0.00  0.00    +0.000 A 
ATOM      3  S   UNL     1      -6.091  13.127  19.728  0.00  0.00    +0.000 S 
ATOM      4  C   UNL     1      -4.516  12.505  19.618  0.00  0.00    +0.000 A 
ATOM      5  N   UNL     1      -4.154  11.953  18.421  0.00  0.00    +0.000 N 
ATOM      6  C   UNL     1      -2.874  11.579  18.102  0.00  0.00    +0.000 C 
ATOM      7  O   UNL     1      -2.646  11.040  17.025  0.00  0.00    +0.000 OA
ATOM      8  N   UNL     1      -1.916  11.873  19.015  0.00  0.00    +0.000 N 
ATOM      9  N   UNL     1      -3.760  12.621  20.682  0.00  0.00    +0.000 NA
ATOM     10  H   UNL     1      -4.858  11.827  17.709  0.00  0.00    +0.000 HD
ATOM     11  H   UNL     1      -2.209  12.372  19.846  0.00  0.00    +0.000 HD
ENDROOT
BRANCH   1  12
ATOM     12  C   UNL     1      -3.821  13.408  23.054  0.00  0.00    +0.000 C 
BRANCH  12  13
ATOM     13  C   UNL     1      -2.648  14.353  22.873  0.00  0.00    +0.000 A 
ATOM     14  C   UNL     1      -2.816  15.715  22.573  0.00  0.00    +0.000 A 
ATOM     15  C   UNL     1      -1.708  16.539  22.345  0.00  0.00    +0.000 A 
ATOM     16  C   UNL     1      -0.418  16.035  22.450  0.00  0.00    +0.000 A 
ATOM     17  C   UNL     1      -0.231  14.696  22.768  0.00  0.00    +0.000 A 
ATOM     18  C   UNL     1      -1.334  13.861  22.970  0.00  0.00    +0.000 A 
ENDBRANCH  12  13
BRANCH  12  19
ATOM     19  N   UNL     1      -3.449  12.076  23.551  0.00  0.00    +0.000 NA
ATOM     20  H   UNL     1      -4.249  11.675  24.034  0.00  0.00    +0.000 HD
ATOM     21  H   UNL     1      -2.725  12.214  24.258  0.00  0.00    +0.000 HD
ENDBRANCH  12  19
ENDBRANCH   1  12
BRANCH   8  22
ATOM     22  C   UNL     1      -0.503  11.600  18.887  0.00  0.00    +0.000 C 
BRANCH  22  23
ATOM     23  C   UNL     1       0.224  12.951  18.865  0.00  0.00    +0.000 A 
ATOM     24  C   UNL     1      -0.441  14.179  19.035  0.00  0.00    +0.000 A 
ATOM     25  C   UNL     1       0.256  15.388  19.002  0.00  0.00    +0.000 A 
ATOM     26  C   UNL     1       1.620  15.402  18.738  0.00  0.00    +0.000 A 
ATOM     27  C   UNL     1       2.296  14.200  18.542  0.00  0.00    +0.000 A 
ATOM     28  C   UNL     1       1.606  12.985  18.610  0.00  0.00    +0.000 A 
ENDBRANCH  22  23
BRANCH  22  29
ATOM     29  C   UNL     1      -0.017  10.644  19.983  0.00  0.00    +0.000 A 
ATOM     30  C   UNL     1       0.834   9.553  19.725  0.00  0.00    +0.000 A 
ATOM     31  C   UNL     1       1.178   8.656  20.740  0.00  0.00    +0.000 A 
ATOM     32  C   UNL     1       0.688   8.840  22.031  0.00  0.00    +0.000 A 
ATOM     33  C   UNL     1      -0.121   9.937  22.315  0.00  0.00    +0.000 A 
ATOM     34  C   UNL     1      -0.457  10.840  21.305  0.00  0.00    +0.000 A 
ENDBRANCH  22  29
ENDBRANCH   8  22
TORSDOF 6
ENDMDL
