MODEL 1
REMARK VINA RESULT:      -6.6      0.000      0.000
REMARK  Name = 
REMARK  6 active torsions:
REMARK  status: ('A' for Active; 'I' for Inactive)
REMARK    1  A    between atoms: C_1  and  O_2
REMARK    2  A    between atoms: O_2  and  C_3
REMARK    3  A    between atoms: C_6  and  C_7
REMARK    4  A    between atoms: C_8  and  C_9
REMARK    5  A    between atoms: C_16  and  C_17
REMARK    6  A    between atoms: N_25  and  C_26
REMARK                            x       y       z     vdW  Elec       q    Type
REMARK                         _______ _______ _______ _____ _____    ______ ____
ROOT
ATOM      1  C   UNL     1      -0.285  11.167  21.800  0.00  0.00    +0.000 A 
ATOM      2  C   UNL     1       0.348  11.302  20.606  0.00  0.00    +0.000 A 
ATOM      3  N   UNL     1       0.911  10.058  20.308  0.00  0.00    +0.000 N 
ATOM      4  N   UNL     1       1.628   9.504  19.314  0.00  0.00    +0.000 NA
ATOM      5  C   UNL     1       1.794   8.220  19.691  0.00  0.00    +0.000 A 
ATOM      6  C   UNL     1       1.151   7.960  20.957  0.00  0.00    +0.000 A 
ATOM      7  C   UNL     1       0.623   9.164  21.318  0.00  0.00    +0.000 A 
ATOM      8  N   UNL     1      -0.100   9.836  22.264  0.00  0.00    +0.000 N 
ATOM      9  C   UNL     1      -0.548   9.253  23.504  0.00  0.00    +0.000 C 
ENDROOT
BRANCH   1  13
ATOM     10  C   UNL     1      -2.578  14.109  23.959  0.00  0.00    +0.000 A 
ATOM     11  C   UNL     1      -3.144  12.881  23.609  0.00  0.00    +0.000 A 
ATOM     12  C   UNL     1      -2.403  11.919  22.903  0.00  0.00    +0.000 A 
ATOM     13  C   UNL     1      -1.081  12.177  22.519  0.00  0.00    +0.000 A 
ATOM     14  C   UNL     1      -0.534  13.425  22.836  0.00  0.00    +0.000 A 
ATOM     15  C   UNL     1      -1.273  14.383  23.557  0.00  0.00    +0.000 A 
BRANCH  10  17
ATOM     16  C   UNL     1      -2.874  16.245  24.952  0.00  0.00    +0.000 C 
ATOM     17  O   UNL     1      -3.390  14.943  24.680  0.00  0.00    +0.000 OA
ENDBRANCH  10  17
ENDBRANCH   1  13
BRANCH   5  18
ATOM     18  C   UNL     1       2.546   7.275  18.843  0.00  0.00    +0.000 A 
ATOM     19  C   UNL     1       2.455   5.885  19.048  0.00  0.00    +0.000 A 
ATOM     20  C   UNL     1       3.201   4.996  18.267  0.00  0.00    +0.000 A 
ATOM     21  C   UNL     1       4.043   5.477  17.268  0.00  0.00    +0.000 A 
ATOM     22  C   UNL     1       4.124   6.847  17.035  0.00  0.00    +0.000 A 
ATOM     23  C   UNL     1       3.377   7.735  17.815  0.00  0.00    +0.000 A 
ENDBRANCH   5  18
BRANCH   2  24
ATOM     24  C   UNL     1       0.429  12.426  19.743  0.00  0.00    +0.000 A 
ATOM     25  C   UNL     1      -0.623  12.899  18.908  0.00  0.00    +0.000 A 
ATOM     26  C   UNL     1      -0.251  14.035  18.224  0.00  0.00    +0.000 A 
ATOM     27  S   UNL     1       1.352  14.517  18.583  0.00  0.00    +0.000 S 
ATOM     28  C   UNL     1       1.553  13.217  19.676  0.00  0.00    +0.000 A 
ENDBRANCH   2  24
TORSDOF 4
ENDMDL
MODEL 2
REMARK VINA RESULT:      -6.5      0.402      1.346
REMARK  Name = 
REMARK  6 active torsions:
REMARK  status: ('A' for Active; 'I' for Inactive)
REMARK    1  A    between atoms: C_1  and  O_2
REMARK    2  A    between atoms: O_2  and  C_3
REMARK    3  A    between atoms: C_6  and  C_7
REMARK    4  A    between atoms: C_8  and  C_9
REMARK    5  A    between atoms: C_16  and  C_17
REMARK    6  A    between atoms: N_25  and  C_26
REMARK                            x       y       z     vdW  Elec       q    Type
REMARK                         _______ _______ _______ _____ _____    ______ ____
ROOT
ATOM      1  C   UNL     1      -0.239  11.139  21.819  0.00  0.00    +0.000 A 
ATOM      2  C   UNL     1       0.385  11.261  20.619  0.00  0.00    +0.000 A 
ATOM      3  N   UNL     1       0.948  10.014  20.331  0.00  0.00    +0.000 N 
ATOM      4  N   UNL     1       1.659   9.450  19.338  0.00  0.00    +0.000 NA
ATOM      5  C   UNL     1       1.830   8.171  19.729  0.00  0.00    +0.000 A 
ATOM      6  C   UNL     1       1.197   7.925  21.003  0.00  0.00    +0.000 A 
ATOM      7  C   UNL     1       0.670   9.131  21.354  0.00  0.00    +0.000 A 
ATOM      8  N   UNL     1      -0.047   9.814  22.297  0.00  0.00    +0.000 N 
ATOM      9  C   UNL     1      -0.484   9.245  23.548  0.00  0.00    +0.000 C 
ENDROOT
BRANCH   1  13
ATOM     10  C   UNL     1      -2.595  14.123  23.848  0.00  0.00    +0.000 A 
ATOM     11  C   UNL     1      -1.284  14.397  23.455  0.00  0.00    +0.000 A 
ATOM     12  C   UNL     1      -0.509  13.428  22.795  0.00  0.00    +0.000 A 
ATOM     13  C   UNL     1      -1.031  12.155  22.532  0.00  0.00    +0.000 A 
ATOM     14  C   UNL     1      -2.332  11.874  22.966  0.00  0.00    +0.000 A 
ATOM     15  C   UNL     1      -3.112  12.850  23.613  0.00  0.00    +0.000 A 
BRANCH  10  17
ATOM     16  C   UNL     1      -4.457  15.596  23.807  0.00  0.00    +0.000 C 
ATOM     17  O   UNL     1      -3.257  15.162  24.445  0.00  0.00    +0.000 OA
ENDBRANCH  10  17
ENDBRANCH   1  13
BRANCH   5  18
ATOM     18  C   UNL     1       2.577   7.217  18.887  0.00  0.00    +0.000 A 
ATOM     19  C   UNL     1       3.409   7.665  17.843  0.00  0.00    +0.000 A 
ATOM     20  C   UNL     1       4.083   6.754  17.024  0.00  0.00    +0.000 A 
ATOM     21  C   UNL     1       3.944   5.385  17.236  0.00  0.00    +0.000 A 
ATOM     22  C   UNL     1       3.147   4.926  18.280  0.00  0.00    +0.000 A 
ATOM     23  C   UNL     1       2.475   5.837  19.100  0.00  0.00    +0.000 A 
ENDBRANCH   5  18
BRANCH   2  24
ATOM     24  C   UNL     1       0.457  12.375  19.741  0.00  0.00    +0.000 A 
ATOM     25  C   UNL     1      -0.613  12.859  18.938  0.00  0.00    +0.000 A 
ATOM     26  C   UNL     1      -0.244  13.981  18.229  0.00  0.00    +0.000 A 
ATOM     27  S   UNL     1       1.379  14.436  18.529  0.00  0.00    +0.000 S 
ATOM     28  C   UNL     1       1.592  13.143  19.628  0.00  0.00    +0.000 A 
ENDBRANCH   2  24
TORSDOF 4
ENDMDL
MODEL 3
REMARK VINA RESULT:      -6.4      0.717      1.173
REMARK  Name = 
REMARK  6 active torsions:
REMARK  status: ('A' for Active; 'I' for Inactive)
REMARK    1  A    between atoms: C_1  and  O_2
REMARK    2  A    between atoms: O_2  and  C_3
REMARK    3  A    between atoms: C_6  and  C_7
REMARK    4  A    between atoms: C_8  and  C_9
REMARK    5  A    between atoms: C_16  and  C_17
REMARK    6  A    between atoms: N_25  and  C_26
REMARK                            x       y       z     vdW  Elec       q    Type
REMARK                         _______ _______ _______ _____ _____    ______ ____
ROOT
ATOM      1  C   UNL     1      -0.220  10.814  21.822  0.00  0.00    +0.000 A 
ATOM      2  C   UNL     1       0.134  10.795  20.511  0.00  0.00    +0.000 A 
ATOM      3  N   UNL     1       0.830   9.602  20.301  0.00  0.00    +0.000 N 
ATOM      4  N   UNL     1       1.421   8.963  19.275  0.00  0.00    +0.000 NA
ATOM      5  C   UNL     1       1.873   7.810  19.808  0.00  0.00    +0.000 A 
ATOM      6  C   UNL     1       1.543   7.720  21.211  0.00  0.00    +0.000 A 
ATOM      7  C   UNL     1       0.902   8.891  21.481  0.00  0.00    +0.000 A 
ATOM      8  N   UNL     1       0.275   9.635  22.442  0.00  0.00    +0.000 N 
ATOM      9  C   UNL     1       0.184   9.251  23.829  0.00  0.00    +0.000 C 
ENDROOT
BRANCH   1  13
ATOM     10  C   UNL     1      -2.516  13.784  23.939  0.00  0.00    +0.000 A 
ATOM     11  C   UNL     1      -3.040  12.510  23.707  0.00  0.00    +0.000 A 
ATOM     12  C   UNL     1      -2.298  11.538  23.016  0.00  0.00    +0.000 A 
ATOM     13  C   UNL     1      -1.019  11.832  22.527  0.00  0.00    +0.000 A 
ATOM     14  C   UNL     1      -0.517  13.123  22.726  0.00  0.00    +0.000 A 
ATOM     15  C   UNL     1      -1.255  14.091  23.432  0.00  0.00    +0.000 A 
BRANCH  10  17
ATOM     16  C   UNL     1      -2.666  15.688  25.350  0.00  0.00    +0.000 C 
ATOM     17  O   UNL     1      -3.321  14.626  24.658  0.00  0.00    +0.000 OA
ENDBRANCH  10  17
ENDBRANCH   1  13
BRANCH   5  18
ATOM     18  C   UNL     1       2.592   6.825  18.979  0.00  0.00    +0.000 A 
ATOM     19  C   UNL     1       3.523   7.235  18.006  0.00  0.00    +0.000 A 
ATOM     20  C   UNL     1       4.172   6.297  17.196  0.00  0.00    +0.000 A 
ATOM     21  C   UNL     1       3.909   4.938  17.348  0.00  0.00    +0.000 A 
ATOM     22  C   UNL     1       3.012   4.514  18.324  0.00  0.00    +0.000 A 
ATOM     23  C   UNL     1       2.365   5.452  19.134  0.00  0.00    +0.000 A 
ENDBRANCH   5  18
BRANCH   2  24
ATOM     24  C   UNL     1      -0.147  11.731  19.481  0.00  0.00    +0.000 A 
ATOM     25  C   UNL     1      -1.170  11.592  18.501  0.00  0.00    +0.000 A 
ATOM     26  C   UNL     1      -1.221  12.687  17.667  0.00  0.00    +0.000 A 
ATOM     27  S   UNL     1      -0.041  13.863  18.062  0.00  0.00    +0.000 S 
ATOM     28  C   UNL     1       0.534  12.921  19.369  0.00  0.00    +0.000 A 
ENDBRANCH   2  24
TORSDOF 4
ENDMDL
MODEL 4
REMARK VINA RESULT:      -6.4      1.234      1.900
REMARK  Name = 
REMARK  6 active torsions:
REMARK  status: ('A' for Active; 'I' for Inactive)
REMARK    1  A    between atoms: C_1  and  O_2
REMARK    2  A    between atoms: O_2  and  C_3
REMARK    3  A    between atoms: C_6  and  C_7
REMARK    4  A    between atoms: C_8  and  C_9
REMARK    5  A    between atoms: C_16  and  C_17
REMARK    6  A    between atoms: N_25  and  C_26
REMARK                            x       y       z     vdW  Elec       q    Type
REMARK                         _______ _______ _______ _____ _____    ______ ____
ROOT
ATOM      1  C   UNL     1      -0.220  10.592  21.795  0.00  0.00    +0.000 A 
ATOM      2  C   UNL     1      -0.055  10.444  20.454  0.00  0.00    +0.000 A 
ATOM      3  N   UNL     1       0.744   9.313  20.271  0.00  0.00    +0.000 N 
ATOM      4  N   UNL     1       1.257   8.614  19.243  0.00  0.00    +0.000 NA
ATOM      5  C   UNL     1       1.917   7.592  19.823  0.00  0.00    +0.000 A 
ATOM      6  C   UNL     1       1.804   7.646  21.261  0.00  0.00    +0.000 A 
ATOM      7  C   UNL     1       1.068   8.769  21.497  0.00  0.00    +0.000 A 
ATOM      8  N   UNL     1       0.498   9.559  22.456  0.00  0.00    +0.000 N 
ATOM      9  C   UNL     1       0.653   9.347  23.874  0.00  0.00    +0.000 C 
ENDROOT
BRANCH   1  13
ATOM     10  C   UNL     1      -2.630  13.548  23.801  0.00  0.00    +0.000 A 
ATOM     11  C   UNL     1      -1.385  13.887  23.267  0.00  0.00    +0.000 A 
ATOM     12  C   UNL     1      -0.593  12.928  22.614  0.00  0.00    +0.000 A 
ATOM     13  C   UNL     1      -1.029  11.602  22.499  0.00  0.00    +0.000 A 
ATOM     14  C   UNL     1      -2.258  11.260  23.073  0.00  0.00    +0.000 A 
ATOM     15  C   UNL     1      -3.058  12.225  23.715  0.00  0.00    +0.000 A 
BRANCH  10  17
ATOM     16  C   UNL     1      -2.603  15.368  25.327  0.00  0.00    +0.000 C 
ATOM     17  O   UNL     1      -3.320  14.581  24.377  0.00  0.00    +0.000 OA
ENDBRANCH  10  17
ENDBRANCH   1  13
BRANCH   5  18
ATOM     18  C   UNL     1       2.627   6.589  19.005  0.00  0.00    +0.000 A 
ATOM     19  C   UNL     1       3.546   6.980  18.012  0.00  0.00    +0.000 A 
ATOM     20  C   UNL     1       4.185   6.025  17.214  0.00  0.00    +0.000 A 
ATOM     21  C   UNL     1       3.925   4.670  17.397  0.00  0.00    +0.000 A 
ATOM     22  C   UNL     1       3.039   4.266  18.393  0.00  0.00    +0.000 A 
ATOM     23  C   UNL     1       2.402   5.220  19.191  0.00  0.00    +0.000 A 
ENDBRANCH   5  18
BRANCH   2  24
ATOM     24  C   UNL     1      -0.592  11.207  19.384  0.00  0.00    +0.000 A 
ATOM     25  C   UNL     1      -0.127  12.488  18.973  0.00  0.00    +0.000 A 
ATOM     26  C   UNL     1      -0.822  12.949  17.877  0.00  0.00    +0.000 A 
ATOM     27  S   UNL     1      -2.025  11.847  17.358  0.00  0.00    +0.000 S 
ATOM     28  C   UNL     1      -1.609  10.733  18.587  0.00  0.00    +0.000 A 
ENDBRANCH   2  24
TORSDOF 4
ENDMDL
MODEL 5
REMARK VINA RESULT:      -6.3      0.566      1.069
REMARK  Name = 
REMARK  6 active torsions:
REMARK  status: ('A' for Active; 'I' for Inactive)
REMARK    1  A    between atoms: C_1  and  O_2
REMARK    2  A    between atoms: O_2  and  C_3
REMARK    3  A    between atoms: C_6  and  C_7
REMARK    4  A    between atoms: C_8  and  C_9
REMARK    5  A    between atoms: C_16  and  C_17
REMARK    6  A    between atoms: N_25  and  C_26
REMARK                            x       y       z     vdW  Elec       q    Type
REMARK                         _______ _______ _______ _____ _____    ______ ____
ROOT
ATOM      1  C   UNL     1      -0.215  10.947  21.835  0.00  0.00    +0.000 A 
ATOM      2  C   UNL     1       0.183  10.968  20.537  0.00  0.00    +0.000 A 
ATOM      3  N   UNL     1       0.846   9.760  20.301  0.00  0.00    +0.000 N 
ATOM      4  N   UNL     1       1.450   9.143  19.270  0.00  0.00    +0.000 NA
ATOM      5  C   UNL     1       1.844   7.954  19.771  0.00  0.00    +0.000 A 
ATOM      6  C   UNL     1       1.464   7.820  21.157  0.00  0.00    +0.000 A 
ATOM      7  C   UNL     1       0.853   9.002  21.453  0.00  0.00    +0.000 A 
ATOM      8  N   UNL     1       0.219   9.728  22.423  0.00  0.00    +0.000 N 
ATOM      9  C   UNL     1       0.069   9.293  23.789  0.00  0.00    +0.000 C 
ENDROOT
BRANCH   1  13
ATOM     10  C   UNL     1      -2.558  13.929  23.883  0.00  0.00    +0.000 A 
ATOM     11  C   UNL     1      -1.252  14.206  23.475  0.00  0.00    +0.000 A 
ATOM     12  C   UNL     1      -0.481  13.238  22.809  0.00  0.00    +0.000 A 
ATOM     13  C   UNL     1      -1.003  11.963  22.554  0.00  0.00    +0.000 A 
ATOM     14  C   UNL     1      -2.297  11.679  23.003  0.00  0.00    +0.000 A 
ATOM     15  C   UNL     1      -3.074  12.654  23.657  0.00  0.00    +0.000 A 
BRANCH  10  17
ATOM     16  C   UNL     1      -2.645  16.263  24.309  0.00  0.00    +0.000 C 
ATOM     17  O   UNL     1      -3.216  14.968  24.485  0.00  0.00    +0.000 OA
ENDBRANCH  10  17
ENDBRANCH   1  13
BRANCH   5  18
ATOM     18  C   UNL     1       2.558   6.978  18.927  0.00  0.00    +0.000 A 
ATOM     19  C   UNL     1       2.358   5.594  19.089  0.00  0.00    +0.000 A 
ATOM     20  C   UNL     1       3.068   4.672  18.312  0.00  0.00    +0.000 A 
ATOM     21  C   UNL     1       3.982   5.115  17.360  0.00  0.00    +0.000 A 
ATOM     22  C   UNL     1       4.172   6.480  17.169  0.00  0.00    +0.000 A 
ATOM     23  C   UNL     1       3.461   7.401  17.943  0.00  0.00    +0.000 A 
ENDBRANCH   5  18
BRANCH   2  24
ATOM     24  C   UNL     1      -0.032  11.953  19.537  0.00  0.00    +0.000 A 
ATOM     25  C   UNL     1      -1.044  11.903  18.538  0.00  0.00    +0.000 A 
ATOM     26  C   UNL     1      -1.024  13.027  17.743  0.00  0.00    +0.000 A 
ATOM     27  S   UNL     1       0.210  14.124  18.197  0.00  0.00    +0.000 S 
ATOM     28  C   UNL     1       0.713  13.108  19.477  0.00  0.00    +0.000 A 
ENDBRANCH   2  24
TORSDOF 4
ENDMDL
MODEL 6
REMARK VINA RESULT:      -6.3      1.276      1.709
REMARK  Name = 
REMARK  6 active torsions:
REMARK  status: ('A' for Active; 'I' for Inactive)
REMARK    1  A    between atoms: C_1  and  O_2
REMARK    2  A    between atoms: O_2  and  C_3
REMARK    3  A    between atoms: C_6  and  C_7
REMARK    4  A    between atoms: C_8  and  C_9
REMARK    5  A    between atoms: C_16  and  C_17
REMARK    6  A    between atoms: N_25  and  C_26
REMARK                            x       y       z     vdW  Elec       q    Type
REMARK                         _______ _______ _______ _____ _____    ______ ____
ROOT
ATOM      1  C   UNL     1      -0.211  10.602  21.794  0.00  0.00    +0.000 A 
ATOM      2  C   UNL     1      -0.039  10.459  20.454  0.00  0.00    +0.000 A 
ATOM      3  N   UNL     1       0.764   9.330  20.271  0.00  0.00    +0.000 N 
ATOM      4  N   UNL     1       1.284   8.636  19.242  0.00  0.00    +0.000 NA
ATOM      5  C   UNL     1       1.943   7.613  19.822  0.00  0.00    +0.000 A 
ATOM      6  C   UNL     1       1.822   7.662  21.259  0.00  0.00    +0.000 A 
ATOM      7  C   UNL     1       1.083   8.782  21.496  0.00  0.00    +0.000 A 
ATOM      8  N   UNL     1       0.507   9.568  22.455  0.00  0.00    +0.000 N 
ATOM      9  C   UNL     1       0.654   9.351  23.873  0.00  0.00    +0.000 C 
ENDROOT
BRANCH   1  13
ATOM     10  C   UNL     1      -2.637  13.544  23.800  0.00  0.00    +0.000 A 
ATOM     11  C   UNL     1      -1.400  13.893  23.256  0.00  0.00    +0.000 A 
ATOM     12  C   UNL     1      -0.602  12.938  22.603  0.00  0.00    +0.000 A 
ATOM     13  C   UNL     1      -1.025  11.607  22.498  0.00  0.00    +0.000 A 
ATOM     14  C   UNL     1      -2.247  11.256  23.082  0.00  0.00    +0.000 A 
ATOM     15  C   UNL     1      -3.052  12.216  23.724  0.00  0.00    +0.000 A 
BRANCH  10  17
ATOM     16  C   UNL     1      -4.527  14.979  23.705  0.00  0.00    +0.000 C 
ATOM     17  O   UNL     1      -3.335  14.573  24.375  0.00  0.00    +0.000 OA
ENDBRANCH  10  17
ENDBRANCH   1  13
BRANCH   5  18
ATOM     18  C   UNL     1       2.659   6.615  19.004  0.00  0.00    +0.000 A 
ATOM     19  C   UNL     1       2.541   5.238  19.271  0.00  0.00    +0.000 A 
ATOM     20  C   UNL     1       3.253   4.299  18.518  0.00  0.00    +0.000 A 
ATOM     21  C   UNL     1       4.088   4.717  17.485  0.00  0.00    +0.000 A 
ATOM     22  C   UNL     1       4.195   6.074  17.191  0.00  0.00    +0.000 A 
ATOM     23  C   UNL     1       3.482   7.011  17.943  0.00  0.00    +0.000 A 
ENDBRANCH   5  18
BRANCH   2  24
ATOM     24  C   UNL     1      -0.572  11.225  19.383  0.00  0.00    +0.000 A 
ATOM     25  C   UNL     1      -0.106  12.506  18.978  0.00  0.00    +0.000 A 
ATOM     26  C   UNL     1      -0.797  12.970  17.880  0.00  0.00    +0.000 A 
ATOM     27  S   UNL     1      -1.998  11.870  17.354  0.00  0.00    +0.000 S 
ATOM     28  C   UNL     1      -1.586  10.753  18.583  0.00  0.00    +0.000 A 
ENDBRANCH   2  24
TORSDOF 4
ENDMDL
MODEL 7
REMARK VINA RESULT:      -6.3      2.814      3.347
REMARK  Name = 
REMARK  6 active torsions:
REMARK  status: ('A' for Active; 'I' for Inactive)
REMARK    1  A    between atoms: C_1  and  O_2
REMARK    2  A    between atoms: O_2  and  C_3
REMARK    3  A    between atoms: C_6  and  C_7
REMARK    4  A    between atoms: C_8  and  C_9
REMARK    5  A    between atoms: C_16  and  C_17
REMARK    6  A    between atoms: N_25  and  C_26
REMARK                            x       y       z     vdW  Elec       q    Type
REMARK                         _______ _______ _______ _____ _____    ______ ____
ROOT
ATOM      1  C   UNL     1      -2.205  12.280  20.585  0.00  0.00    +0.000 A 
ATOM      2  C   UNL     1      -2.102  11.543  19.449  0.00  0.00    +0.000 A 
ATOM      3  N   UNL     1      -0.944  10.771  19.576  0.00  0.00    +0.000 N 
ATOM      4  N   UNL     1      -0.284   9.845  18.858  0.00  0.00    +0.000 NA
ATOM      5  C   UNL     1       0.764   9.499  19.633  0.00  0.00    +0.000 A 
ATOM      6  C   UNL     1       0.751  10.224  20.881  0.00  0.00    +0.000 A 
ATOM      7  C   UNL     1      -0.340  11.034  20.787  0.00  0.00    +0.000 A 
ATOM      8  N   UNL     1      -1.094  11.983  21.420  0.00  0.00    +0.000 N 
ATOM      9  C   UNL     1      -0.758  12.561  22.698  0.00  0.00    +0.000 C 
ENDROOT
BRANCH   1  13
ATOM     10  C   UNL     1      -5.320  15.024  21.742  0.00  0.00    +0.000 A 
ATOM     11  C   UNL     1      -5.433  13.660  22.019  0.00  0.00    +0.000 A 
ATOM     12  C   UNL     1      -4.423  12.760  21.643  0.00  0.00    +0.000 A 
ATOM     13  C   UNL     1      -3.283  13.209  20.964  0.00  0.00    +0.000 A 
ATOM     14  C   UNL     1      -3.196  14.571  20.652  0.00  0.00    +0.000 A 
ATOM     15  C   UNL     1      -4.202  15.475  21.043  0.00  0.00    +0.000 A 
BRANCH  10  17
ATOM     16  C   UNL     1      -6.193  16.366  23.496  0.00  0.00    +0.000 C 
ATOM     17  O   UNL     1      -6.353  15.801  22.195  0.00  0.00    +0.000 OA
ENDBRANCH  10  17
ENDBRANCH   1  13
BRANCH   5  18
ATOM     18  C   UNL     1       1.739   8.489  19.179  0.00  0.00    +0.000 A 
ATOM     19  C   UNL     1       2.385   8.611  17.934  0.00  0.00    +0.000 A 
ATOM     20  C   UNL     1       3.279   7.630  17.492  0.00  0.00    +0.000 A 
ATOM     21  C   UNL     1       3.548   6.518  18.285  0.00  0.00    +0.000 A 
ATOM     22  C   UNL     1       2.938   6.396  19.531  0.00  0.00    +0.000 A 
ATOM     23  C   UNL     1       2.046   7.377  19.973  0.00  0.00    +0.000 A 
ENDBRANCH   5  18
BRANCH   2  24
ATOM     24  C   UNL     1      -2.974  11.471  18.331  0.00  0.00    +0.000 A 
ATOM     25  C   UNL     1      -4.383  11.665  18.374  0.00  0.00    +0.000 A 
ATOM     26  C   UNL     1      -4.943  11.576  17.118  0.00  0.00    +0.000 A 
ATOM     27  S   UNL     1      -3.777  11.253  15.907  0.00  0.00    +0.000 S 
ATOM     28  C   UNL     1      -2.509  11.252  17.055  0.00  0.00    +0.000 A 
ENDBRANCH   2  24
TORSDOF 4
ENDMDL
MODEL 8
REMARK VINA RESULT:      -6.2      2.974      3.601
REMARK  Name = 
REMARK  6 active torsions:
REMARK  status: ('A' for Active; 'I' for Inactive)
REMARK    1  A    between atoms: C_1  and  O_2
REMARK    2  A    between atoms: O_2  and  C_3
REMARK    3  A    between atoms: C_6  and  C_7
REMARK    4  A    between atoms: C_8  and  C_9
REMARK    5  A    between atoms: C_16  and  C_17
REMARK    6  A    between atoms: N_25  and  C_26
REMARK                            x       y       z     vdW  Elec       q    Type
REMARK                         _______ _______ _______ _____ _____    ______ ____
ROOT
ATOM      1  C   UNL     1      -2.192  12.319  20.596  0.00  0.00    +0.000 A 
ATOM      2  C   UNL     1      -2.100  11.559  19.473  0.00  0.00    +0.000 A 
ATOM      3  N   UNL     1      -0.947  10.782  19.609  0.00  0.00    +0.000 N 
ATOM      4  N   UNL     1      -0.296   9.838  18.905  0.00  0.00    +0.000 NA
ATOM      5  C   UNL     1       0.753   9.499  19.681  0.00  0.00    +0.000 A 
ATOM      6  C   UNL     1       0.752  10.248  20.915  0.00  0.00    +0.000 A 
ATOM      7  C   UNL     1      -0.334  11.064  20.812  0.00  0.00    +0.000 A 
ATOM      8  N   UNL     1      -1.078  12.030  21.430  0.00  0.00    +0.000 N 
ATOM      9  C   UNL     1      -0.732  12.631  22.695  0.00  0.00    +0.000 C 
ENDROOT
BRANCH   1  13
ATOM     10  C   UNL     1      -5.361  15.055  21.615  0.00  0.00    +0.000 A 
ATOM     11  C   UNL     1      -4.186  15.516  21.018  0.00  0.00    +0.000 A 
ATOM     12  C   UNL     1      -3.148  14.630  20.685  0.00  0.00    +0.000 A 
ATOM     13  C   UNL     1      -3.262  13.262  20.962  0.00  0.00    +0.000 A 
ATOM     14  C   UNL     1      -4.425  12.813  21.598  0.00  0.00    +0.000 A 
ATOM     15  C   UNL     1      -5.471  13.699  21.917  0.00  0.00    +0.000 A 
BRANCH  10  17
ATOM     16  C   UNL     1      -7.415  16.044  20.949  0.00  0.00    +0.000 C 
ATOM     17  O   UNL     1      -6.311  16.012  21.853  0.00  0.00    +0.000 OA
ENDBRANCH  10  17
ENDBRANCH   1  13
BRANCH   5  18
ATOM     18  C   UNL     1       1.720   8.475  19.242  0.00  0.00    +0.000 A 
ATOM     19  C   UNL     1       2.395   8.593  18.012  0.00  0.00    +0.000 A 
ATOM     20  C   UNL     1       3.280   7.598  17.583  0.00  0.00    +0.000 A 
ATOM     21  C   UNL     1       3.511   6.476  18.375  0.00  0.00    +0.000 A 
ATOM     22  C   UNL     1       2.872   6.358  19.606  0.00  0.00    +0.000 A 
ATOM     23  C   UNL     1       1.989   7.353  20.035  0.00  0.00    +0.000 A 
ENDBRANCH   5  18
BRANCH   2  24
ATOM     24  C   UNL     1      -2.979  11.471  18.361  0.00  0.00    +0.000 A 
ATOM     25  C   UNL     1      -4.392  11.629  18.416  0.00  0.00    +0.000 A 
ATOM     26  C   UNL     1      -4.959  11.532  17.164  0.00  0.00    +0.000 A 
ATOM     27  S   UNL     1      -3.794  11.247  15.942  0.00  0.00    +0.000 S 
ATOM     28  C   UNL     1      -2.518  11.272  17.080  0.00  0.00    +0.000 A 
ENDBRANCH   2  24
TORSDOF 4
ENDMDL
MODEL 9
REMARK VINA RESULT:      -6.2      2.842      3.259
REMARK  Name = 
REMARK  6 active torsions:
REMARK  status: ('A' for Active; 'I' for Inactive)
REMARK    1  A    between atoms: C_1  and  O_2
REMARK    2  A    between atoms: O_2  and  C_3
REMARK    3  A    between atoms: C_6  and  C_7
REMARK    4  A    between atoms: C_8  and  C_9
REMARK    5  A    between atoms: C_16  and  C_17
REMARK    6  A    between atoms: N_25  and  C_26
REMARK                            x       y       z     vdW  Elec       q    Type
REMARK                         _______ _______ _______ _____ _____    ______ ____
ROOT
ATOM      1  C   UNL     1      -2.082  12.275  20.616  0.00  0.00    +0.000 A 
ATOM      2  C   UNL     1      -1.989  11.553  19.469  0.00  0.00    +0.000 A 
ATOM      3  N   UNL     1      -0.856  10.745  19.595  0.00  0.00    +0.000 N 
ATOM      4  N   UNL     1      -0.216   9.810  18.869  0.00  0.00    +0.000 NA
ATOM      5  C   UNL     1       0.812   9.421  19.649  0.00  0.00    +0.000 A 
ATOM      6  C   UNL     1       0.809  10.126  20.908  0.00  0.00    +0.000 A 
ATOM      7  C   UNL     1      -0.257  10.971  20.817  0.00  0.00    +0.000 A 
ATOM      8  N   UNL     1      -0.989  11.932  21.457  0.00  0.00    +0.000 N 
ATOM      9  C   UNL     1      -0.650  12.480  22.747  0.00  0.00    +0.000 C 
ENDROOT
BRANCH   1  13
ATOM     10  C   UNL     1      -5.125  15.094  21.784  0.00  0.00    +0.000 A 
ATOM     11  C   UNL     1      -5.268  13.734  22.067  0.00  0.00    +0.000 A 
ATOM     12  C   UNL     1      -4.281  12.809  21.687  0.00  0.00    +0.000 A 
ATOM     13  C   UNL     1      -3.136  13.230  20.998  0.00  0.00    +0.000 A 
ATOM     14  C   UNL     1      -3.020  14.588  20.681  0.00  0.00    +0.000 A 
ATOM     15  C   UNL     1      -4.002  15.516  21.075  0.00  0.00    +0.000 A 
BRANCH  10  17
ATOM     16  C   UNL     1      -7.317  15.231  22.686  0.00  0.00    +0.000 C 
ATOM     17  O   UNL     1      -6.136  15.896  22.241  0.00  0.00    +0.000 OA
ENDBRANCH  10  17
ENDBRANCH   1  13
BRANCH   5  18
ATOM     18  C   UNL     1       1.762   8.390  19.189  0.00  0.00    +0.000 A 
ATOM     19  C   UNL     1       2.018   7.241  19.961  0.00  0.00    +0.000 A 
ATOM     20  C   UNL     1       2.949   6.287  19.538  0.00  0.00    +0.000 A 
ATOM     21  C   UNL     1       3.634   6.460  18.339  0.00  0.00    +0.000 A 
ATOM     22  C   UNL     1       3.373   7.577  17.550  0.00  0.00    +0.000 A 
ATOM     23  C   UNL     1       2.441   8.529  17.972  0.00  0.00    +0.000 A 
ENDBRANCH   5  18
BRANCH   2  24
ATOM     24  C   UNL     1      -2.851  11.524  18.341  0.00  0.00    +0.000 A 
ATOM     25  C   UNL     1      -2.436  11.337  16.993  0.00  0.00    +0.000 A 
ATOM     26  C   UNL     1      -3.511  11.313  16.133  0.00  0.00    +0.000 A 
ATOM     27  S   UNL     1      -5.002  11.522  16.947  0.00  0.00    +0.000 S 
ATOM     28  C   UNL     1      -4.218  11.625  18.464  0.00  0.00    +0.000 A 
ENDBRANCH   2  24
TORSDOF 4
ENDMDL
