MODEL 1
REMARK VINA RESULT:      -7.2      0.000      0.000
REMARK  Name = 
REMARK  5 active torsions:
REMARK  status: ('A' for Active; 'I' for Inactive)
REMARK    1  A    between atoms: C_1  and  C_2
REMARK    2  A    between atoms: C_2  and  O_3
REMARK    3  A    between atoms: O_3  and  C_4
REMARK    4  A    between atoms: C_4  and  C_6
REMARK    5  A    between atoms: C_31  and  C_32
REMARK                            x       y       z     vdW  Elec       q    Type
REMARK                         _______ _______ _______ _____ _____    ______ ____
ROOT
ATOM      1  C   UNL     1       0.461  11.825  20.332  0.00  0.00    +0.000 C 
ATOM      2  C   UNL     1       1.204  13.128  19.936  0.00  0.00    +0.000 C 
ATOM      3  C   UNL     1       2.430  13.202  19.060  0.00  0.00    +0.000 C 
ATOM      4  O   UNL     1       2.871  14.577  18.934  0.00  0.00    +0.000 OA
ATOM      5  C   UNL     1       1.894  15.504  18.665  0.00  0.00    +0.000 A 
ATOM      6  C   UNL     1       2.319  16.737  18.168  0.00  0.00    +0.000 A 
ATOM      7  C   UNL     1       1.382  17.718  17.821  0.00  0.00    +0.000 A 
ATOM      8  C   UNL     1       0.023  17.449  17.934  0.00  0.00    +0.000 A 
ATOM      9 CL   UNL     1      -1.138  18.631  17.473  0.00  0.00    +0.000 Cl
ATOM     10  C   UNL     1      -0.405  16.217  18.414  0.00  0.00    +0.000 A 
ATOM     11  C   UNL     1       0.529  15.268  18.859  0.00  0.00    +0.000 A 
ATOM     12  C   UNL     1       0.086  13.942  19.350  0.00  0.00    +0.000 C 
ATOM     13  N   UNL     1      -0.899  13.729  20.410  0.00  0.00    +0.000 N 
ATOM     14  C   UNL     1      -1.689  14.662  21.023  0.00  0.00    +0.000 C 
ATOM     15  O   UNL     1      -1.541  15.870  21.030  0.00  0.00    +0.000 OA
ATOM     16  C   UNL     1      -2.863  14.107  21.699  0.00  0.00    +0.000 A 
ATOM     17  C   UNL     1      -2.945  14.136  23.089  0.00  0.00    +0.000 A 
ATOM     18  C   UNL     1      -4.020  13.493  23.680  0.00  0.00    +0.000 A 
ATOM     19  F   UNL     1      -3.984  13.218  24.989  0.00  0.00    +0.000 F 
ATOM     20  C   UNL     1      -5.094  13.039  22.912  0.00  0.00    +0.000 A 
ATOM     21  C   UNL     1      -5.013  13.049  21.515  0.00  0.00    +0.000 A 
ATOM     22  C   UNL     1      -3.795  13.395  20.934  0.00  0.00    +0.000 A 
ATOM     23  N   UNL     1      -3.422  12.729  19.735  0.00  0.00    +0.000 N 
ATOM     24  C   UNL     1      -2.203  12.058  19.528  0.00  0.00    +0.000 C 
ATOM     25  O   UNL     1      -2.080  11.332  18.541  0.00  0.00    +0.000 OA
ATOM     26  C   UNL     1      -1.028  12.269  20.575  0.00  0.00    +0.000 C 
ATOM     27  C   UNL     1      -1.381  11.656  21.945  0.00  0.00    +0.000 C 
ATOM     28  H   UNL     1      -4.164  12.439  19.101  0.00  0.00    +0.000 HD
ENDROOT
BRANCH   1  29
ATOM     29  C   UNL     1       0.630  10.615  19.464  0.00  0.00    +0.000 C 
ATOM     30  O   UNL     1       1.196  10.618  18.400  0.00  0.00    +0.000 OA
BRANCH  29  31
ATOM     31  O   UNL     1       0.190   9.487  20.117  0.00  0.00    +0.000 OA
BRANCH  31  33
ATOM     32  C   UNL     1       1.224   8.952  22.222  0.00  0.00    +0.000 C 
ATOM     33  C   UNL     1       1.245   8.730  20.725  0.00  0.00    +0.000 C 
ENDBRANCH  31  33
ENDBRANCH  29  31
ENDBRANCH   1  29
TORSDOF 3
ENDMDL
MODEL 2
REMARK VINA RESULT:      -7.2      3.030      6.325
REMARK  Name = 
REMARK  5 active torsions:
REMARK  status: ('A' for Active; 'I' for Inactive)
REMARK    1  A    between atoms: C_1  and  C_2
REMARK    2  A    between atoms: C_2  and  O_3
REMARK    3  A    between atoms: O_3  and  C_4
REMARK    4  A    between atoms: C_4  and  C_6
REMARK    5  A    between atoms: C_31  and  C_32
REMARK                            x       y       z     vdW  Elec       q    Type
REMARK                         _______ _______ _______ _____ _____    ______ ____
ROOT
ATOM      1  C   UNL     1      -1.314  13.024  22.864  0.00  0.00    +0.000 C 
ATOM      2  C   UNL     1      -0.542  11.684  22.743  0.00  0.00    +0.000 C 
ATOM      3  C   UNL     1      -1.011  10.354  23.279  0.00  0.00    +0.000 C 
ATOM      4  O   UNL     1      -0.020   9.331  23.014  0.00  0.00    +0.000 OA
ATOM      5  C   UNL     1       0.499   9.306  21.743  0.00  0.00    +0.000 A 
ATOM      6  C   UNL     1       1.145   8.132  21.352  0.00  0.00    +0.000 A 
ATOM      7  C   UNL     1       1.657   8.008  20.055  0.00  0.00    +0.000 A 
ATOM      8  C   UNL     1       1.487   9.042  19.141  0.00  0.00    +0.000 A 
ATOM      9 CL   UNL     1       2.077   8.885  17.533  0.00  0.00    +0.000 Cl
ATOM     10  C   UNL     1       0.832  10.206  19.521  0.00  0.00    +0.000 A 
ATOM     11  C   UNL     1       0.407  10.377  20.848  0.00  0.00    +0.000 A 
ATOM     12  C   UNL     1      -0.315  11.605  21.260  0.00  0.00    +0.000 C 
ATOM     13  N   UNL     1       0.170  12.969  21.054  0.00  0.00    +0.000 N 
ATOM     14  C   UNL     1       1.259  13.373  20.333  0.00  0.00    +0.000 C 
ATOM     15  O   UNL     1       2.199  12.694  19.965  0.00  0.00    +0.000 OA
ATOM     16  C   UNL     1       1.232  14.783  19.940  0.00  0.00    +0.000 A 
ATOM     17  C   UNL     1       2.137  15.681  20.502  0.00  0.00    +0.000 A 
ATOM     18  C   UNL     1       1.989  17.021  20.184  0.00  0.00    +0.000 A 
ATOM     19  F   UNL     1       2.611  17.946  20.925  0.00  0.00    +0.000 F 
ATOM     20  C   UNL     1       1.123  17.425  19.165  0.00  0.00    +0.000 A 
ATOM     21  C   UNL     1       0.245  16.504  18.584  0.00  0.00    +0.000 A 
ATOM     22  C   UNL     1       0.173  15.229  19.140  0.00  0.00    +0.000 A 
ATOM     23  N   UNL     1      -1.095  14.584  19.154  0.00  0.00    +0.000 N 
ATOM     24  C   UNL     1      -1.713  14.040  20.294  0.00  0.00    +0.000 C 
ATOM     25  O   UNL     1      -2.897  13.710  20.232  0.00  0.00    +0.000 OA
ATOM     26  C   UNL     1      -0.854  13.867  21.618  0.00  0.00    +0.000 C 
ATOM     27  C   UNL     1      -0.464  15.233  22.217  0.00  0.00    +0.000 C 
ATOM     28  H   UNL     1      -1.740  14.787  18.393  0.00  0.00    +0.000 HD
ENDROOT
BRANCH   1  29
ATOM     29  C   UNL     1      -2.795  12.977  23.089  0.00  0.00    +0.000 C 
ATOM     30  O   UNL     1      -3.458  11.972  23.027  0.00  0.00    +0.000 OA
BRANCH  29  31
ATOM     31  O   UNL     1      -3.256  14.198  23.521  0.00  0.00    +0.000 OA
BRANCH  31  33
ATOM     32  C   UNL     1      -2.447  15.317  25.492  0.00  0.00    +0.000 C 
ATOM     33  C   UNL     1      -3.406  14.282  24.945  0.00  0.00    +0.000 C 
ENDBRANCH  31  33
ENDBRANCH  29  31
ENDBRANCH   1  29
TORSDOF 3
ENDMDL
MODEL 3
REMARK VINA RESULT:      -7.0      3.217      6.438
REMARK  Name = 
REMARK  5 active torsions:
REMARK  status: ('A' for Active; 'I' for Inactive)
REMARK    1  A    between atoms: C_1  and  C_2
REMARK    2  A    between atoms: C_2  and  O_3
REMARK    3  A    between atoms: O_3  and  C_4
REMARK    4  A    between atoms: C_4  and  C_6
REMARK    5  A    between atoms: C_31  and  C_32
REMARK                            x       y       z     vdW  Elec       q    Type
REMARK                         _______ _______ _______ _____ _____    ______ ____
ROOT
ATOM      1  C   UNL     1      -2.830  11.652  17.995  0.00  0.00    +0.000 C 
ATOM      2  C   UNL     1      -3.983  12.147  18.905  0.00  0.00    +0.000 C 
ATOM      3  C   UNL     1      -5.355  11.526  18.993  0.00  0.00    +0.000 C 
ATOM      4  O   UNL     1      -6.183  12.272  19.918  0.00  0.00    +0.000 OA
ATOM      5  C   UNL     1      -5.604  12.599  21.121  0.00  0.00    +0.000 A 
ATOM      6  C   UNL     1      -6.468  12.964  22.154  0.00  0.00    +0.000 A 
ATOM      7  C   UNL     1      -5.960  13.263  23.424  0.00  0.00    +0.000 A 
ATOM      8  C   UNL     1      -4.595  13.157  23.667  0.00  0.00    +0.000 A 
ATOM      9 CL   UNL     1      -3.964  13.483  25.234  0.00  0.00    +0.000 Cl
ATOM     10  C   UNL     1      -3.733  12.780  22.645  0.00  0.00    +0.000 A 
ATOM     11  C   UNL     1      -4.223  12.578  21.345  0.00  0.00    +0.000 A 
ATOM     12  C   UNL     1      -3.318  12.151  20.252  0.00  0.00    +0.000 C 
ATOM     13  N   UNL     1      -2.086  12.839  19.870  0.00  0.00    +0.000 N 
ATOM     14  C   UNL     1      -1.467  13.874  20.515  0.00  0.00    +0.000 C 
ATOM     15  O   UNL     1      -1.943  14.618  21.353  0.00  0.00    +0.000 OA
ATOM     16  C   UNL     1      -0.057  14.046  20.164  0.00  0.00    +0.000 A 
ATOM     17  C   UNL     1       0.351  15.165  19.441  0.00  0.00    +0.000 A 
ATOM     18  C   UNL     1       1.674  15.217  19.035  0.00  0.00    +0.000 A 
ATOM     19  F   UNL     1       2.037  16.091  18.088  0.00  0.00    +0.000 F 
ATOM     20  C   UNL     1       2.611  14.306  19.526  0.00  0.00    +0.000 A 
ATOM     21  C   UNL     1       2.192  13.206  20.281  0.00  0.00    +0.000 A 
ATOM     22  C   UNL     1       0.823  12.984  20.409  0.00  0.00    +0.000 A 
ATOM     23  N   UNL     1       0.372  11.636  20.444  0.00  0.00    +0.000 N 
ATOM     24  C   UNL     1      -0.620  11.092  19.608  0.00  0.00    +0.000 C 
ATOM     25  O   UNL     1      -0.770   9.871  19.572  0.00  0.00    +0.000 OA
ATOM     26  C   UNL     1      -1.514  12.080  18.743  0.00  0.00    +0.000 C 
ATOM     27  C   UNL     1      -0.679  12.786  17.656  0.00  0.00    +0.000 C 
ATOM     28  H   UNL     1       0.988  10.939  20.859  0.00  0.00    +0.000 HD
ENDROOT
BRANCH   1  29
ATOM     29  C   UNL     1      -2.856  10.232  17.517  0.00  0.00    +0.000 C 
ATOM     30  O   UNL     1      -3.410   9.332  18.098  0.00  0.00    +0.000 OA
BRANCH  29  31
ATOM     31  O   UNL     1      -2.299  10.133  16.264  0.00  0.00    +0.000 OA
BRANCH  31  33
ATOM     32  C   UNL     1      -3.120   9.989  14.007  0.00  0.00    +0.000 C 
ATOM     33  C   UNL     1      -3.033  10.841  15.254  0.00  0.00    +0.000 C 
ENDBRANCH  31  33
ENDBRANCH  29  31
ENDBRANCH   1  29
TORSDOF 3
ENDMDL
MODEL 4
REMARK VINA RESULT:      -6.9      1.089      1.195
REMARK  Name = 
REMARK  5 active torsions:
REMARK  status: ('A' for Active; 'I' for Inactive)
REMARK    1  A    between atoms: C_1  and  C_2
REMARK    2  A    between atoms: C_2  and  O_3
REMARK    3  A    between atoms: O_3  and  C_4
REMARK    4  A    between atoms: C_4  and  C_6
REMARK    5  A    between atoms: C_31  and  C_32
REMARK                            x       y       z     vdW  Elec       q    Type
REMARK                         _______ _______ _______ _____ _____    ______ ____
ROOT
ATOM      1  C   UNL     1      -0.055  11.655  20.582  0.00  0.00    +0.000 C 
ATOM      2  C   UNL     1       1.017  12.636  20.040  0.00  0.00    +0.000 C 
ATOM      3  C   UNL     1       2.061  12.304  19.004  0.00  0.00    +0.000 C 
ATOM      4  O   UNL     1       2.914  13.451  18.768  0.00  0.00    +0.000 OA
ATOM      5  C   UNL     1       2.275  14.655  18.599  0.00  0.00    +0.000 A 
ATOM      6  C   UNL     1       3.012  15.679  18.002  0.00  0.00    +0.000 A 
ATOM      7  C   UNL     1       2.418  16.921  17.749  0.00  0.00    +0.000 A 
ATOM      8  C   UNL     1       1.077  17.122  18.055  0.00  0.00    +0.000 A 
ATOM      9 CL   UNL     1       0.325  18.630  17.711  0.00  0.00    +0.000 Cl
ATOM     10  C   UNL     1       0.334  16.101  18.635  0.00  0.00    +0.000 A 
ATOM     11  C   UNL     1       0.951  14.890  18.985  0.00  0.00    +0.000 A 
ATOM     12  C   UNL     1       0.164  13.784  19.581  0.00  0.00    +0.000 C 
ATOM     13  N   UNL     1      -0.677  13.904  20.772  0.00  0.00    +0.000 N 
ATOM     14  C   UNL     1      -1.016  15.042  21.450  0.00  0.00    +0.000 C 
ATOM     15  O   UNL     1      -0.474  16.130  21.391  0.00  0.00    +0.000 OA
ATOM     16  C   UNL     1      -2.201  14.907  22.299  0.00  0.00    +0.000 A 
ATOM     17  C   UNL     1      -2.073  14.947  23.686  0.00  0.00    +0.000 A 
ATOM     18  C   UNL     1      -3.207  14.697  24.440  0.00  0.00    +0.000 A 
ATOM     19  F   UNL     1      -3.081  14.413  25.742  0.00  0.00    +0.000 F 
ATOM     20  C   UNL     1      -4.467  14.638  23.842  0.00  0.00    +0.000 A 
ATOM     21  C   UNL     1      -4.584  14.634  22.449  0.00  0.00    +0.000 A 
ATOM     22  C   UNL     1      -3.414  14.556  21.695  0.00  0.00    +0.000 A 
ATOM     23  N   UNL     1      -3.457  13.815  20.482  0.00  0.00    +0.000 N 
ATOM     24  C   UNL     1      -2.573  12.777  20.138  0.00  0.00    +0.000 C 
ATOM     25  O   UNL     1      -2.839  12.061  19.172  0.00  0.00    +0.000 OA
ATOM     26  C   UNL     1      -1.261  12.571  21.007  0.00  0.00    +0.000 C 
ATOM     27  C   UNL     1      -1.603  12.098  22.435  0.00  0.00    +0.000 C 
ATOM     28  H   UNL     1      -4.335  13.798  19.966  0.00  0.00    +0.000 HD
ENDROOT
BRANCH   1  29
ATOM     29  C   UNL     1      -0.423  10.467  19.746  0.00  0.00    +0.000 C 
ATOM     30  O   UNL     1      -0.430  10.462  18.540  0.00  0.00    +0.000 OA
BRANCH  29  31
ATOM     31  O   UNL     1      -0.599   9.356  20.537  0.00  0.00    +0.000 OA
BRANCH  31  33
ATOM     32  C   UNL     1       1.439   8.121  20.866  0.00  0.00    +0.000 C 
ATOM     33  C   UNL     1       0.479   9.131  21.456  0.00  0.00    +0.000 C 
ENDBRANCH  31  33
ENDBRANCH  29  31
ENDBRANCH   1  29
TORSDOF 3
ENDMDL
MODEL 5
REMARK VINA RESULT:      -6.8      0.945      1.006
REMARK  Name = 
REMARK  5 active torsions:
REMARK  status: ('A' for Active; 'I' for Inactive)
REMARK    1  A    between atoms: C_1  and  C_2
REMARK    2  A    between atoms: C_2  and  O_3
REMARK    3  A    between atoms: O_3  and  C_4
REMARK    4  A    between atoms: C_4  and  C_6
REMARK    5  A    between atoms: C_31  and  C_32
REMARK                            x       y       z     vdW  Elec       q    Type
REMARK                         _______ _______ _______ _____ _____    ______ ____
ROOT
ATOM      1  C   UNL     1       0.806  12.407  20.978  0.00  0.00    +0.000 C 
ATOM      2  C   UNL     1       1.480  13.626  20.296  0.00  0.00    +0.000 C 
ATOM      3  C   UNL     1       2.610  13.554  19.299  0.00  0.00    +0.000 C 
ATOM      4  O   UNL     1       3.010  14.888  18.900  0.00  0.00    +0.000 OA
ATOM      5  C   UNL     1       1.993  15.755  18.581  0.00  0.00    +0.000 A 
ATOM      6  C   UNL     1       2.342  16.887  17.843  0.00  0.00    +0.000 A 
ATOM      7  C   UNL     1       1.356  17.794  17.435  0.00  0.00    +0.000 A 
ATOM      8  C   UNL     1       0.020  17.545  17.730  0.00  0.00    +0.000 A 
ATOM      9 CL   UNL     1      -1.203  18.630  17.199  0.00  0.00    +0.000 Cl
ATOM     10  C   UNL     1      -0.333  16.411  18.451  0.00  0.00    +0.000 A 
ATOM     11  C   UNL     1       0.659  15.553  18.951  0.00  0.00    +0.000 A 
ATOM     12  C   UNL     1       0.293  14.327  19.700  0.00  0.00    +0.000 C 
ATOM     13  N   UNL     1      -0.576  14.294  20.876  0.00  0.00    +0.000 N 
ATOM     14  C   UNL     1      -1.318  15.315  21.401  0.00  0.00    +0.000 C 
ATOM     15  O   UNL     1      -1.193  16.508  21.190  0.00  0.00    +0.000 OA
ATOM     16  C   UNL     1      -2.407  14.881  22.277  0.00  0.00    +0.000 A 
ATOM     17  C   UNL     1      -2.349  15.143  23.644  0.00  0.00    +0.000 A 
ATOM     18  C   UNL     1      -3.347  14.606  24.441  0.00  0.00    +0.000 A 
ATOM     19  F   UNL     1      -3.174  14.557  25.767  0.00  0.00    +0.000 F 
ATOM     20  C   UNL     1      -4.484  14.028  23.874  0.00  0.00    +0.000 A 
ATOM     21  C   UNL     1      -4.544  13.802  22.495  0.00  0.00    +0.000 A 
ATOM     22  C   UNL     1      -3.397  14.048  21.742  0.00  0.00    +0.000 A 
ATOM     23  N   UNL     1      -3.134  13.189  20.639  0.00  0.00    +0.000 N 
ATOM     24  C   UNL     1      -1.929  12.496  20.424  0.00  0.00    +0.000 C 
ATOM     25  O   UNL     1      -1.892  11.614  19.566  0.00  0.00    +0.000 OA
ATOM     26  C   UNL     1      -0.659  12.883  21.295  0.00  0.00    +0.000 C 
ATOM     27  C   UNL     1      -0.861  12.509  22.777  0.00  0.00    +0.000 C 
ATOM     28  H   UNL     1      -3.931  12.796  20.142  0.00  0.00    +0.000 HD
ENDROOT
BRANCH   1  29
ATOM     29  C   UNL     1       0.910  11.068  20.313  0.00  0.00    +0.000 C 
ATOM     30  O   UNL     1       0.984  10.908  19.121  0.00  0.00    +0.000 OA
BRANCH  29  31
ATOM     31  O   UNL     1       1.061  10.074  21.251  0.00  0.00    +0.000 OA
BRANCH  31  33
ATOM     32  C   UNL     1      -0.529   8.591  22.281  0.00  0.00    +0.000 C 
ATOM     33  C   UNL     1       0.226   8.932  21.014  0.00  0.00    +0.000 C 
ENDBRANCH  31  33
ENDBRANCH  29  31
ENDBRANCH   1  29
TORSDOF 3
ENDMDL
MODEL 6
REMARK VINA RESULT:      -6.8      3.131      6.102
REMARK  Name = 
REMARK  5 active torsions:
REMARK  status: ('A' for Active; 'I' for Inactive)
REMARK    1  A    between atoms: C_1  and  C_2
REMARK    2  A    between atoms: C_2  and  O_3
REMARK    3  A    between atoms: O_3  and  C_4
REMARK    4  A    between atoms: C_4  and  C_6
REMARK    5  A    between atoms: C_31  and  C_32
REMARK                            x       y       z     vdW  Elec       q    Type
REMARK                         _______ _______ _______ _____ _____    ______ ____
ROOT
ATOM      1  C   UNL     1       1.550  15.099  20.933  0.00  0.00    +0.000 C 
ATOM      2  C   UNL     1       0.886  15.188  22.332  0.00  0.00    +0.000 C 
ATOM      3  C   UNL     1       0.786  16.436  23.173  0.00  0.00    +0.000 C 
ATOM      4  O   UNL     1       0.135  16.138  24.433  0.00  0.00    +0.000 OA
ATOM      5  C   UNL     1      -1.008  15.380  24.360  0.00  0.00    +0.000 A 
ATOM      6  C   UNL     1      -1.847  15.402  25.475  0.00  0.00    +0.000 A 
ATOM      7  C   UNL     1      -3.057  14.696  25.460  0.00  0.00    +0.000 A 
ATOM      8  C   UNL     1      -3.442  14.005  24.317  0.00  0.00    +0.000 A 
ATOM      9 CL   UNL     1      -4.944  13.168  24.273  0.00  0.00    +0.000 Cl
ATOM     10  C   UNL     1      -2.617  13.994  23.199  0.00  0.00    +0.000 A 
ATOM     11  C   UNL     1      -1.358  14.613  23.243  0.00  0.00    +0.000 A 
ATOM     12  C   UNL     1      -0.479  14.630  22.050  0.00  0.00    +0.000 C 
ATOM     13  N   UNL     1      -0.065  13.444  21.301  0.00  0.00    +0.000 N 
ATOM     14  C   UNL     1      -0.511  12.160  21.447  0.00  0.00    +0.000 C 
ATOM     15  O   UNL     1      -1.109  11.685  22.395  0.00  0.00    +0.000 OA
ATOM     16  C   UNL     1      -0.261  11.299  20.289  0.00  0.00    +0.000 A 
ATOM     17  C   UNL     1       0.658  10.256  20.381  0.00  0.00    +0.000 A 
ATOM     18  C   UNL     1       0.942   9.551  19.224  0.00  0.00    +0.000 A 
ATOM     19  F   UNL     1       2.026   8.766  19.181  0.00  0.00    +0.000 F 
ATOM     20  C   UNL     1       0.172   9.722  18.072  0.00  0.00    +0.000 A 
ATOM     21  C   UNL     1      -0.773  10.751  18.006  0.00  0.00    +0.000 A 
ATOM     22  C   UNL     1      -0.821  11.663  19.058  0.00  0.00    +0.000 A 
ATOM     23  N   UNL     1      -1.122  13.017  18.747  0.00  0.00    +0.000 N 
ATOM     24  C   UNL     1      -0.345  14.126  19.126  0.00  0.00    +0.000 C 
ATOM     25  O   UNL     1      -0.576  15.221  18.615  0.00  0.00    +0.000 OA
ATOM     26  C   UNL     1       0.801  13.921  20.207  0.00  0.00    +0.000 C 
ATOM     27  C   UNL     1       1.939  13.038  19.657  0.00  0.00    +0.000 C 
ATOM     28  H   UNL     1      -1.740  13.197  17.958  0.00  0.00    +0.000 HD
ENDROOT
BRANCH   1  29
ATOM     29  C   UNL     1       1.691  16.355  20.128  0.00  0.00    +0.000 C 
ATOM     30  O   UNL     1       0.928  17.287  20.188  0.00  0.00    +0.000 OA
BRANCH  29  31
ATOM     31  O   UNL     1       2.880  16.355  19.437  0.00  0.00    +0.000 OA
BRANCH  31  33
ATOM     32  C   UNL     1       3.634  15.495  17.321  0.00  0.00    +0.000 C 
ATOM     33  C   UNL     1       2.716  16.477  18.018  0.00  0.00    +0.000 C 
ENDBRANCH  31  33
ENDBRANCH  29  31
ENDBRANCH   1  29
TORSDOF 3
ENDMDL
MODEL 7
REMARK VINA RESULT:      -6.7      3.179      6.909
REMARK  Name = 
REMARK  5 active torsions:
REMARK  status: ('A' for Active; 'I' for Inactive)
REMARK    1  A    between atoms: C_1  and  C_2
REMARK    2  A    between atoms: C_2  and  O_3
REMARK    3  A    between atoms: O_3  and  C_4
REMARK    4  A    between atoms: C_4  and  C_6
REMARK    5  A    between atoms: C_31  and  C_32
REMARK                            x       y       z     vdW  Elec       q    Type
REMARK                         _______ _______ _______ _____ _____    ______ ____
ROOT
ATOM      1  C   UNL     1      -2.333  13.104  23.016  0.00  0.00    +0.000 C 
ATOM      2  C   UNL     1      -3.773  12.664  22.645  0.00  0.00    +0.000 C 
ATOM      3  C   UNL     1      -5.016  12.987  23.435  0.00  0.00    +0.000 C 
ATOM      4  O   UNL     1      -6.176  12.383  22.810  0.00  0.00    +0.000 OA
ATOM      5  C   UNL     1      -6.282  12.542  21.450  0.00  0.00    +0.000 A 
ATOM      6  C   UNL     1      -7.540  12.318  20.888  0.00  0.00    +0.000 A 
ATOM      7  C   UNL     1      -7.743  12.507  19.516  0.00  0.00    +0.000 A 
ATOM      8  C   UNL     1      -6.698  12.958  18.717  0.00  0.00    +0.000 A 
ATOM      9 CL   UNL     1      -6.946  13.233  17.037  0.00  0.00    +0.000 Cl
ATOM     10  C   UNL     1      -5.448  13.196  19.274  0.00  0.00    +0.000 A 
ATOM     11  C   UNL     1      -5.211  12.911  20.628  0.00  0.00    +0.000 A 
ATOM     12  C   UNL     1      -3.889  13.184  21.240  0.00  0.00    +0.000 C 
ATOM     13  N   UNL     1      -2.613  12.685  20.730  0.00  0.00    +0.000 N 
ATOM     14  C   UNL     1      -2.377  12.030  19.553  0.00  0.00    +0.000 C 
ATOM     15  O   UNL     1      -3.190  11.476  18.836  0.00  0.00    +0.000 OA
ATOM     16  C   UNL     1      -0.980  12.059  19.117  0.00  0.00    +0.000 A 
ATOM     17  C   UNL     1      -0.224  10.889  19.118  0.00  0.00    +0.000 A 
ATOM     18  C   UNL     1       1.122  10.997  18.809  0.00  0.00    +0.000 A 
ATOM     19  F   UNL     1       1.947   9.983  19.099  0.00  0.00    +0.000 F 
ATOM     20  C   UNL     1       1.646  12.183  18.292  0.00  0.00    +0.000 A 
ATOM     21  C   UNL     1       0.864  13.343  18.263  0.00  0.00    +0.000 A 
ATOM     22  C   UNL     1      -0.385  13.305  18.880  0.00  0.00    +0.000 A 
ATOM     23  N   UNL     1      -0.834  14.483  19.537  0.00  0.00    +0.000 N 
ATOM     24  C   UNL     1      -1.277  14.546  20.871  0.00  0.00    +0.000 C 
ATOM     25  O   UNL     1      -1.428  15.648  21.399  0.00  0.00    +0.000 OA
ATOM     26  C   UNL     1      -1.571  13.190  21.643  0.00  0.00    +0.000 C 
ATOM     27  C   UNL     1      -0.275  12.390  21.884  0.00  0.00    +0.000 C 
ATOM     28  H   UNL     1      -0.540  15.380  19.157  0.00  0.00    +0.000 HD
ENDROOT
BRANCH   1  29
ATOM     29  C   UNL     1      -2.158  14.290  23.915  0.00  0.00    +0.000 C 
ATOM     30  O   UNL     1      -1.153  14.528  24.536  0.00  0.00    +0.000 OA
BRANCH  29  31
ATOM     31  O   UNL     1      -3.237  15.137  23.812  0.00  0.00    +0.000 OA
BRANCH  31  33
ATOM     32  C   UNL     1      -4.722  16.733  24.830  0.00  0.00    +0.000 C 
ATOM     33  C   UNL     1      -3.417  15.977  24.961  0.00  0.00    +0.000 C 
ENDBRANCH  31  33
ENDBRANCH  29  31
ENDBRANCH   1  29
TORSDOF 3
ENDMDL
MODEL 8
REMARK VINA RESULT:      -6.7      3.138      6.851
REMARK  Name = 
REMARK  5 active torsions:
REMARK  status: ('A' for Active; 'I' for Inactive)
REMARK    1  A    between atoms: C_1  and  C_2
REMARK    2  A    between atoms: C_2  and  O_3
REMARK    3  A    between atoms: O_3  and  C_4
REMARK    4  A    between atoms: C_4  and  C_6
REMARK    5  A    between atoms: C_31  and  C_32
REMARK                            x       y       z     vdW  Elec       q    Type
REMARK                         _______ _______ _______ _____ _____    ______ ____
ROOT
ATOM      1  C   UNL     1      -2.430  13.305  23.096  0.00  0.00    +0.000 C 
ATOM      2  C   UNL     1      -3.827  12.743  22.724  0.00  0.00    +0.000 C 
ATOM      3  C   UNL     1      -5.093  12.954  23.516  0.00  0.00    +0.000 C 
ATOM      4  O   UNL     1      -6.197  12.256  22.890  0.00  0.00    +0.000 OA
ATOM      5  C   UNL     1      -6.317  12.409  21.530  0.00  0.00    +0.000 A 
ATOM      6  C   UNL     1      -7.552  12.080  20.968  0.00  0.00    +0.000 A 
ATOM      7  C   UNL     1      -7.772  12.256  19.597  0.00  0.00    +0.000 A 
ATOM      8  C   UNL     1      -6.770  12.798  18.798  0.00  0.00    +0.000 A 
ATOM      9 CL   UNL     1      -7.042  13.057  17.120  0.00  0.00    +0.000 Cl
ATOM     10  C   UNL     1      -5.545  13.141  19.356  0.00  0.00    +0.000 A 
ATOM     11  C   UNL     1      -5.284  12.872  20.709  0.00  0.00    +0.000 A 
ATOM     12  C   UNL     1      -3.989  13.256  21.321  0.00  0.00    +0.000 C 
ATOM     13  N   UNL     1      -2.675  12.871  20.809  0.00  0.00    +0.000 N 
ATOM     14  C   UNL     1      -2.384  12.243  19.629  0.00  0.00    +0.000 C 
ATOM     15  O   UNL     1      -3.147  11.624  18.911  0.00  0.00    +0.000 OA
ATOM     16  C   UNL     1      -0.996  12.395  19.192  0.00  0.00    +0.000 A 
ATOM     17  C   UNL     1      -0.141  11.294  19.189  0.00  0.00    +0.000 A 
ATOM     18  C   UNL     1       1.190  11.519  18.880  0.00  0.00    +0.000 A 
ATOM     19  F   UNL     1       2.099  10.579  19.165  0.00  0.00    +0.000 F 
ATOM     20  C   UNL     1       1.609  12.748  18.367  0.00  0.00    +0.000 A 
ATOM     21  C   UNL     1       0.730  13.836  18.343  0.00  0.00    +0.000 A 
ATOM     22  C   UNL     1      -0.510  13.688  18.960  0.00  0.00    +0.000 A 
ATOM     23  N   UNL     1      -1.059  14.820  19.622  0.00  0.00    +0.000 N 
ATOM     24  C   UNL     1      -1.505  14.841  20.956  0.00  0.00    +0.000 C 
ATOM     25  O   UNL     1      -1.750  15.923  21.488  0.00  0.00    +0.000 OA
ATOM     26  C   UNL     1      -1.680  13.461  21.723  0.00  0.00    +0.000 C 
ATOM     27  C   UNL     1      -0.320  12.775  21.960  0.00  0.00    +0.000 C 
ATOM     28  H   UNL     1      -0.844  15.742  19.245  0.00  0.00    +0.000 HD
ENDROOT
BRANCH   1  29
ATOM     29  C   UNL     1      -2.358  14.498  24.000  0.00  0.00    +0.000 C 
ATOM     30  O   UNL     1      -3.308  15.175  24.306  0.00  0.00    +0.000 OA
BRANCH  29  31
ATOM     31  O   UNL     1      -1.101  14.617  24.544  0.00  0.00    +0.000 OA
BRANCH  31  33
ATOM     32  C   UNL     1      -0.711  15.995  26.477  0.00  0.00    +0.000 C 
ATOM     33  C   UNL     1      -0.783  15.950  24.966  0.00  0.00    +0.000 C 
ENDBRANCH  31  33
ENDBRANCH  29  31
ENDBRANCH   1  29
TORSDOF 3
ENDMDL
MODEL 9
REMARK VINA RESULT:      -6.7      0.831      1.255
REMARK  Name = 
REMARK  5 active torsions:
REMARK  status: ('A' for Active; 'I' for Inactive)
REMARK    1  A    between atoms: C_1  and  C_2
REMARK    2  A    between atoms: C_2  and  O_3
REMARK    3  A    between atoms: O_3  and  C_4
REMARK    4  A    between atoms: C_4  and  C_6
REMARK    5  A    between atoms: C_31  and  C_32
REMARK                            x       y       z     vdW  Elec       q    Type
REMARK                         _______ _______ _______ _____ _____    ______ ____
ROOT
ATOM      1  C   UNL     1       0.650  11.904  20.914  0.00  0.00    +0.000 C 
ATOM      2  C   UNL     1       1.382  13.148  20.345  0.00  0.00    +0.000 C 
ATOM      3  C   UNL     1       2.551  13.113  19.392  0.00  0.00    +0.000 C 
ATOM      4  O   UNL     1       3.000  14.460  19.103  0.00  0.00    +0.000 OA
ATOM      5  C   UNL     1       2.018  15.374  18.803  0.00  0.00    +0.000 A 
ATOM      6  C   UNL     1       2.426  16.543  18.160  0.00  0.00    +0.000 A 
ATOM      7  C   UNL     1       1.481  17.502  17.775  0.00  0.00    +0.000 A 
ATOM      8  C   UNL     1       0.128  17.270  17.999  0.00  0.00    +0.000 A 
ATOM      9 CL   UNL     1      -1.045  18.422  17.494  0.00  0.00    +0.000 Cl
ATOM     10  C   UNL     1      -0.283  16.100  18.625  0.00  0.00    +0.000 A 
ATOM     11  C   UNL     1       0.665  15.183  19.104  0.00  0.00    +0.000 A 
ATOM     12  C   UNL     1       0.239  13.919  19.751  0.00  0.00    +0.000 C 
ATOM     13  N   UNL     1      -0.680  13.830  20.885  0.00  0.00    +0.000 N 
ATOM     14  C   UNL     1      -1.419  14.833  21.449  0.00  0.00    +0.000 C 
ATOM     15  O   UNL     1      -1.256  16.034  21.326  0.00  0.00    +0.000 OA
ATOM     16  C   UNL     1      -2.554  14.370  22.248  0.00  0.00    +0.000 A 
ATOM     17  C   UNL     1      -2.548  14.537  23.631  0.00  0.00    +0.000 A 
ATOM     18  C   UNL     1      -3.591  13.975  24.348  0.00  0.00    +0.000 A 
ATOM     19  F   UNL     1      -3.476  13.831  25.674  0.00  0.00    +0.000 F 
ATOM     20  C   UNL     1      -4.717  13.467  23.696  0.00  0.00    +0.000 A 
ATOM     21  C   UNL     1      -4.724  13.338  22.304  0.00  0.00    +0.000 A 
ATOM     22  C   UNL     1      -3.541  13.602  21.617  0.00  0.00    +0.000 A 
ATOM     23  N   UNL     1      -3.252  12.814  20.469  0.00  0.00    +0.000 N 
ATOM     24  C   UNL     1      -2.056  12.104  20.256  0.00  0.00    +0.000 C 
ATOM     25  O   UNL     1      -2.004  11.282  19.341  0.00  0.00    +0.000 OA
ATOM     26  C   UNL     1      -0.815  12.397  21.202  0.00  0.00    +0.000 C 
ATOM     27  C   UNL     1      -1.089  11.929  22.646  0.00  0.00    +0.000 C 
ATOM     28  H   UNL     1      -4.036  12.477  19.915  0.00  0.00    +0.000 HD
ENDROOT
BRANCH   1  29
ATOM     29  C   UNL     1       0.750  10.611  20.163  0.00  0.00    +0.000 C 
ATOM     30  O   UNL     1       0.493   9.532  20.635  0.00  0.00    +0.000 OA
BRANCH  29  31
ATOM     31  O   UNL     1       1.023  10.844  18.835  0.00  0.00    +0.000 OA
BRANCH  31  33
ATOM     32  C   UNL     1       2.242   9.026  17.836  0.00  0.00    +0.000 C 
ATOM     33  C   UNL     1       0.887   9.678  18.010  0.00  0.00    +0.000 C 
ENDBRANCH  31  33
ENDBRANCH  29  31
ENDBRANCH   1  29
TORSDOF 3
ENDMDL
