MODEL 1
REMARK VINA RESULT:      -8.2      0.000      0.000
REMARK  Name = 
REMARK  6 active torsions:
REMARK  status: ('A' for Active; 'I' for Inactive)
REMARK    1  A    between atoms: C_1  and  C_2
REMARK    2  A    between atoms: CA_5  and  C_6
REMARK    3  A    between atoms: C_6  and  O_7
REMARK    4  A    between atoms: C_9  and  C_10
REMARK    5  A    between atoms: C_15  and  N_16
REMARK    6  A    between atoms: C_17  and  C_19
REMARK                            x       y       z     vdW  Elec       q    Type
REMARK                         _______ _______ _______ _____ _____    ______ ____
ROOT
ATOM      1  C   UNL     1       2.706   7.195  18.441  0.00  0.00    +0.000 A 
ATOM      2  C   UNL     1       2.264   8.216  17.582  0.00  0.00    +0.000 A 
ATOM      3  C   UNL     1       1.537   9.325  18.033  0.00  0.00    +0.000 A 
ATOM      4  C   UNL     1       1.140   9.410  19.369  0.00  0.00    +0.000 A 
ATOM      5  C   UNL     1       0.376  10.480  19.851  0.00  0.00    +0.000 A 
ATOM      6  C   UNL     1      -0.012  10.484  21.183  0.00  0.00    +0.000 A 
ATOM      7  N   UNL     1       0.316   9.490  22.025  0.00  0.00    +0.000 NA
ATOM      8  C   UNL     1       1.062   8.471  21.552  0.00  0.00    +0.000 A 
ATOM      9  C   UNL     1       1.512   8.378  20.240  0.00  0.00    +0.000 A 
ATOM     10  C   UNL     1       2.303   7.306  19.784  0.00  0.00    +0.000 A 
ENDROOT
BRANCH   1  17
ATOM     11  C   UNL     1       1.579   4.375  17.727  0.00  0.00    +0.000 C 
ATOM     12  C   UNL     1       3.028   4.765  17.657  0.00  0.00    +0.000 A 
ATOM     13  C   UNL     1       3.928   3.789  17.222  0.00  0.00    +0.000 A 
ATOM     14  N   UNL     1       5.255   3.968  17.054  0.00  0.00    +0.000 NA
ATOM     15  CA  UNL     1       5.749   5.184  17.355  0.00  0.00    +0.000 A 
ATOM     16  C   UNL     1       4.935   6.221  17.816  0.00  0.00    +0.000 A 
ATOM     17  C   UNL     1       3.541   6.044  17.978  0.00  0.00    +0.000 A 
BRANCH  15  18
ATOM     18  C   UNL     1       7.235   5.387  17.188  0.00  0.00    +0.000 C 
BRANCH  18  19
ATOM     19  O   UNL     1       7.923   4.146  17.058  0.00  0.00    +0.000 OA
ATOM     20  H   UNL     1       8.137   4.054  16.113  0.00  0.00    +0.000 HD
ENDBRANCH  18  19
ENDBRANCH  15  18
ENDBRANCH   1  17
BRANCH   6  21
ATOM     21  N   UNL     1      -0.764  11.568  21.644  0.00  0.00    +0.000 N 
ATOM     22  C   UNL     1      -0.266  12.827  21.879  0.00  0.00    +0.000 C 
ATOM     23  O   UNL     1       0.883  13.226  21.739  0.00  0.00    +0.000 OA
ATOM     24  H   UNL     1      -1.747  11.429  21.791  0.00  0.00    +0.000 HD
BRANCH  22  25
ATOM     25  C   UNL     1      -1.315  13.790  22.333  0.00  0.00    +0.000 C 
ATOM     26  C   UNL     1      -1.457  14.127  23.801  0.00  0.00    +0.000 C 
ATOM     27  C   UNL     1      -0.904  15.148  22.851  0.00  0.00    +0.000 C 
ENDBRANCH  22  25
ENDBRANCH   6  21
TORSDOF 5
ENDMDL
MODEL 2
REMARK VINA RESULT:      -8.1      1.111      1.249
REMARK  Name = 
REMARK  6 active torsions:
REMARK  status: ('A' for Active; 'I' for Inactive)
REMARK    1  A    between atoms: C_1  and  C_2
REMARK    2  A    between atoms: CA_5  and  C_6
REMARK    3  A    between atoms: C_6  and  O_7
REMARK    4  A    between atoms: C_9  and  C_10
REMARK    5  A    between atoms: C_15  and  N_16
REMARK    6  A    between atoms: C_17  and  C_19
REMARK                            x       y       z     vdW  Elec       q    Type
REMARK                         _______ _______ _______ _____ _____    ______ ____
ROOT
ATOM      1  C   UNL     1       2.744   7.133  18.339  0.00  0.00    +0.000 A 
ATOM      2  C   UNL     1       2.295   8.166  17.498  0.00  0.00    +0.000 A 
ATOM      3  C   UNL     1       1.618   9.294  17.977  0.00  0.00    +0.000 A 
ATOM      4  C   UNL     1       1.277   9.389  19.328  0.00  0.00    +0.000 A 
ATOM      5  C   UNL     1       0.561  10.478  19.840  0.00  0.00    +0.000 A 
ATOM      6  C   UNL     1       0.227  10.492  21.186  0.00  0.00    +0.000 A 
ATOM      7  N   UNL     1       0.562   9.489  22.014  0.00  0.00    +0.000 NA
ATOM      8  C   UNL     1       1.261   8.451  21.513  0.00  0.00    +0.000 A 
ATOM      9  C   UNL     1       1.655   8.346  20.184  0.00  0.00    +0.000 A 
ATOM     10  C   UNL     1       2.398   7.253  19.698  0.00  0.00    +0.000 A 
ENDROOT
BRANCH   1  17
ATOM     11  C   UNL     1       1.548   4.294  17.846  0.00  0.00    +0.000 C 
ATOM     12  C   UNL     1       2.984   4.673  17.623  0.00  0.00    +0.000 A 
ATOM     13  C   UNL     1       3.836   3.675  17.142  0.00  0.00    +0.000 A 
ATOM     14  N   UNL     1       5.141   3.839  16.842  0.00  0.00    +0.000 NA
ATOM     15  CA  UNL     1       5.665   5.064  17.047  0.00  0.00    +0.000 A 
ATOM     16  C   UNL     1       4.901   6.122  17.543  0.00  0.00    +0.000 A 
ATOM     17  C   UNL     1       3.528   5.960  17.844  0.00  0.00    +0.000 A 
BRANCH  15  18
ATOM     18  C   UNL     1       7.129   5.251  16.731  0.00  0.00    +0.000 C 
BRANCH  18  19
ATOM     19  O   UNL     1       7.907   4.140  17.167  0.00  0.00    +0.000 OA
ATOM     20  H   UNL     1       7.361   3.671  17.824  0.00  0.00    +0.000 HD
ENDBRANCH  18  19
ENDBRANCH  15  18
ENDBRANCH   1  17
BRANCH   6  21
ATOM     21  N   UNL     1      -0.476  11.596  21.676  0.00  0.00    +0.000 N 
ATOM     22  C   UNL     1      -1.354  11.562  22.733  0.00  0.00    +0.000 C 
ATOM     23  O   UNL     1      -1.678  10.602  23.419  0.00  0.00    +0.000 OA
ATOM     24  H   UNL     1      -0.311  12.487  21.245  0.00  0.00    +0.000 HD
BRANCH  22  25
ATOM     25  C   UNL     1      -1.928  12.905  23.051  0.00  0.00    +0.000 C 
ATOM     26  C   UNL     1      -3.211  13.363  22.393  0.00  0.00    +0.000 C 
ATOM     27  C   UNL     1      -3.208  12.997  23.848  0.00  0.00    +0.000 C 
ENDBRANCH  22  25
ENDBRANCH   6  21
TORSDOF 5
ENDMDL
MODEL 3
REMARK VINA RESULT:      -7.9      0.891      1.556
REMARK  Name = 
REMARK  6 active torsions:
REMARK  status: ('A' for Active; 'I' for Inactive)
REMARK    1  A    between atoms: C_1  and  C_2
REMARK    2  A    between atoms: CA_5  and  C_6
REMARK    3  A    between atoms: C_6  and  O_7
REMARK    4  A    between atoms: C_9  and  C_10
REMARK    5  A    between atoms: C_15  and  N_16
REMARK    6  A    between atoms: C_17  and  C_19
REMARK                            x       y       z     vdW  Elec       q    Type
REMARK                         _______ _______ _______ _____ _____    ______ ____
ROOT
ATOM      1  C   UNL     1       2.722   6.703  18.862  0.00  0.00    +0.000 A 
ATOM      2  C   UNL     1       2.278   6.572  20.189  0.00  0.00    +0.000 A 
ATOM      3  C   UNL     1       1.508   7.550  20.831  0.00  0.00    +0.000 A 
ATOM      4  C   UNL     1       1.226   8.757  20.188  0.00  0.00    +0.000 A 
ATOM      5  C   UNL     1       0.498   9.779  20.810  0.00  0.00    +0.000 A 
ATOM      6  C   UNL     1       0.284  10.967  20.125  0.00  0.00    +0.000 A 
ATOM      7  N   UNL     1       0.759  11.171  18.886  0.00  0.00    +0.000 NA
ATOM      8  C   UNL     1       1.449  10.176  18.292  0.00  0.00    +0.000 A 
ATOM      9  C   UNL     1       1.708   8.946  18.886  0.00  0.00    +0.000 A 
ATOM     10  C   UNL     1       2.419   7.923  18.230  0.00  0.00    +0.000 A 
ENDROOT
BRANCH   1  17
ATOM     11  C   UNL     1       1.444   4.109  17.687  0.00  0.00    +0.000 C 
ATOM     12  C   UNL     1       2.904   4.457  17.618  0.00  0.00    +0.000 A 
ATOM     13  C   UNL     1       3.741   3.551  16.961  0.00  0.00    +0.000 A 
ATOM     14  N   UNL     1       5.066   3.713  16.763  0.00  0.00    +0.000 NA
ATOM     15  CA  UNL     1       5.625   4.833  17.263  0.00  0.00    +0.000 A 
ATOM     16  C   UNL     1       4.877   5.790  17.951  0.00  0.00    +0.000 A 
ATOM     17  C   UNL     1       3.485   5.633  18.148  0.00  0.00    +0.000 A 
BRANCH  15  18
ATOM     18  C   UNL     1       7.110   5.013  17.061  0.00  0.00    +0.000 C 
BRANCH  18  19
ATOM     19  O   UNL     1       7.862   4.080  17.832  0.00  0.00    +0.000 OA
ATOM     20  H   UNL     1       8.758   4.078  17.451  0.00  0.00    +0.000 HD
ENDBRANCH  18  19
ENDBRANCH  15  18
ENDBRANCH   1  17
BRANCH   6  21
ATOM     21  N   UNL     1      -0.456  11.966  20.762  0.00  0.00    +0.000 N 
ATOM     22  C   UNL     1       0.084  13.029  21.445  0.00  0.00    +0.000 C 
ATOM     23  O   UNL     1       1.265  13.294  21.624  0.00  0.00    +0.000 OA
ATOM     24  H   UNL     1      -1.457  11.924  20.696  0.00  0.00    +0.000 HD
BRANCH  22  25
ATOM     25  C   UNL     1      -0.955  13.956  21.990  0.00  0.00    +0.000 C 
ATOM     26  C   UNL     1      -1.381  13.859  23.439  0.00  0.00    +0.000 C 
ATOM     27  C   UNL     1      -0.554  15.024  22.980  0.00  0.00    +0.000 C 
ENDBRANCH  22  25
ENDBRANCH   6  21
TORSDOF 5
ENDMDL
MODEL 4
REMARK VINA RESULT:      -7.9      1.194      1.302
REMARK  Name = 
REMARK  6 active torsions:
REMARK  status: ('A' for Active; 'I' for Inactive)
REMARK    1  A    between atoms: C_1  and  C_2
REMARK    2  A    between atoms: CA_5  and  C_6
REMARK    3  A    between atoms: C_6  and  O_7
REMARK    4  A    between atoms: C_9  and  C_10
REMARK    5  A    between atoms: C_15  and  N_16
REMARK    6  A    between atoms: C_17  and  C_19
REMARK                            x       y       z     vdW  Elec       q    Type
REMARK                         _______ _______ _______ _____ _____    ______ ____
ROOT
ATOM      1  C   UNL     1       2.774   7.206  18.477  0.00  0.00    +0.000 A 
ATOM      2  C   UNL     1       2.494   8.271  17.605  0.00  0.00    +0.000 A 
ATOM      3  C   UNL     1       1.764   9.400  17.995  0.00  0.00    +0.000 A 
ATOM      4  C   UNL     1       1.198   9.466  19.270  0.00  0.00    +0.000 A 
ATOM      5  C   UNL     1       0.425  10.556  19.686  0.00  0.00    +0.000 A 
ATOM      6  C   UNL     1      -0.135  10.540  20.955  0.00  0.00    +0.000 A 
ATOM      7  N   UNL     1       0.035   9.508  21.797  0.00  0.00    +0.000 NA
ATOM      8  C   UNL     1       0.791   8.468  21.390  0.00  0.00    +0.000 A 
ATOM      9  C   UNL     1       1.406   8.392  20.145  0.00  0.00    +0.000 A 
ATOM     10  C   UNL     1       2.202   7.296  19.760  0.00  0.00    +0.000 A 
ENDROOT
BRANCH   1  17
ATOM     11  C   UNL     1       1.630   4.418  17.669  0.00  0.00    +0.000 C 
ATOM     12  C   UNL     1       3.090   4.765  17.723  0.00  0.00    +0.000 A 
ATOM     13  C   UNL     1       3.995   3.762  17.366  0.00  0.00    +0.000 A 
ATOM     14  N   UNL     1       5.336   3.902  17.313  0.00  0.00    +0.000 NA
ATOM     15  CA  UNL     1       5.838   5.104  17.656  0.00  0.00    +0.000 A 
ATOM     16  C   UNL     1       5.019   6.165  18.045  0.00  0.00    +0.000 A 
ATOM     17  C   UNL     1       3.611   6.029  18.087  0.00  0.00    +0.000 A 
BRANCH  15  18
ATOM     18  C   UNL     1       7.339   5.262  17.616  0.00  0.00    +0.000 C 
BRANCH  18  19
ATOM     19  O   UNL     1       7.972   4.122  17.043  0.00  0.00    +0.000 OA
ATOM     20  H   UNL     1       7.384   3.368  17.224  0.00  0.00    +0.000 HD
ENDBRANCH  18  19
ENDBRANCH  15  18
ENDBRANCH   1  17
BRANCH   6  21
ATOM     21  N   UNL     1      -0.893  11.646  21.351  0.00  0.00    +0.000 N 
ATOM     22  C   UNL     1      -1.951  12.167  20.646  0.00  0.00    +0.000 C 
ATOM     23  O   UNL     1      -2.414  11.784  19.580  0.00  0.00    +0.000 OA
ATOM     24  H   UNL     1      -0.669  12.078  22.229  0.00  0.00    +0.000 HD
BRANCH  22  25
ATOM     25  C   UNL     1      -2.591  13.328  21.336  0.00  0.00    +0.000 C 
ATOM     26  C   UNL     1      -3.897  13.151  22.078  0.00  0.00    +0.000 C 
ATOM     27  C   UNL     1      -2.627  13.369  22.846  0.00  0.00    +0.000 C 
ENDBRANCH  22  25
ENDBRANCH   6  21
TORSDOF 5
ENDMDL
MODEL 5
REMARK VINA RESULT:      -7.8      1.481      2.026
REMARK  Name = 
REMARK  6 active torsions:
REMARK  status: ('A' for Active; 'I' for Inactive)
REMARK    1  A    between atoms: C_1  and  C_2
REMARK    2  A    between atoms: CA_5  and  C_6
REMARK    3  A    between atoms: C_6  and  O_7
REMARK    4  A    between atoms: C_9  and  C_10
REMARK    5  A    between atoms: C_15  and  N_16
REMARK    6  A    between atoms: C_17  and  C_19
REMARK                            x       y       z     vdW  Elec       q    Type
REMARK                         _______ _______ _______ _____ _____    ______ ____
ROOT
ATOM      1  C   UNL     1       2.644   6.901  18.850  0.00  0.00    +0.000 A 
ATOM      2  C   UNL     1       2.220   6.738  20.181  0.00  0.00    +0.000 A 
ATOM      3  C   UNL     1       1.385   7.656  20.829  0.00  0.00    +0.000 A 
ATOM      4  C   UNL     1       1.010   8.839  20.190  0.00  0.00    +0.000 A 
ATOM      5  C   UNL     1       0.214   9.804  20.818  0.00  0.00    +0.000 A 
ATOM      6  C   UNL     1      -0.094  10.973  20.136  0.00  0.00    +0.000 A 
ATOM      7  N   UNL     1       0.355  11.212  18.893  0.00  0.00    +0.000 NA
ATOM      8  C   UNL     1       1.113  10.271  18.294  0.00  0.00    +0.000 A 
ATOM      9  C   UNL     1       1.466   9.063  18.884  0.00  0.00    +0.000 A 
ATOM     10  C   UNL     1       2.247   8.096  18.222  0.00  0.00    +0.000 A 
ENDROOT
BRANCH   1  17
ATOM     11  C   UNL     1       1.573   4.178  17.768  0.00  0.00    +0.000 C 
ATOM     12  C   UNL     1       2.991   4.656  17.642  0.00  0.00    +0.000 A 
ATOM     13  C   UNL     1       3.887   3.817  16.973  0.00  0.00    +0.000 A 
ATOM     14  N   UNL     1       5.184   4.096  16.726  0.00  0.00    +0.000 NA
ATOM     15  CA  UNL     1       5.653   5.272  17.186  0.00  0.00    +0.000 A 
ATOM     16  C   UNL     1       4.843   6.171  17.883  0.00  0.00    +0.000 A 
ATOM     17  C   UNL     1       3.478   5.891  18.130  0.00  0.00    +0.000 A 
BRANCH  15  18
ATOM     18  C   UNL     1       7.107   5.584  16.929  0.00  0.00    +0.000 C 
BRANCH  18  19
ATOM     19  O   UNL     1       7.853   4.405  16.636  0.00  0.00    +0.000 OA
ATOM     20  H   UNL     1       7.220   3.667  16.687  0.00  0.00    +0.000 HD
ENDBRANCH  18  19
ENDBRANCH  15  18
ENDBRANCH   1  17
BRANCH   6  21
ATOM     21  N   UNL     1      -0.901  11.915  20.779  0.00  0.00    +0.000 N 
ATOM     22  C   UNL     1      -2.151  12.299  20.356  0.00  0.00    +0.000 C 
ATOM     23  O   UNL     1      -2.772  11.910  19.376  0.00  0.00    +0.000 OA
ATOM     24  H   UNL     1      -0.558  12.325  21.629  0.00  0.00    +0.000 HD
BRANCH  22  25
ATOM     25  C   UNL     1      -2.789  13.298  21.266  0.00  0.00    +0.000 C 
ATOM     26  C   UNL     1      -3.788  12.852  22.311  0.00  0.00    +0.000 C 
ATOM     27  C   UNL     1      -2.423  13.310  22.732  0.00  0.00    +0.000 C 
ENDBRANCH  22  25
ENDBRANCH   6  21
TORSDOF 5
ENDMDL
MODEL 6
REMARK VINA RESULT:      -7.8      1.888      2.944
REMARK  Name = 
REMARK  6 active torsions:
REMARK  status: ('A' for Active; 'I' for Inactive)
REMARK    1  A    between atoms: C_1  and  C_2
REMARK    2  A    between atoms: CA_5  and  C_6
REMARK    3  A    between atoms: C_6  and  O_7
REMARK    4  A    between atoms: C_9  and  C_10
REMARK    5  A    between atoms: C_15  and  N_16
REMARK    6  A    between atoms: C_17  and  C_19
REMARK                            x       y       z     vdW  Elec       q    Type
REMARK                         _______ _______ _______ _____ _____    ______ ____
ROOT
ATOM      1  C   UNL     1       4.125   6.304  17.936  0.00  0.00    +0.000 A 
ATOM      2  C   UNL     1       3.607   5.824  19.151  0.00  0.00    +0.000 A 
ATOM      3  C   UNL     1       2.583   6.475  19.850  0.00  0.00    +0.000 A 
ATOM      4  C   UNL     1       2.093   7.701  19.398  0.00  0.00    +0.000 A 
ATOM      5  C   UNL     1       1.101   8.407  20.089  0.00  0.00    +0.000 A 
ATOM      6  C   UNL     1       0.684   9.637  19.602  0.00  0.00    +0.000 A 
ATOM      7  N   UNL     1       1.207  10.177  18.489  0.00  0.00    +0.000 NA
ATOM      8  C   UNL     1       2.154   9.484  17.825  0.00  0.00    +0.000 A 
ATOM      9  C   UNL     1       2.632   8.240  18.222  0.00  0.00    +0.000 A 
ATOM     10  C   UNL     1       3.611   7.537  17.495  0.00  0.00    +0.000 A 
ENDROOT
BRANCH   1  17
ATOM     11  C   UNL     1       6.930   5.506  19.048  0.00  0.00    +0.000 C 
ATOM     12  C   UNL     1       6.442   5.219  17.656  0.00  0.00    +0.000 A 
ATOM     13  C   UNL     1       7.313   4.528  16.810  0.00  0.00    +0.000 A 
ATOM     14  N   UNL     1       7.034   4.144  15.546  0.00  0.00    +0.000 NA
ATOM     15  CA  UNL     1       5.823   4.481  15.060  0.00  0.00    +0.000 A 
ATOM     16  C   UNL     1       4.890   5.188  15.820  0.00  0.00    +0.000 A 
ATOM     17  C   UNL     1       5.171   5.578  17.151  0.00  0.00    +0.000 A 
BRANCH  15  18
ATOM     18  C   UNL     1       5.510   4.071  13.641  0.00  0.00    +0.000 C 
BRANCH  18  19
ATOM     19  O   UNL     1       6.333   2.989  13.213  0.00  0.00    +0.000 OA
ATOM     20  H   UNL     1       5.724   2.272  12.963  0.00  0.00    +0.000 HD
ENDBRANCH  18  19
ENDBRANCH  15  18
ENDBRANCH   1  17
BRANCH   6  21
ATOM     21  N   UNL     1      -0.317  10.316  20.302  0.00  0.00    +0.000 N 
ATOM     22  C   UNL     1      -0.094  11.321  21.213  0.00  0.00    +0.000 C 
ATOM     23  O   UNL     1       0.975  11.794  21.574  0.00  0.00    +0.000 OA
ATOM     24  H   UNL     1      -1.271  10.074  20.110  0.00  0.00    +0.000 HD
BRANCH  22  25
ATOM     25  C   UNL     1      -1.360  11.883  21.776  0.00  0.00    +0.000 C 
ATOM     26  C   UNL     1      -1.811  11.504  23.169  0.00  0.00    +0.000 C 
ATOM     27  C   UNL     1      -1.292  12.886  22.903  0.00  0.00    +0.000 C 
ENDBRANCH  22  25
ENDBRANCH   6  21
TORSDOF 5
ENDMDL
MODEL 7
REMARK VINA RESULT:      -7.8      1.206      1.765
REMARK  Name = 
REMARK  6 active torsions:
REMARK  status: ('A' for Active; 'I' for Inactive)
REMARK    1  A    between atoms: C_1  and  C_2
REMARK    2  A    between atoms: CA_5  and  C_6
REMARK    3  A    between atoms: C_6  and  O_7
REMARK    4  A    between atoms: C_9  and  C_10
REMARK    5  A    between atoms: C_15  and  N_16
REMARK    6  A    between atoms: C_17  and  C_19
REMARK                            x       y       z     vdW  Elec       q    Type
REMARK                         _______ _______ _______ _____ _____    ______ ____
ROOT
ATOM      1  C   UNL     1       2.734   6.810  18.817  0.00  0.00    +0.000 A 
ATOM      2  C   UNL     1       2.318   6.525  20.129  0.00  0.00    +0.000 A 
ATOM      3  C   UNL     1       1.475   7.372  20.859  0.00  0.00    +0.000 A 
ATOM      4  C   UNL     1       1.083   8.603  20.327  0.00  0.00    +0.000 A 
ATOM      5  C   UNL     1       0.278   9.499  21.040  0.00  0.00    +0.000 A 
ATOM      6  C   UNL     1      -0.046  10.719  20.464  0.00  0.00    +0.000 A 
ATOM      7  N   UNL     1       0.395  11.072  19.246  0.00  0.00    +0.000 NA
ATOM      8  C   UNL     1       1.161  10.196  18.563  0.00  0.00    +0.000 A 
ATOM      9  C   UNL     1       1.531   8.946  19.045  0.00  0.00    +0.000 A 
ATOM     10  C   UNL     1       2.320   8.050  18.297  0.00  0.00    +0.000 A 
ENDROOT
BRANCH   1  17
ATOM     11  C   UNL     1       1.765   4.052  17.725  0.00  0.00    +0.000 C 
ATOM     12  C   UNL     1       3.137   4.626  17.516  0.00  0.00    +0.000 A 
ATOM     13  C   UNL     1       4.033   3.867  16.759  0.00  0.00    +0.000 A 
ATOM     14  N   UNL     1       5.289   4.238  16.431  0.00  0.00    +0.000 NA
ATOM     15  CA  UNL     1       5.713   5.429  16.894  0.00  0.00    +0.000 A 
ATOM     16  C   UNL     1       4.900   6.253  17.675  0.00  0.00    +0.000 A 
ATOM     17  C   UNL     1       3.577   5.877  18.008  0.00  0.00    +0.000 A 
BRANCH  15  18
ATOM     18  C   UNL     1       7.123   5.843  16.547  0.00  0.00    +0.000 C 
BRANCH  18  19
ATOM     19  O   UNL     1       7.490   5.411  15.239  0.00  0.00    +0.000 OA
ATOM     20  H   UNL     1       7.750   4.477  15.328  0.00  0.00    +0.000 HD
ENDBRANCH  18  19
ENDBRANCH  15  18
ENDBRANCH   1  17
BRANCH   6  21
ATOM     21  N   UNL     1      -0.862  11.591  21.190  0.00  0.00    +0.000 N 
ATOM     22  C   UNL     1      -0.989  11.592  22.559  0.00  0.00    +0.000 C 
ATOM     23  O   UNL     1      -0.440  10.861  23.372  0.00  0.00    +0.000 OA
ATOM     24  H   UNL     1      -1.375  12.287  20.681  0.00  0.00    +0.000 HD
BRANCH  22  25
ATOM     25  C   UNL     1      -1.906  12.663  23.054  0.00  0.00    +0.000 C 
ATOM     26  C   UNL     1      -1.348  13.984  23.537  0.00  0.00    +0.000 C 
ATOM     27  C   UNL     1      -2.093  13.920  22.236  0.00  0.00    +0.000 C 
ENDBRANCH  22  25
ENDBRANCH   6  21
TORSDOF 5
ENDMDL
MODEL 8
REMARK VINA RESULT:      -7.7      1.953      2.587
REMARK  Name = 
REMARK  6 active torsions:
REMARK  status: ('A' for Active; 'I' for Inactive)
REMARK    1  A    between atoms: C_1  and  C_2
REMARK    2  A    between atoms: CA_5  and  C_6
REMARK    3  A    between atoms: C_6  and  O_7
REMARK    4  A    between atoms: C_9  and  C_10
REMARK    5  A    between atoms: C_15  and  N_16
REMARK    6  A    between atoms: C_17  and  C_19
REMARK                            x       y       z     vdW  Elec       q    Type
REMARK                         _______ _______ _______ _____ _____    ______ ____
ROOT
ATOM      1  C   UNL     1       2.332   7.041  18.603  0.00  0.00    +0.000 A 
ATOM      2  C   UNL     1       1.898   8.058  17.735  0.00  0.00    +0.000 A 
ATOM      3  C   UNL     1       1.379   9.275  18.192  0.00  0.00    +0.000 A 
ATOM      4  C   UNL     1       1.185   9.489  19.558  0.00  0.00    +0.000 A 
ATOM      5  C   UNL     1       0.629  10.674  20.055  0.00  0.00    +0.000 A 
ATOM      6  C   UNL     1       0.433  10.806  21.422  0.00  0.00    +0.000 A 
ATOM      7  N   UNL     1       0.755   9.829  22.286  0.00  0.00    +0.000 NA
ATOM      8  C   UNL     1       1.301   8.697  21.797  0.00  0.00    +0.000 A 
ATOM      9  C   UNL     1       1.549   8.470  20.449  0.00  0.00    +0.000 A 
ATOM     10  C   UNL     1       2.136   7.280  19.975  0.00  0.00    +0.000 A 
ENDROOT
BRANCH   1  17
ATOM     11  C   UNL     1       4.906   6.882  16.846  0.00  0.00    +0.000 C 
ATOM     12  C   UNL     1       4.116   5.697  17.324  0.00  0.00    +0.000 A 
ATOM     13  C   UNL     1       4.588   4.433  16.963  0.00  0.00    +0.000 A 
ATOM     14  N   UNL     1       4.039   3.258  17.335  0.00  0.00    +0.000 NA
ATOM     15  CA  UNL     1       2.930   3.317  18.097  0.00  0.00    +0.000 A 
ATOM     16  C   UNL     1       2.369   4.532  18.495  0.00  0.00    +0.000 A 
ATOM     17  C   UNL     1       2.950   5.767  18.123  0.00  0.00    +0.000 A 
BRANCH  15  18
ATOM     18  C   UNL     1       2.299   2.007  18.502  0.00  0.00    +0.000 C 
BRANCH  18  19
ATOM     19  O   UNL     1       0.894   2.003  18.259  0.00  0.00    +0.000 OA
ATOM     20  H   UNL     1       0.522   2.702  18.826  0.00  0.00    +0.000 HD
ENDBRANCH  18  19
ENDBRANCH  15  18
ENDBRANCH   1  17
BRANCH   6  21
ATOM     21  N   UNL     1      -0.112  12.002  21.894  0.00  0.00    +0.000 N 
ATOM     22  C   UNL     1      -1.171  12.093  22.765  0.00  0.00    +0.000 C 
ATOM     23  O   UNL     1      -1.815  11.185  23.273  0.00  0.00    +0.000 OA
ATOM     24  H   UNL     1       0.314  12.861  21.599  0.00  0.00    +0.000 HD
BRANCH  22  25
ATOM     25  C   UNL     1      -1.510  13.506  23.119  0.00  0.00    +0.000 C 
ATOM     26  C   UNL     1      -2.642  14.219  22.414  0.00  0.00    +0.000 C 
ATOM     27  C   UNL     1      -2.801  13.801  23.846  0.00  0.00    +0.000 C 
ENDBRANCH  22  25
ENDBRANCH   6  21
TORSDOF 5
ENDMDL
MODEL 9
REMARK VINA RESULT:      -7.6      1.249      2.076
REMARK  Name = 
REMARK  6 active torsions:
REMARK  status: ('A' for Active; 'I' for Inactive)
REMARK    1  A    between atoms: C_1  and  C_2
REMARK    2  A    between atoms: CA_5  and  C_6
REMARK    3  A    between atoms: C_6  and  O_7
REMARK    4  A    between atoms: C_9  and  C_10
REMARK    5  A    between atoms: C_15  and  N_16
REMARK    6  A    between atoms: C_17  and  C_19
REMARK                            x       y       z     vdW  Elec       q    Type
REMARK                         _______ _______ _______ _____ _____    ______ ____
ROOT
ATOM      1  C   UNL     1       2.565   7.069  18.432  0.00  0.00    +0.000 A 
ATOM      2  C   UNL     1       2.157   8.087  17.552  0.00  0.00    +0.000 A 
ATOM      3  C   UNL     1       1.513   9.251  17.987  0.00  0.00    +0.000 A 
ATOM      4  C   UNL     1       1.164   9.403  19.330  0.00  0.00    +0.000 A 
ATOM      5  C   UNL     1       0.480  10.531  19.799  0.00  0.00    +0.000 A 
ATOM      6  C   UNL     1       0.135  10.602  21.140  0.00  0.00    +0.000 A 
ATOM      7  N   UNL     1       0.430   9.617  22.005  0.00  0.00    +0.000 NA
ATOM      8  C   UNL     1       1.099   8.540  21.545  0.00  0.00    +0.000 A 
ATOM      9  C   UNL     1       1.501   8.378  20.224  0.00  0.00    +0.000 A 
ATOM     10  C   UNL     1       2.212   7.246  19.782  0.00  0.00    +0.000 A 
ENDROOT
BRANCH   1  17
ATOM     11  C   UNL     1       5.435   7.120  17.208  0.00  0.00    +0.000 C 
ATOM     12  C   UNL     1       4.615   5.881  17.426  0.00  0.00    +0.000 A 
ATOM     13  C   UNL     1       5.198   4.662  17.066  0.00  0.00    +0.000 A 
ATOM     14  N   UNL     1       4.633   3.448  17.229  0.00  0.00    +0.000 NA
ATOM     15  CA  UNL     1       3.396   3.417  17.761  0.00  0.00    +0.000 A 
ATOM     16  C   UNL     1       2.721   4.580  18.136  0.00  0.00    +0.000 A 
ATOM     17  C   UNL     1       3.315   5.855  17.983  0.00  0.00    +0.000 A 
BRANCH  15  18
ATOM     18  C   UNL     1       2.750   2.062  17.930  0.00  0.00    +0.000 C 
BRANCH  18  19
ATOM     19  O   UNL     1       3.706   1.065  18.280  0.00  0.00    +0.000 OA
ATOM     20  H   UNL     1       4.570   1.514  18.294  0.00  0.00    +0.000 HD
ENDBRANCH  18  19
ENDBRANCH  15  18
ENDBRANCH   1  17
BRANCH   6  21
ATOM     21  N   UNL     1      -0.536  11.743  21.587  0.00  0.00    +0.000 N 
ATOM     22  C   UNL     1       0.044  12.976  21.766  0.00  0.00    +0.000 C 
ATOM     23  O   UNL     1       1.210  13.300  21.581  0.00  0.00    +0.000 OA
ATOM     24  H   UNL     1      -1.521  11.669  21.765  0.00  0.00    +0.000 HD
BRANCH  22  25
ATOM     25  C   UNL     1      -0.931  14.015  22.218  0.00  0.00    +0.000 C 
ATOM     26  C   UNL     1      -1.307  14.126  23.679  0.00  0.00    +0.000 C 
ATOM     27  C   UNL     1      -0.446  15.180  23.048  0.00  0.00    +0.000 C 
ENDBRANCH  22  25
ENDBRANCH   6  21
TORSDOF 5
ENDMDL
