MODEL 1
REMARK VINA RESULT:      -8.1      0.000      0.000
REMARK  Name = 
REMARK  7 active torsions:
REMARK  status: ('A' for Active; 'I' for Inactive)
REMARK    1  A    between atoms: C_1  and  O_2
REMARK    2  A    between atoms: O_2  and  C_3
REMARK    3  A    between atoms: C_6  and  N_7
REMARK    4  A    between atoms: C_8  and  C_10
REMARK    5  A    between atoms: C_18  and  C_19
REMARK    6  A    between atoms: C_24  and  O_25
REMARK    7  A    between atoms: O_25  and  C_26
REMARK                            x       y       z     vdW  Elec       q    Type
REMARK                         _______ _______ _______ _____ _____    ______ ____
ROOT
ATOM      1  N   UNL     1       7.455   8.241  17.444  0.00  0.00    +0.000 N 
ATOM      2  C   UNL     1       7.552   6.944  17.932  0.00  0.00    +0.000 C 
ATOM      3  O   UNL     1       8.201   6.590  18.912  0.00  0.00    +0.000 OA
ATOM      4  H   UNL     1       6.866   8.349  16.627  0.00  0.00    +0.000 HD
ENDROOT
BRANCH   2   5
ATOM      5  C   UNL     1       6.804   5.947  17.166  0.00  0.00    +0.000 A 
ATOM      6  C   UNL     1       7.297   5.348  16.020  0.00  0.00    +0.000 A 
ATOM      7  S   UNL     1       6.154   4.252  15.382  0.00  0.00    +0.000 S 
ATOM      8  C   UNL     1       5.079   4.618  16.683  0.00  0.00    +0.000 A 
ATOM      9  N   UNL     1       3.899   3.964  16.776  0.00  0.00    +0.000 N 
ATOM     10  C   UNL     1       3.198   3.755  17.967  0.00  0.00    +0.000 A 
ATOM     11  C   UNL     1       3.281   4.617  19.056  0.00  0.00    +0.000 A 
ATOM     12  C   UNL     1       2.703   4.262  20.269  0.00  0.00    +0.000 A 
ATOM     13  C   UNL     1       1.999   3.072  20.361  0.00  0.00    +0.000 A 
ATOM     14  C   UNL     1       1.422   2.618  21.661  0.00  0.00    +0.000 C 
ATOM     15  C   UNL     1       1.875   2.315  19.203  0.00  0.00    +0.000 A 
ATOM     16  N   UNL     1       2.457   2.628  18.020  0.00  0.00    +0.000 NA
ATOM     17  N   UNL     1       5.534   5.527  17.524  0.00  0.00    +0.000 NA
ATOM     18  H   UNL     1       3.731   3.181  16.155  0.00  0.00    +0.000 HD
ENDBRANCH   2   5
BRANCH   1  22
ATOM     19  C   UNL     1       9.554  11.673  18.826  0.00  0.00    +0.000 A 
ATOM     20  C   UNL     1       9.722  10.432  19.448  0.00  0.00    +0.000 A 
ATOM     21  C   UNL     1       9.033   9.306  19.005  0.00  0.00    +0.000 A 
ATOM     22  C   UNL     1       8.122   9.383  17.959  0.00  0.00    +0.000 A 
ATOM     23  C   UNL     1       7.879  10.644  17.395  0.00  0.00    +0.000 A 
ATOM     24  C   UNL     1       8.582  11.796  17.822  0.00  0.00    +0.000 A 
BRANCH  19  26
ATOM     25  C   UNL     1      11.269  12.489  20.235  0.00  0.00    +0.000 C 
ATOM     26  O   UNL     1      10.315  12.749  19.203  0.00  0.00    +0.000 OA
ENDBRANCH  19  26
BRANCH  24  27
ATOM     27  O   UNL     1       8.208  12.926  17.137  0.00  0.00    +0.000 OA
ATOM     28  C   UNL     1       7.451  13.923  17.811  0.00  0.00    +0.000 C 
ENDBRANCH  24  27
ENDBRANCH   1  22
TORSDOF 4
ENDMDL
MODEL 2
REMARK VINA RESULT:      -7.9      5.435      8.693
REMARK  Name = 
REMARK  7 active torsions:
REMARK  status: ('A' for Active; 'I' for Inactive)
REMARK    1  A    between atoms: C_1  and  O_2
REMARK    2  A    between atoms: O_2  and  C_3
REMARK    3  A    between atoms: C_6  and  N_7
REMARK    4  A    between atoms: C_8  and  C_10
REMARK    5  A    between atoms: C_18  and  C_19
REMARK    6  A    between atoms: C_24  and  O_25
REMARK    7  A    between atoms: O_25  and  C_26
REMARK                            x       y       z     vdW  Elec       q    Type
REMARK                         _______ _______ _______ _____ _____    ______ ____
ROOT
ATOM      1  N   UNL     1       3.172   6.699  18.739  0.00  0.00    +0.000 N 
ATOM      2  C   UNL     1       2.511   7.870  18.387  0.00  0.00    +0.000 C 
ATOM      3  O   UNL     1       2.565   8.426  17.294  0.00  0.00    +0.000 OA
ATOM      4  H   UNL     1       3.004   6.379  19.686  0.00  0.00    +0.000 HD
ENDROOT
BRANCH   2   5
ATOM      5  C   UNL     1       1.702   8.456  19.455  0.00  0.00    +0.000 A 
ATOM      6  C   UNL     1       1.437   7.806  20.647  0.00  0.00    +0.000 A 
ATOM      7  S   UNL     1       0.454   8.776  21.649  0.00  0.00    +0.000 S 
ATOM      8  C   UNL     1       0.459  10.018  20.450  0.00  0.00    +0.000 A 
ATOM      9  N   UNL     1      -0.171  11.189  20.700  0.00  0.00    +0.000 N 
ATOM     10  C   UNL     1       0.162  12.413  20.112  0.00  0.00    +0.000 A 
ATOM     11  C   UNL     1       0.740  12.514  18.851  0.00  0.00    +0.000 A 
ATOM     12  C   UNL     1       1.210  13.741  18.398  0.00  0.00    +0.000 A 
ATOM     13  C   UNL     1       1.044  14.864  19.193  0.00  0.00    +0.000 A 
ATOM     14  C   UNL     1       1.595  16.188  18.778  0.00  0.00    +0.000 C 
ATOM     15  C   UNL     1       0.366  14.699  20.394  0.00  0.00    +0.000 A 
ATOM     16  N   UNL     1      -0.071  13.507  20.867  0.00  0.00    +0.000 NA
ATOM     17  N   UNL     1       1.129   9.713  19.355  0.00  0.00    +0.000 NA
ATOM     18  H   UNL     1      -0.520  11.359  21.636  0.00  0.00    +0.000 HD
ENDBRANCH   2   5
BRANCH   1  22
ATOM     19  C   UNL     1       5.821   4.616  16.143  0.00  0.00    +0.000 A 
ATOM     20  C   UNL     1       4.591   4.062  16.505  0.00  0.00    +0.000 A 
ATOM     21  C   UNL     1       3.721   4.735  17.360  0.00  0.00    +0.000 A 
ATOM     22  C   UNL     1       4.063   5.960  17.918  0.00  0.00    +0.000 A 
ATOM     23  C   UNL     1       5.336   6.475  17.633  0.00  0.00    +0.000 A 
ATOM     24  C   UNL     1       6.226   5.813  16.753  0.00  0.00    +0.000 A 
BRANCH  19  26
ATOM     25  C   UNL     1       6.122   3.997  13.881  0.00  0.00    +0.000 C 
ATOM     26  O   UNL     1       6.621   3.994  15.220  0.00  0.00    +0.000 OA
ENDBRANCH  19  26
BRANCH  24  27
ATOM     27  O   UNL     1       7.413   6.486  16.599  0.00  0.00    +0.000 OA
ATOM     28  C   UNL     1       7.685   7.606  17.431  0.00  0.00    +0.000 C 
ENDBRANCH  24  27
ENDBRANCH   1  22
TORSDOF 4
ENDMDL
MODEL 3
REMARK VINA RESULT:      -7.7      4.869      8.241
REMARK  Name = 
REMARK  7 active torsions:
REMARK  status: ('A' for Active; 'I' for Inactive)
REMARK    1  A    between atoms: C_1  and  O_2
REMARK    2  A    between atoms: O_2  and  C_3
REMARK    3  A    between atoms: C_6  and  N_7
REMARK    4  A    between atoms: C_8  and  C_10
REMARK    5  A    between atoms: C_18  and  C_19
REMARK    6  A    between atoms: C_24  and  O_25
REMARK    7  A    between atoms: O_25  and  C_26
REMARK                            x       y       z     vdW  Elec       q    Type
REMARK                         _______ _______ _______ _____ _____    ______ ____
ROOT
ATOM      1  N   UNL     1       3.234   7.128  18.504  0.00  0.00    +0.000 N 
ATOM      2  C   UNL     1       2.615   6.728  19.683  0.00  0.00    +0.000 C 
ATOM      3  O   UNL     1       2.809   5.672  20.276  0.00  0.00    +0.000 OA
ATOM      4  H   UNL     1       2.955   8.040  18.161  0.00  0.00    +0.000 HD
ENDROOT
BRANCH   2   5
ATOM      5  C   UNL     1       1.645   7.686  20.216  0.00  0.00    +0.000 A 
ATOM      6  C   UNL     1       0.867   7.433  21.331  0.00  0.00    +0.000 A 
ATOM      7  S   UNL     1      -0.157   8.759  21.657  0.00  0.00    +0.000 S 
ATOM      8  C   UNL     1       0.514   9.606  20.310  0.00  0.00    +0.000 A 
ATOM      9  N   UNL     1       0.107  10.869  20.047  0.00  0.00    +0.000 N 
ATOM     10  C   UNL     1       0.873  11.828  19.379  0.00  0.00    +0.000 A 
ATOM     11  C   UNL     1       1.843  11.500  18.436  0.00  0.00    +0.000 A 
ATOM     12  C   UNL     1       2.691  12.483  17.941  0.00  0.00    +0.000 A 
ATOM     13  C   UNL     1       2.519  13.796  18.353  0.00  0.00    +0.000 A 
ATOM     14  C   UNL     1       3.450  14.871  17.900  0.00  0.00    +0.000 C 
ATOM     15  C   UNL     1       1.464  14.059  19.217  0.00  0.00    +0.000 A 
ATOM     16  N   UNL     1       0.648  13.110  19.736  0.00  0.00    +0.000 NA
ATOM     17  N   UNL     1       1.425   8.926  19.640  0.00  0.00    +0.000 NA
ATOM     18  H   UNL     1      -0.486  11.335  20.723  0.00  0.00    +0.000 HD
ENDBRANCH   2   5
BRANCH   1  22
ATOM     19  C   UNL     1       6.019   4.991  16.103  0.00  0.00    +0.000 A 
ATOM     20  C   UNL     1       4.751   4.467  16.367  0.00  0.00    +0.000 A 
ATOM     21  C   UNL     1       3.836   5.158  17.158  0.00  0.00    +0.000 A 
ATOM     22  C   UNL     1       4.166   6.371  17.748  0.00  0.00    +0.000 A 
ATOM     23  C   UNL     1       5.469   6.855  17.564  0.00  0.00    +0.000 A 
ATOM     24  C   UNL     1       6.406   6.174  16.751  0.00  0.00    +0.000 A 
BRANCH  19  26
ATOM     25  C   UNL     1       6.297   3.976  13.985  0.00  0.00    +0.000 C 
ATOM     26  O   UNL     1       6.871   4.353  15.239  0.00  0.00    +0.000 OA
ENDBRANCH  19  26
BRANCH  24  27
ATOM     27  O   UNL     1       7.618   6.817  16.692  0.00  0.00    +0.000 OA
ATOM     28  C   UNL     1       7.829   7.969  17.497  0.00  0.00    +0.000 C 
ENDBRANCH  24  27
ENDBRANCH   1  22
TORSDOF 4
ENDMDL
MODEL 4
REMARK VINA RESULT:      -7.7      6.808      8.746
REMARK  Name = 
REMARK  7 active torsions:
REMARK  status: ('A' for Active; 'I' for Inactive)
REMARK    1  A    between atoms: C_1  and  O_2
REMARK    2  A    between atoms: O_2  and  C_3
REMARK    3  A    between atoms: C_6  and  N_7
REMARK    4  A    between atoms: C_8  and  C_10
REMARK    5  A    between atoms: C_18  and  C_19
REMARK    6  A    between atoms: C_24  and  O_25
REMARK    7  A    between atoms: O_25  and  C_26
REMARK                            x       y       z     vdW  Elec       q    Type
REMARK                         _______ _______ _______ _____ _____    ______ ____
ROOT
ATOM      1  N   UNL     1       2.049   8.310  18.508  0.00  0.00    +0.000 N 
ATOM      2  C   UNL     1       1.612   8.546  19.807  0.00  0.00    +0.000 C 
ATOM      3  O   UNL     1       1.922   7.896  20.800  0.00  0.00    +0.000 OA
ATOM      4  H   UNL     1       1.695   8.956  17.812  0.00  0.00    +0.000 HD
ENDROOT
BRANCH   2   5
ATOM      5  C   UNL     1       0.694   9.676  19.943  0.00  0.00    +0.000 A 
ATOM      6  C   UNL     1       0.945  10.761  20.764  0.00  0.00    +0.000 A 
ATOM      7  S   UNL     1      -0.343  11.878  20.688  0.00  0.00    +0.000 S 
ATOM      8  C   UNL     1      -1.149  10.867  19.544  0.00  0.00    +0.000 A 
ATOM      9  N   UNL     1      -2.323  11.273  19.007  0.00  0.00    +0.000 N 
ATOM     10  C   UNL     1      -2.809  10.869  17.760  0.00  0.00    +0.000 A 
ATOM     11  C   UNL     1      -2.492   9.643  17.185  0.00  0.00    +0.000 A 
ATOM     12  C   UNL     1      -2.859   9.375  15.872  0.00  0.00    +0.000 A 
ATOM     13  C   UNL     1      -3.589  10.319  15.167  0.00  0.00    +0.000 A 
ATOM     14  C   UNL     1      -3.944  10.104  13.734  0.00  0.00    +0.000 C 
ATOM     15  C   UNL     1      -3.954  11.476  15.844  0.00  0.00    +0.000 A 
ATOM     16  N   UNL     1      -3.579  11.769  17.113  0.00  0.00    +0.000 NA
ATOM     17  N   UNL     1      -0.509   9.749  19.261  0.00  0.00    +0.000 NA
ATOM     18  H   UNL     1      -2.636  12.219  19.190  0.00  0.00    +0.000 HD
ENDBRANCH   2   5
BRANCH   1  22
ATOM     19  C   UNL     1       4.557   5.191  17.067  0.00  0.00    +0.000 A 
ATOM     20  C   UNL     1       3.327   4.902  17.666  0.00  0.00    +0.000 A 
ATOM     21  C   UNL     1       2.504   5.918  18.146  0.00  0.00    +0.000 A 
ATOM     22  C   UNL     1       2.894   7.250  18.088  0.00  0.00    +0.000 A 
ATOM     23  C   UNL     1       4.167   7.536  17.575  0.00  0.00    +0.000 A 
ATOM     24  C   UNL     1       5.010   6.518  17.068  0.00  0.00    +0.000 A 
BRANCH  19  26
ATOM     25  C   UNL     1       5.409   4.233  15.080  0.00  0.00    +0.000 C 
ATOM     26  O   UNL     1       5.309   4.192  16.505  0.00  0.00    +0.000 OA
ENDBRANCH  19  26
BRANCH  24  27
ATOM     27  O   UNL     1       6.206   7.007  16.603  0.00  0.00    +0.000 OA
ATOM     28  C   UNL     1       7.341   6.984  17.458  0.00  0.00    +0.000 C 
ENDBRANCH  24  27
ENDBRANCH   1  22
TORSDOF 4
ENDMDL
MODEL 5
REMARK VINA RESULT:      -7.7      6.951      9.114
REMARK  Name = 
REMARK  7 active torsions:
REMARK  status: ('A' for Active; 'I' for Inactive)
REMARK    1  A    between atoms: C_1  and  O_2
REMARK    2  A    between atoms: O_2  and  C_3
REMARK    3  A    between atoms: C_6  and  N_7
REMARK    4  A    between atoms: C_8  and  C_10
REMARK    5  A    between atoms: C_18  and  C_19
REMARK    6  A    between atoms: C_24  and  O_25
REMARK    7  A    between atoms: O_25  and  C_26
REMARK                            x       y       z     vdW  Elec       q    Type
REMARK                         _______ _______ _______ _____ _____    ______ ____
ROOT
ATOM      1  N   UNL     1       1.919   8.355  18.465  0.00  0.00    +0.000 N 
ATOM      2  C   UNL     1       1.571   8.658  19.776  0.00  0.00    +0.000 C 
ATOM      3  O   UNL     1       1.976   8.082  20.780  0.00  0.00    +0.000 OA
ATOM      4  H   UNL     1       1.492   8.944  17.760  0.00  0.00    +0.000 HD
ENDROOT
BRANCH   2   5
ATOM      5  C   UNL     1       0.625   9.766  19.913  0.00  0.00    +0.000 A 
ATOM      6  C   UNL     1       0.848  10.854  20.737  0.00  0.00    +0.000 A 
ATOM      7  S   UNL     1      -0.465  11.940  20.660  0.00  0.00    +0.000 S 
ATOM      8  C   UNL     1      -1.245  10.914  19.512  0.00  0.00    +0.000 A 
ATOM      9  N   UNL     1      -2.427  11.293  18.973  0.00  0.00    +0.000 N 
ATOM     10  C   UNL     1      -2.900  10.880  17.724  0.00  0.00    +0.000 A 
ATOM     11  C   UNL     1      -2.553   9.663  17.147  0.00  0.00    +0.000 A 
ATOM     12  C   UNL     1      -2.910   9.390  15.832  0.00  0.00    +0.000 A 
ATOM     13  C   UNL     1      -3.661  10.318  15.128  0.00  0.00    +0.000 A 
ATOM     14  C   UNL     1      -4.008  10.097  13.693  0.00  0.00    +0.000 C 
ATOM     15  C   UNL     1      -4.055  11.464  15.807  0.00  0.00    +0.000 A 
ATOM     16  N   UNL     1      -3.690  11.763  17.077  0.00  0.00    +0.000 NA
ATOM     17  N   UNL     1      -0.578   9.811  19.228  0.00  0.00    +0.000 NA
ATOM     18  H   UNL     1      -2.763  12.230  19.158  0.00  0.00    +0.000 HD
ENDBRANCH   2   5
BRANCH   1  22
ATOM     19  C   UNL     1       4.486   5.136  17.394  0.00  0.00    +0.000 A 
ATOM     20  C   UNL     1       4.867   6.461  17.170  0.00  0.00    +0.000 A 
ATOM     21  C   UNL     1       4.029   7.520  17.512  0.00  0.00    +0.000 A 
ATOM     22  C   UNL     1       2.767   7.297  18.046  0.00  0.00    +0.000 A 
ATOM     23  C   UNL     1       2.342   5.968  18.185  0.00  0.00    +0.000 A 
ATOM     24  C   UNL     1       3.187   4.879  17.858  0.00  0.00    +0.000 A 
BRANCH  19  26
ATOM     25  C   UNL     1       6.720   4.500  16.954  0.00  0.00    +0.000 C 
ATOM     26  O   UNL     1       5.360   4.109  17.151  0.00  0.00    +0.000 OA
ENDBRANCH  19  26
BRANCH  24  27
ATOM     27  O   UNL     1       2.588   3.663  18.076  0.00  0.00    +0.000 OA
ATOM     28  C   UNL     1       1.497   3.584  18.984  0.00  0.00    +0.000 C 
ENDBRANCH  24  27
ENDBRANCH   1  22
TORSDOF 4
ENDMDL
MODEL 6
REMARK VINA RESULT:      -7.6      5.570      9.460
REMARK  Name = 
REMARK  7 active torsions:
REMARK  status: ('A' for Active; 'I' for Inactive)
REMARK    1  A    between atoms: C_1  and  O_2
REMARK    2  A    between atoms: O_2  and  C_3
REMARK    3  A    between atoms: C_6  and  N_7
REMARK    4  A    between atoms: C_8  and  C_10
REMARK    5  A    between atoms: C_18  and  C_19
REMARK    6  A    between atoms: C_24  and  O_25
REMARK    7  A    between atoms: O_25  and  C_26
REMARK                            x       y       z     vdW  Elec       q    Type
REMARK                         _______ _______ _______ _____ _____    ______ ____
ROOT
ATOM      1  N   UNL     1       2.821   6.982  18.829  0.00  0.00    +0.000 N 
ATOM      2  C   UNL     1       2.193   8.176  18.493  0.00  0.00    +0.000 C 
ATOM      3  O   UNL     1       2.148   8.674  17.373  0.00  0.00    +0.000 OA
ATOM      4  H   UNL     1       2.750   6.720  19.805  0.00  0.00    +0.000 HD
ENDROOT
BRANCH   2   5
ATOM      5  C   UNL     1       1.555   8.864  19.615  0.00  0.00    +0.000 A 
ATOM      6  C   UNL     1       1.309   8.257  20.834  0.00  0.00    +0.000 A 
ATOM      7  S   UNL     1       0.542   9.348  21.898  0.00  0.00    +0.000 S 
ATOM      8  C   UNL     1       0.605  10.575  20.686  0.00  0.00    +0.000 A 
ATOM      9  N   UNL     1       0.151  11.817  20.969  0.00  0.00    +0.000 N 
ATOM     10  C   UNL     1       0.587  12.986  20.339  0.00  0.00    +0.000 A 
ATOM     11  C   UNL     1       1.068  13.009  19.034  0.00  0.00    +0.000 A 
ATOM     12  C   UNL     1       1.650  14.164  18.528  0.00  0.00    +0.000 A 
ATOM     13  C   UNL     1       1.693  15.303  19.317  0.00  0.00    +0.000 A 
ATOM     14  C   UNL     1       2.371  16.544  18.840  0.00  0.00    +0.000 C 
ATOM     15  C   UNL     1       1.101  15.230  20.572  0.00  0.00    +0.000 A 
ATOM     16  N   UNL     1       0.557  14.104  21.095  0.00  0.00    +0.000 NA
ATOM     17  N   UNL     1       1.139  10.183  19.544  0.00  0.00    +0.000 NA
ATOM     18  H   UNL     1      -0.096  12.033  21.928  0.00  0.00    +0.000 HD
ENDBRANCH   2   5
BRANCH   1  22
ATOM     19  C   UNL     1       5.140   4.420  16.348  0.00  0.00    +0.000 A 
ATOM     20  C   UNL     1       5.230   5.809  16.226  0.00  0.00    +0.000 A 
ATOM     21  C   UNL     1       4.469   6.654  17.031  0.00  0.00    +0.000 A 
ATOM     22  C   UNL     1       3.561   6.148  17.952  0.00  0.00    +0.000 A 
ATOM     23  C   UNL     1       3.398   4.757  18.011  0.00  0.00    +0.000 A 
ATOM     24  C   UNL     1       4.174   3.882  17.213  0.00  0.00    +0.000 A 
BRANCH  19  26
ATOM     25  C   UNL     1       6.236   4.032  14.290  0.00  0.00    +0.000 C 
ATOM     26  O   UNL     1       5.969   3.602  15.626  0.00  0.00    +0.000 OA
ENDBRANCH  19  26
BRANCH  24  27
ATOM     27  O   UNL     1       3.870   2.561  17.429  0.00  0.00    +0.000 OA
ATOM     28  C   UNL     1       2.543   2.210  17.800  0.00  0.00    +0.000 C 
ENDBRANCH  24  27
ENDBRANCH   1  22
TORSDOF 4
ENDMDL
MODEL 7
REMARK VINA RESULT:      -7.6      5.498      9.858
REMARK  Name = 
REMARK  7 active torsions:
REMARK  status: ('A' for Active; 'I' for Inactive)
REMARK    1  A    between atoms: C_1  and  O_2
REMARK    2  A    between atoms: O_2  and  C_3
REMARK    3  A    between atoms: C_6  and  N_7
REMARK    4  A    between atoms: C_8  and  C_10
REMARK    5  A    between atoms: C_18  and  C_19
REMARK    6  A    between atoms: C_24  and  O_25
REMARK    7  A    between atoms: O_25  and  C_26
REMARK                            x       y       z     vdW  Elec       q    Type
REMARK                         _______ _______ _______ _____ _____    ______ ____
ROOT
ATOM      1  N   UNL     1       1.689   6.665  20.918  0.00  0.00    +0.000 N 
ATOM      2  C   UNL     1       1.684   7.808  20.128  0.00  0.00    +0.000 C 
ATOM      3  O   UNL     1       2.186   7.916  19.014  0.00  0.00    +0.000 OA
ATOM      4  H   UNL     1       1.217   6.757  21.810  0.00  0.00    +0.000 HD
ENDROOT
BRANCH   2   5
ATOM      5  C   UNL     1       1.016   8.961  20.732  0.00  0.00    +0.000 A 
ATOM      6  C   UNL     1       0.410   8.920  21.975  0.00  0.00    +0.000 A 
ATOM      7  S   UNL     1      -0.278  10.435  22.354  0.00  0.00    +0.000 S 
ATOM      8  C   UNL     1       0.294  11.068  20.854  0.00  0.00    +0.000 A 
ATOM      9  N   UNL     1       0.088  12.372  20.560  0.00  0.00    +0.000 N 
ATOM     10  C   UNL     1       0.891  13.130  19.701  0.00  0.00    +0.000 A 
ATOM     11  C   UNL     1       1.605  12.574  18.644  0.00  0.00    +0.000 A 
ATOM     12  C   UNL     1       2.521  13.347  17.941  0.00  0.00    +0.000 A 
ATOM     13  C   UNL     1       2.669  14.686  18.269  0.00  0.00    +0.000 A 
ATOM     14  C   UNL     1       3.690  15.535  17.588  0.00  0.00    +0.000 C 
ATOM     15  C   UNL     1       1.848  15.191  19.269  0.00  0.00    +0.000 A 
ATOM     16  N   UNL     1       0.972  14.447  19.987  0.00  0.00    +0.000 NA
ATOM     17  N   UNL     1       0.932  10.192  20.102  0.00  0.00    +0.000 NA
ATOM     18  H   UNL     1      -0.281  12.978  21.283  0.00  0.00    +0.000 HD
ENDBRANCH   2   5
BRANCH   1  22
ATOM     19  C   UNL     1       3.515   2.993  19.787  0.00  0.00    +0.000 A 
ATOM     20  C   UNL     1       2.377   3.007  20.597  0.00  0.00    +0.000 A 
ATOM     21  C   UNL     1       1.777   4.206  20.977  0.00  0.00    +0.000 A 
ATOM     22  C   UNL     1       2.313   5.430  20.602  0.00  0.00    +0.000 A 
ATOM     23  C   UNL     1       3.509   5.423  19.869  0.00  0.00    +0.000 A 
ATOM     24  C   UNL     1       4.123   4.215  19.461  0.00  0.00    +0.000 A 
BRANCH  19  26
ATOM     25  C   UNL     1       3.563   1.387  18.052  0.00  0.00    +0.000 C 
ATOM     26  O   UNL     1       4.034   1.808  19.334  0.00  0.00    +0.000 OA
ENDBRANCH  19  26
BRANCH  24  27
ATOM     27  O   UNL     1       5.276   4.425  18.746  0.00  0.00    +0.000 OA
ATOM     28  C   UNL     1       6.200   5.407  19.196  0.00  0.00    +0.000 C 
ENDBRANCH  24  27
ENDBRANCH   1  22
TORSDOF 4
ENDMDL
MODEL 8
REMARK VINA RESULT:      -7.6      5.504      9.513
REMARK  Name = 
REMARK  7 active torsions:
REMARK  status: ('A' for Active; 'I' for Inactive)
REMARK    1  A    between atoms: C_1  and  O_2
REMARK    2  A    between atoms: O_2  and  C_3
REMARK    3  A    between atoms: C_6  and  N_7
REMARK    4  A    between atoms: C_8  and  C_10
REMARK    5  A    between atoms: C_18  and  C_19
REMARK    6  A    between atoms: C_24  and  O_25
REMARK    7  A    between atoms: O_25  and  C_26
REMARK                            x       y       z     vdW  Elec       q    Type
REMARK                         _______ _______ _______ _____ _____    ______ ____
ROOT
ATOM      1  N   UNL     1       2.188   7.765  19.019  0.00  0.00    +0.000 N 
ATOM      2  C   UNL     1       1.664   7.647  20.301  0.00  0.00    +0.000 C 
ATOM      3  O   UNL     1       1.739   6.656  21.021  0.00  0.00    +0.000 OA
ATOM      4  H   UNL     1       2.037   8.662  18.574  0.00  0.00    +0.000 HD
ENDROOT
BRANCH   2   5
ATOM      5  C   UNL     1       0.960   8.835  20.782  0.00  0.00    +0.000 A 
ATOM      6  C   UNL     1       0.227   8.857  21.954  0.00  0.00    +0.000 A 
ATOM      7  S   UNL     1      -0.467  10.398  22.195  0.00  0.00    +0.000 S 
ATOM      8  C   UNL     1       0.273  10.957  20.739  0.00  0.00    +0.000 A 
ATOM      9  N   UNL     1       0.126  12.250  20.370  0.00  0.00    +0.000 N 
ATOM     10  C   UNL     1       1.030  12.957  19.571  0.00  0.00    +0.000 A 
ATOM     11  C   UNL     1       1.840  12.344  18.620  0.00  0.00    +0.000 A 
ATOM     12  C   UNL     1       2.840  13.071  17.987  0.00  0.00    +0.000 A 
ATOM     13  C   UNL     1       2.981  14.420  18.273  0.00  0.00    +0.000 A 
ATOM     14  C   UNL     1       4.085  15.222  17.669  0.00  0.00    +0.000 C 
ATOM     15  C   UNL     1       2.069  14.982  19.157  0.00  0.00    +0.000 A 
ATOM     16  N   UNL     1       1.108  14.283  19.809  0.00  0.00    +0.000 NA
ATOM     17  N   UNL     1       0.969  10.038  20.096  0.00  0.00    +0.000 NA
ATOM     18  H   UNL     1      -0.305  12.892  21.024  0.00  0.00    +0.000 HD
ENDBRANCH   2   5
BRANCH   1  22
ATOM     19  C   UNL     1       4.224   4.620  17.003  0.00  0.00    +0.000 A 
ATOM     20  C   UNL     1       4.817   5.877  17.153  0.00  0.00    +0.000 A 
ATOM     21  C   UNL     1       4.153   6.913  17.806  0.00  0.00    +0.000 A 
ATOM     22  C   UNL     1       2.863   6.749  18.292  0.00  0.00    +0.000 A 
ATOM     23  C   UNL     1       2.228   5.521  18.061  0.00  0.00    +0.000 A 
ATOM     24  C   UNL     1       2.893   4.451  17.413  0.00  0.00    +0.000 A 
BRANCH  19  26
ATOM     25  C   UNL     1       5.933   3.955  15.510  0.00  0.00    +0.000 C 
ATOM     26  O   UNL     1       4.926   3.580  16.453  0.00  0.00    +0.000 OA
ENDBRANCH  19  26
BRANCH  24  27
ATOM     27  O   UNL     1       2.103   3.334  17.295  0.00  0.00    +0.000 OA
ATOM     28  C   UNL     1       1.723   2.629  18.469  0.00  0.00    +0.000 C 
ENDBRANCH  24  27
ENDBRANCH   1  22
TORSDOF 4
ENDMDL
MODEL 9
REMARK VINA RESULT:      -7.6      6.247      9.531
REMARK  Name = 
REMARK  7 active torsions:
REMARK  status: ('A' for Active; 'I' for Inactive)
REMARK    1  A    between atoms: C_1  and  O_2
REMARK    2  A    between atoms: O_2  and  C_3
REMARK    3  A    between atoms: C_6  and  N_7
REMARK    4  A    between atoms: C_8  and  C_10
REMARK    5  A    between atoms: C_18  and  C_19
REMARK    6  A    between atoms: C_24  and  O_25
REMARK    7  A    between atoms: O_25  and  C_26
REMARK                            x       y       z     vdW  Elec       q    Type
REMARK                         _______ _______ _______ _____ _____    ______ ____
ROOT
ATOM      1  N   UNL     1       2.478   7.065  19.048  0.00  0.00    +0.000 N 
ATOM      2  C   UNL     1       1.941   8.323  18.795  0.00  0.00    +0.000 C 
ATOM      3  O   UNL     1       2.017   8.938  17.737  0.00  0.00    +0.000 OA
ATOM      4  H   UNL     1       2.310   6.707  19.980  0.00  0.00    +0.000 HD
ENDROOT
BRANCH   2   5
ATOM      5  C   UNL     1       1.244   8.926  19.931  0.00  0.00    +0.000 A 
ATOM      6  C   UNL     1       1.280   8.396  21.209  0.00  0.00    +0.000 A 
ATOM      7  S   UNL     1       0.346   9.347  22.275  0.00  0.00    +0.000 S 
ATOM      8  C   UNL     1      -0.031  10.425  20.980  0.00  0.00    +0.000 A 
ATOM      9  N   UNL     1      -0.776  11.527  21.227  0.00  0.00    +0.000 N 
ATOM     10  C   UNL     1      -0.729  12.703  20.472  0.00  0.00    +0.000 A 
ATOM     11  C   UNL     1      -0.390  12.725  19.123  0.00  0.00    +0.000 A 
ATOM     12  C   UNL     1      -0.188  13.937  18.476  0.00  0.00    +0.000 A 
ATOM     13  C   UNL     1      -0.383  15.118  19.176  0.00  0.00    +0.000 A 
ATOM     14  C   UNL     1      -0.109  16.441  18.541  0.00  0.00    +0.000 C 
ATOM     15  C   UNL     1      -0.819  15.015  20.490  0.00  0.00    +0.000 A 
ATOM     16  N   UNL     1      -0.991  13.842  21.148  0.00  0.00    +0.000 NA
ATOM     17  N   UNL     1       0.484  10.077  19.816  0.00  0.00    +0.000 NA
ATOM     18  H   UNL     1      -0.985  11.763  22.189  0.00  0.00    +0.000 HD
ENDBRANCH   2   5
BRANCH   1  22
ATOM     19  C   UNL     1       4.868   4.645  16.495  0.00  0.00    +0.000 A 
ATOM     20  C   UNL     1       5.049   6.030  16.544  0.00  0.00    +0.000 A 
ATOM     21  C   UNL     1       4.265   6.830  17.373  0.00  0.00    +0.000 A 
ATOM     22  C   UNL     1       3.248   6.286  18.146  0.00  0.00    +0.000 A 
ATOM     23  C   UNL     1       3.001   4.911  18.028  0.00  0.00    +0.000 A 
ATOM     24  C   UNL     1       3.797   4.080  17.204  0.00  0.00    +0.000 A 
BRANCH  19  26
ATOM     25  C   UNL     1       6.722   4.563  15.029  0.00  0.00    +0.000 C 
ATOM     26  O   UNL     1       5.714   3.858  15.756  0.00  0.00    +0.000 OA
ENDBRANCH  19  26
BRANCH  24  27
ATOM     27  O   UNL     1       3.399   2.767  17.237  0.00  0.00    +0.000 OA
ATOM     28  C   UNL     1       2.458   2.355  18.220  0.00  0.00    +0.000 C 
ENDBRANCH  24  27
ENDBRANCH   1  22
TORSDOF 4
ENDMDL
