MODEL 1
REMARK VINA RESULT:      -7.9      0.000      0.000
REMARK  Name = 
REMARK  12 active torsions:
REMARK  status: ('A' for Active; 'I' for Inactive)
REMARK    1  A    between atoms: C_1  and  C_2
REMARK    2  A    between atoms: C_2  and  C_3
REMARK    3  A    between atoms: C_3  and  C_4
REMARK    4  A    between atoms: C_4  and  N_5
REMARK    5  A    between atoms: N_5  and  C_8
REMARK    6  A    between atoms: C_9  and  C_10
REMARK    7  A    between atoms: C_10  and  C_11
REMARK    8  A    between atoms: C_16  and  C_17
REMARK    9  A    between atoms: N_19  and  C_20
REMARK   10  A    between atoms: C_20  and  C_21
REMARK   11  A    between atoms: C_26  and  O_27
REMARK   12  A    between atoms: O_27  and  C_28
REMARK                            x       y       z     vdW  Elec       q    Type
REMARK                         _______ _______ _______ _____ _____    ______ ____
ROOT
ATOM      1  C   UNL     1      -0.688  11.674  20.991  0.00  0.00    +0.000 A 
ATOM      2  C   UNL     1      -1.018  11.689  22.339  0.00  0.00    +0.000 A 
ATOM      3  N   UNL     1      -0.395  10.665  23.000  0.00  0.00    +0.000 NA
ATOM      4  C   UNL     1       0.248   9.996  22.079  0.00  0.00    +0.000 A 
ATOM      5  C   UNL     1       0.974   8.792  22.175  0.00  0.00    +0.000 A 
ATOM      6  C   UNL     1       1.494   8.253  21.066  0.00  0.00    +0.000 A 
ATOM      7  C   UNL     1       1.447   8.899  19.763  0.00  0.00    +0.000 A 
ATOM      8  C   UNL     1       0.726  10.038  19.674  0.00  0.00    +0.000 A 
ATOM      9  N   UNL     1       0.113  10.559  20.817  0.00  0.00    +0.000 N 
ENDROOT
BRANCH   7  10
ATOM     10  C   UNL     1       2.054   8.385  18.489  0.00  0.00    +0.000 C 
ATOM     11  O   UNL     1       1.904   9.016  17.439  0.00  0.00    +0.000 OA
ATOM     12  N   UNL     1       2.805   7.252  18.448  0.00  0.00    +0.000 N 
ATOM     13  H   UNL     1       3.116   7.031  17.510  0.00  0.00    +0.000 HD
BRANCH  12  14
ATOM     14  C   UNL     1       3.065   6.239  19.459  0.00  0.00    +0.000 C 
BRANCH  14  15
ATOM     15  C   UNL     1       2.256   4.966  19.268  0.00  0.00    +0.000 A 
ATOM     16  C   UNL     1       1.440   4.513  20.334  0.00  0.00    +0.000 A 
ATOM     17  C   UNL     1       0.814   3.267  20.310  0.00  0.00    +0.000 A 
ATOM     18  C   UNL     1       0.949   2.453  19.198  0.00  0.00    +0.000 A 
ATOM     19  C   UNL     1       1.724   2.886  18.124  0.00  0.00    +0.000 A 
ATOM     20  C   UNL     1       2.381   4.128  18.141  0.00  0.00    +0.000 A 
BRANCH  20  21
ATOM     21  O   UNL     1       3.217   4.265  17.067  0.00  0.00    +0.000 OA
ATOM     22  C   UNL     1       4.519   3.707  17.103  0.00  0.00    +0.000 C 
ENDBRANCH  20  21
ENDBRANCH  14  15
ENDBRANCH  12  14
ENDBRANCH   7  10
BRANCH   1  23
ATOM     23  N   UNL     1      -1.131  12.570  20.024  0.00  0.00    +0.000 N 
ATOM     24  C   UNL     1      -0.284  13.697  19.750  0.00  0.00    +0.000 C 
ATOM     25  O   UNL     1      -0.579  14.488  18.867  0.00  0.00    +0.000 OA
BRANCH  23  26
ATOM     26  C   UNL     1      -2.335  12.358  19.184  0.00  0.00    +0.000 C 
BRANCH  26  27
ATOM     27  C   UNL     1      -1.992  11.614  17.891  0.00  0.00    +0.000 C 
BRANCH  27  29
ATOM     28  C   UNL     1      -2.769   9.944  16.187  0.00  0.00    +0.000 C 
ATOM     29  C   UNL     1      -3.203  10.906  17.286  0.00  0.00    +0.000 C 
ENDBRANCH  27  29
ENDBRANCH  26  27
ENDBRANCH  23  26
ENDBRANCH   1  23
BRANCH   2  30
ATOM     30  C   UNL     1      -1.978  12.531  23.101  0.00  0.00    +0.000 C 
ATOM     31  C   UNL     1      -1.369  13.851  23.536  0.00  0.00    +0.000 C 
ENDBRANCH   2  30
TORSDOF 9
ENDMDL
MODEL 2
REMARK VINA RESULT:      -7.8      2.148      8.926
REMARK  Name = 
REMARK  12 active torsions:
REMARK  status: ('A' for Active; 'I' for Inactive)
REMARK    1  A    between atoms: C_1  and  C_2
REMARK    2  A    between atoms: C_2  and  C_3
REMARK    3  A    between atoms: C_3  and  C_4
REMARK    4  A    between atoms: C_4  and  N_5
REMARK    5  A    between atoms: N_5  and  C_8
REMARK    6  A    between atoms: C_9  and  C_10
REMARK    7  A    between atoms: C_10  and  C_11
REMARK    8  A    between atoms: C_16  and  C_17
REMARK    9  A    between atoms: N_19  and  C_20
REMARK   10  A    between atoms: C_20  and  C_21
REMARK   11  A    between atoms: C_26  and  O_27
REMARK   12  A    between atoms: O_27  and  C_28
REMARK                            x       y       z     vdW  Elec       q    Type
REMARK                         _______ _______ _______ _____ _____    ______ ____
ROOT
ATOM      1  C   UNL     1       4.298   4.538  17.759  0.00  0.00    +0.000 A 
ATOM      2  C   UNL     1       5.025   4.746  16.594  0.00  0.00    +0.000 A 
ATOM      3  N   UNL     1       4.965   6.060  16.216  0.00  0.00    +0.000 NA
ATOM      4  C   UNL     1       4.171   6.635  17.081  0.00  0.00    +0.000 A 
ATOM      5  C   UNL     1       3.673   7.953  17.116  0.00  0.00    +0.000 A 
ATOM      6  C   UNL     1       2.806   8.298  18.075  0.00  0.00    +0.000 A 
ATOM      7  C   UNL     1       2.421   7.412  19.164  0.00  0.00    +0.000 A 
ATOM      8  C   UNL     1       2.880   6.143  19.108  0.00  0.00    +0.000 A 
ATOM      9  N   UNL     1       3.722   5.758  18.060  0.00  0.00    +0.000 N 
ENDROOT
BRANCH   7  10
ATOM     10  C   UNL     1       1.501   7.746  20.303  0.00  0.00    +0.000 C 
ATOM     11  O   UNL     1       1.267   6.900  21.171  0.00  0.00    +0.000 OA
ATOM     12  N   UNL     1       0.931   8.972  20.442  0.00  0.00    +0.000 N 
ATOM     13  H   UNL     1       0.317   9.024  21.246  0.00  0.00    +0.000 HD
BRANCH  12  14
ATOM     14  C   UNL     1       0.907  10.123  19.550  0.00  0.00    +0.000 C 
BRANCH  14  15
ATOM     15  C   UNL     1      -0.458  10.391  18.939  0.00  0.00    +0.000 A 
ATOM     16  C   UNL     1      -0.807   9.728  17.736  0.00  0.00    +0.000 A 
ATOM     17  C   UNL     1      -1.956  10.054  17.016  0.00  0.00    +0.000 A 
ATOM     18  C   UNL     1      -2.817  11.024  17.501  0.00  0.00    +0.000 A 
ATOM     19  C   UNL     1      -2.513  11.672  18.696  0.00  0.00    +0.000 A 
ATOM     20  C   UNL     1      -1.347  11.373  19.423  0.00  0.00    +0.000 A 
BRANCH  20  21
ATOM     21  O   UNL     1      -1.167  12.247  20.459  0.00  0.00    +0.000 OA
ATOM     22  C   UNL     1      -0.781  13.586  20.203  0.00  0.00    +0.000 C 
ENDBRANCH  20  21
ENDBRANCH  14  15
ENDBRANCH  12  14
ENDBRANCH   7  10
BRANCH   1  23
ATOM     23  N   UNL     1       4.147   3.329  18.430  0.00  0.00    +0.000 N 
ATOM     24  C   UNL     1       4.894   3.167  19.645  0.00  0.00    +0.000 C 
ATOM     25  O   UNL     1       4.758   2.158  20.321  0.00  0.00    +0.000 OA
BRANCH  23  26
ATOM     26  C   UNL     1       3.174   2.278  18.041  0.00  0.00    +0.000 C 
BRANCH  26  27
ATOM     27  C   UNL     1       1.742   2.818  18.026  0.00  0.00    +0.000 C 
BRANCH  27  29
ATOM     28  C   UNL     1       1.034   3.340  20.376  0.00  0.00    +0.000 C 
ATOM     29  C   UNL     1       0.926   2.345  19.228  0.00  0.00    +0.000 C 
ENDBRANCH  27  29
ENDBRANCH  26  27
ENDBRANCH  23  26
ENDBRANCH   1  23
BRANCH   2  30
ATOM     30  C   UNL     1       5.720   3.790  15.692  0.00  0.00    +0.000 C 
ATOM     31  C   UNL     1       5.745   4.269  14.251  0.00  0.00    +0.000 C 
ENDBRANCH   2  30
TORSDOF 9
ENDMDL
MODEL 3
REMARK VINA RESULT:      -7.7      3.194      9.085
REMARK  Name = 
REMARK  12 active torsions:
REMARK  status: ('A' for Active; 'I' for Inactive)
REMARK    1  A    between atoms: C_1  and  C_2
REMARK    2  A    between atoms: C_2  and  C_3
REMARK    3  A    between atoms: C_3  and  C_4
REMARK    4  A    between atoms: C_4  and  N_5
REMARK    5  A    between atoms: N_5  and  C_8
REMARK    6  A    between atoms: C_9  and  C_10
REMARK    7  A    between atoms: C_10  and  C_11
REMARK    8  A    between atoms: C_16  and  C_17
REMARK    9  A    between atoms: N_19  and  C_20
REMARK   10  A    between atoms: C_20  and  C_21
REMARK   11  A    between atoms: C_26  and  O_27
REMARK   12  A    between atoms: O_27  and  C_28
REMARK                            x       y       z     vdW  Elec       q    Type
REMARK                         _______ _______ _______ _____ _____    ______ ____
ROOT
ATOM      1  C   UNL     1       5.758   5.140  17.306  0.00  0.00    +0.000 A 
ATOM      2  C   UNL     1       5.716   4.566  16.043  0.00  0.00    +0.000 A 
ATOM      3  N   UNL     1       4.463   4.088  15.771  0.00  0.00    +0.000 NA
ATOM      4  C   UNL     1       3.766   4.299  16.857  0.00  0.00    +0.000 A 
ATOM      5  C   UNL     1       2.449   3.917  17.176  0.00  0.00    +0.000 A 
ATOM      6  C   UNL     1       1.967   4.188  18.395  0.00  0.00    +0.000 A 
ATOM      7  C   UNL     1       2.695   4.960  19.391  0.00  0.00    +0.000 A 
ATOM      8  C   UNL     1       3.968   5.298  19.088  0.00  0.00    +0.000 A 
ATOM      9  N   UNL     1       4.500   4.944  17.845  0.00  0.00    +0.000 N 
ENDROOT
BRANCH   7  10
ATOM     10  C   UNL     1       2.200   5.350  20.754  0.00  0.00    +0.000 C 
ATOM     11  O   UNL     1       2.146   4.506  21.653  0.00  0.00    +0.000 OA
ATOM     12  N   UNL     1       1.835   6.624  21.057  0.00  0.00    +0.000 N 
ATOM     13  H   UNL     1       1.500   6.713  22.008  0.00  0.00    +0.000 HD
BRANCH  12  14
ATOM     14  C   UNL     1       1.670   7.799  20.213  0.00  0.00    +0.000 C 
BRANCH  14  15
ATOM     15  C   UNL     1       0.929   8.938  20.893  0.00  0.00    +0.000 A 
ATOM     16  C   UNL     1       0.747   8.889  22.297  0.00  0.00    +0.000 A 
ATOM     17  C   UNL     1      -0.074   9.793  22.970  0.00  0.00    +0.000 A 
ATOM     18  C   UNL     1      -0.705  10.803  22.264  0.00  0.00    +0.000 A 
ATOM     19  C   UNL     1      -0.521  10.892  20.886  0.00  0.00    +0.000 A 
ATOM     20  C   UNL     1       0.285   9.976  20.188  0.00  0.00    +0.000 A 
BRANCH  20  21
ATOM     21  O   UNL     1       0.179  10.148  18.835  0.00  0.00    +0.000 OA
ATOM     22  C   UNL     1      -0.993  10.718  18.280  0.00  0.00    +0.000 C 
ENDBRANCH  20  21
ENDBRANCH  14  15
ENDBRANCH  12  14
ENDBRANCH   7  10
BRANCH   1  23
ATOM     23  N   UNL     1       6.865   5.732  17.905  0.00  0.00    +0.000 N 
ATOM     24  C   UNL     1       7.270   5.203  19.178  0.00  0.00    +0.000 C 
ATOM     25  O   UNL     1       8.274   5.629  19.730  0.00  0.00    +0.000 OA
BRANCH  23  26
ATOM     26  C   UNL     1       7.713   6.760  17.255  0.00  0.00    +0.000 C 
BRANCH  26  27
ATOM     27  C   UNL     1       7.359   8.168  17.742  0.00  0.00    +0.000 C 
BRANCH  27  29
ATOM     28  C   UNL     1       8.662  10.288  18.061  0.00  0.00    +0.000 C 
ATOM     29  C   UNL     1       8.512   8.834  18.490  0.00  0.00    +0.000 C 
ENDBRANCH  27  29
ENDBRANCH  26  27
ENDBRANCH  23  26
ENDBRANCH   1  23
BRANCH   2  30
ATOM     30  C   UNL     1       6.794   4.308  15.051  0.00  0.00    +0.000 C 
ATOM     31  C   UNL     1       6.244   3.943  13.683  0.00  0.00    +0.000 C 
ENDBRANCH   2  30
TORSDOF 9
ENDMDL
MODEL 4
REMARK VINA RESULT:      -7.6      2.438      8.629
REMARK  Name = 
REMARK  12 active torsions:
REMARK  status: ('A' for Active; 'I' for Inactive)
REMARK    1  A    between atoms: C_1  and  C_2
REMARK    2  A    between atoms: C_2  and  C_3
REMARK    3  A    between atoms: C_3  and  C_4
REMARK    4  A    between atoms: C_4  and  N_5
REMARK    5  A    between atoms: N_5  and  C_8
REMARK    6  A    between atoms: C_9  and  C_10
REMARK    7  A    between atoms: C_10  and  C_11
REMARK    8  A    between atoms: C_16  and  C_17
REMARK    9  A    between atoms: N_19  and  C_20
REMARK   10  A    between atoms: C_20  and  C_21
REMARK   11  A    between atoms: C_26  and  O_27
REMARK   12  A    between atoms: O_27  and  C_28
REMARK                            x       y       z     vdW  Elec       q    Type
REMARK                         _______ _______ _______ _____ _____    ______ ____
ROOT
ATOM      1  C   UNL     1       4.044   5.472  18.231  0.00  0.00    +0.000 A 
ATOM      2  C   UNL     1       3.950   4.468  19.185  0.00  0.00    +0.000 A 
ATOM      3  N   UNL     1       3.022   4.791  20.137  0.00  0.00    +0.000 NA
ATOM      4  C   UNL     1       2.600   5.988  19.820  0.00  0.00    +0.000 A 
ATOM      5  C   UNL     1       1.720   6.848  20.505  0.00  0.00    +0.000 A 
ATOM      6  C   UNL     1       1.489   8.071  20.014  0.00  0.00    +0.000 A 
ATOM      7  C   UNL     1       2.017   8.537  18.740  0.00  0.00    +0.000 A 
ATOM      8  C   UNL     1       2.881   7.716  18.103  0.00  0.00    +0.000 A 
ATOM      9  N   UNL     1       3.187   6.470  18.657  0.00  0.00    +0.000 N 
ENDROOT
BRANCH   7  10
ATOM     10  C   UNL     1       1.757   9.870  18.099  0.00  0.00    +0.000 C 
ATOM     11  O   UNL     1       2.668  10.453  17.504  0.00  0.00    +0.000 OA
ATOM     12  N   UNL     1       0.531  10.457  18.117  0.00  0.00    +0.000 N 
ATOM     13  H   UNL     1       0.532  11.364  17.665  0.00  0.00    +0.000 HD
BRANCH  12  14
ATOM     14  C   UNL     1      -0.692  10.100  18.820  0.00  0.00    +0.000 C 
BRANCH  14  15
ATOM     15  C   UNL     1      -1.956  10.379  18.023  0.00  0.00    +0.000 A 
ATOM     16  C   UNL     1      -2.067   9.848  16.714  0.00  0.00    +0.000 A 
ATOM     17  C   UNL     1      -3.105  10.208  15.854  0.00  0.00    +0.000 A 
ATOM     18  C   UNL     1      -4.089  11.076  16.293  0.00  0.00    +0.000 A 
ATOM     19  C   UNL     1      -4.020  11.592  17.586  0.00  0.00    +0.000 A 
ATOM     20  C   UNL     1      -2.969  11.259  18.458  0.00  0.00    +0.000 A 
BRANCH  20  21
ATOM     21  O   UNL     1      -3.011  12.012  19.599  0.00  0.00    +0.000 OA
ATOM     22  C   UNL     1      -2.072  13.054  19.799  0.00  0.00    +0.000 C 
ENDBRANCH  20  21
ENDBRANCH  14  15
ENDBRANCH  12  14
ENDBRANCH   7  10
BRANCH   1  23
ATOM     23  N   UNL     1       4.878   5.475  17.118  0.00  0.00    +0.000 N 
ATOM     24  C   UNL     1       4.595   4.508  16.095  0.00  0.00    +0.000 C 
ATOM     25  O   UNL     1       5.245   4.498  15.060  0.00  0.00    +0.000 OA
BRANCH  23  26
ATOM     26  C   UNL     1       5.934   6.488  16.873  0.00  0.00    +0.000 C 
BRANCH  26  27
ATOM     27  C   UNL     1       7.295   6.015  17.391  0.00  0.00    +0.000 C 
BRANCH  27  29
ATOM     28  C   UNL     1       7.944   8.411  17.755  0.00  0.00    +0.000 C 
ATOM     29  C   UNL     1       7.931   7.013  18.358  0.00  0.00    +0.000 C 
ENDBRANCH  27  29
ENDBRANCH  26  27
ENDBRANCH  23  26
ENDBRANCH   1  23
BRANCH   2  30
ATOM     30  C   UNL     1       4.743   3.224  19.376  0.00  0.00    +0.000 C 
ATOM     31  C   UNL     1       4.227   2.381  20.529  0.00  0.00    +0.000 C 
ENDBRANCH   2  30
TORSDOF 9
ENDMDL
MODEL 5
REMARK VINA RESULT:      -7.5      1.326      1.514
REMARK  Name = 
REMARK  12 active torsions:
REMARK  status: ('A' for Active; 'I' for Inactive)
REMARK    1  A    between atoms: C_1  and  C_2
REMARK    2  A    between atoms: C_2  and  C_3
REMARK    3  A    between atoms: C_3  and  C_4
REMARK    4  A    between atoms: C_4  and  N_5
REMARK    5  A    between atoms: N_5  and  C_8
REMARK    6  A    between atoms: C_9  and  C_10
REMARK    7  A    between atoms: C_10  and  C_11
REMARK    8  A    between atoms: C_16  and  C_17
REMARK    9  A    between atoms: N_19  and  C_20
REMARK   10  A    between atoms: C_20  and  C_21
REMARK   11  A    between atoms: C_26  and  O_27
REMARK   12  A    between atoms: O_27  and  C_28
REMARK                            x       y       z     vdW  Elec       q    Type
REMARK                         _______ _______ _______ _____ _____    ______ ____
ROOT
ATOM      1  C   UNL     1      -0.275  10.862  20.074  0.00  0.00    +0.000 A 
ATOM      2  C   UNL     1      -0.785  10.972  21.361  0.00  0.00    +0.000 A 
ATOM      3  N   UNL     1      -0.280   9.987  22.165  0.00  0.00    +0.000 NA
ATOM      4  C   UNL     1       0.467   9.249  21.386  0.00  0.00    +0.000 A 
ATOM      5  C   UNL     1       1.146   8.045  21.658  0.00  0.00    +0.000 A 
ATOM      6  C   UNL     1       1.800   7.426  20.668  0.00  0.00    +0.000 A 
ATOM      7  C   UNL     1       1.943   7.983  19.331  0.00  0.00    +0.000 A 
ATOM      8  C   UNL     1       1.267   9.124  19.071  0.00  0.00    +0.000 A 
ATOM      9  N   UNL     1       0.517   9.728  20.083  0.00  0.00    +0.000 N 
ENDROOT
BRANCH   7  10
ATOM     10  C   UNL     1       2.706   7.377  18.188  0.00  0.00    +0.000 C 
ATOM     11  O   UNL     1       3.598   8.025  17.633  0.00  0.00    +0.000 OA
ATOM     12  N   UNL     1       2.477   6.110  17.753  0.00  0.00    +0.000 N 
ATOM     13  H   UNL     1       3.056   5.865  16.958  0.00  0.00    +0.000 HD
BRANCH  12  14
ATOM     14  C   UNL     1       1.440   5.150  18.103  0.00  0.00    +0.000 C 
BRANCH  14  15
ATOM     15  C   UNL     1       1.873   4.144  19.157  0.00  0.00    +0.000 A 
ATOM     16  C   UNL     1       0.961   3.803  20.187  0.00  0.00    +0.000 A 
ATOM     17  C   UNL     1       1.340   3.035  21.288  0.00  0.00    +0.000 A 
ATOM     18  C   UNL     1       2.633   2.546  21.370  0.00  0.00    +0.000 A 
ATOM     19  C   UNL     1       3.542   2.842  20.357  0.00  0.00    +0.000 A 
ATOM     20  C   UNL     1       3.185   3.634  19.252  0.00  0.00    +0.000 A 
BRANCH  20  21
ATOM     21  O   UNL     1       4.274   3.938  18.483  0.00  0.00    +0.000 OA
ATOM     22  C   UNL     1       5.403   4.564  19.064  0.00  0.00    +0.000 C 
ENDBRANCH  20  21
ENDBRANCH  14  15
ENDBRANCH  12  14
ENDBRANCH   7  10
BRANCH   1  23
ATOM     23  N   UNL     1      -0.564  11.697  19.000  0.00  0.00    +0.000 N 
ATOM     24  C   UNL     1      -0.010  13.021  19.043  0.00  0.00    +0.000 C 
ATOM     25  O   UNL     1      -0.167  13.786  18.103  0.00  0.00    +0.000 OA
BRANCH  23  26
ATOM     26  C   UNL     1      -1.282  11.261  17.777  0.00  0.00    +0.000 C 
BRANCH  26  27
ATOM     27  C   UNL     1      -2.379  10.245  18.104  0.00  0.00    +0.000 C 
BRANCH  27  29
ATOM     28  C   UNL     1      -2.817   9.828  15.669  0.00  0.00    +0.000 C 
ATOM     29  C   UNL     1      -3.447  10.167  17.013  0.00  0.00    +0.000 C 
ENDBRANCH  27  29
ENDBRANCH  26  27
ENDBRANCH  23  26
ENDBRANCH   1  23
BRANCH   2  30
ATOM     30  C   UNL     1      -1.821  11.875  21.928  0.00  0.00    +0.000 C 
ATOM     31  C   UNL     1      -1.241  12.866  22.921  0.00  0.00    +0.000 C 
ENDBRANCH   2  30
TORSDOF 9
ENDMDL
MODEL 6
REMARK VINA RESULT:      -7.5      1.117      1.765
REMARK  Name = 
REMARK  12 active torsions:
REMARK  status: ('A' for Active; 'I' for Inactive)
REMARK    1  A    between atoms: C_1  and  C_2
REMARK    2  A    between atoms: C_2  and  C_3
REMARK    3  A    between atoms: C_3  and  C_4
REMARK    4  A    between atoms: C_4  and  N_5
REMARK    5  A    between atoms: N_5  and  C_8
REMARK    6  A    between atoms: C_9  and  C_10
REMARK    7  A    between atoms: C_10  and  C_11
REMARK    8  A    between atoms: C_16  and  C_17
REMARK    9  A    between atoms: N_19  and  C_20
REMARK   10  A    between atoms: C_20  and  C_21
REMARK   11  A    between atoms: C_26  and  O_27
REMARK   12  A    between atoms: O_27  and  C_28
REMARK                            x       y       z     vdW  Elec       q    Type
REMARK                         _______ _______ _______ _____ _____    ______ ____
ROOT
ATOM      1  C   UNL     1      -0.301  11.743  20.945  0.00  0.00    +0.000 A 
ATOM      2  C   UNL     1      -0.677  11.750  22.281  0.00  0.00    +0.000 A 
ATOM      3  N   UNL     1      -0.198  10.641  22.924  0.00  0.00    +0.000 NA
ATOM      4  C   UNL     1       0.399   9.934  22.000  0.00  0.00    +0.000 A 
ATOM      5  C   UNL     1       0.981   8.653  22.075  0.00  0.00    +0.000 A 
ATOM      6  C   UNL     1       1.478   8.096  20.964  0.00  0.00    +0.000 A 
ATOM      7  C   UNL     1       1.551   8.786  19.685  0.00  0.00    +0.000 A 
ATOM      8  C   UNL     1       0.967  10.002  19.615  0.00  0.00    +0.000 A 
ATOM      9  N   UNL     1       0.375  10.551  20.756  0.00  0.00    +0.000 N 
ENDROOT
BRANCH   7  10
ATOM     10  C   UNL     1       2.143   8.249  18.414  0.00  0.00    +0.000 C 
ATOM     11  O   UNL     1       1.974   8.857  17.353  0.00  0.00    +0.000 OA
ATOM     12  N   UNL     1       2.901   7.120  18.385  0.00  0.00    +0.000 N 
ATOM     13  H   UNL     1       3.200   6.880  17.448  0.00  0.00    +0.000 HD
BRANCH  12  14
ATOM     14  C   UNL     1       3.181   6.129  19.414  0.00  0.00    +0.000 C 
BRANCH  14  15
ATOM     15  C   UNL     1       3.005   4.695  18.942  0.00  0.00    +0.000 A 
ATOM     16  C   UNL     1       2.985   4.434  17.550  0.00  0.00    +0.000 A 
ATOM     17  C   UNL     1       2.646   3.183  17.035  0.00  0.00    +0.000 A 
ATOM     18  C   UNL     1       2.360   2.140  17.899  0.00  0.00    +0.000 A 
ATOM     19  C   UNL     1       2.400   2.361  19.274  0.00  0.00    +0.000 A 
ATOM     20  C   UNL     1       2.716   3.621  19.811  0.00  0.00    +0.000 A 
BRANCH  20  21
ATOM     21  O   UNL     1       2.523   3.650  21.164  0.00  0.00    +0.000 OA
ATOM     22  C   UNL     1       1.686   2.691  21.784  0.00  0.00    +0.000 C 
ENDBRANCH  20  21
ENDBRANCH  14  15
ENDBRANCH  12  14
ENDBRANCH   7  10
BRANCH   1  23
ATOM     23  N   UNL     1      -0.606  12.715  19.998  0.00  0.00    +0.000 N 
ATOM     24  C   UNL     1       0.402  13.706  19.742  0.00  0.00    +0.000 C 
ATOM     25  O   UNL     1       0.229  14.549  18.875  0.00  0.00    +0.000 OA
BRANCH  23  26
ATOM     26  C   UNL     1      -1.830  12.706  19.160  0.00  0.00    +0.000 C 
BRANCH  26  27
ATOM     27  C   UNL     1      -1.654  11.824  17.922  0.00  0.00    +0.000 C 
BRANCH  27  29
ATOM     28  C   UNL     1      -3.155  10.074  16.932  0.00  0.00    +0.000 C 
ATOM     29  C   UNL     1      -2.254  10.431  18.106  0.00  0.00    +0.000 C 
ENDBRANCH  27  29
ENDBRANCH  26  27
ENDBRANCH  23  26
ENDBRANCH   1  23
BRANCH   2  30
ATOM     30  C   UNL     1      -1.565  12.670  23.041  0.00  0.00    +0.000 C 
ATOM     31  C   UNL     1      -3.036  12.353  22.837  0.00  0.00    +0.000 C 
ENDBRANCH   2  30
TORSDOF 9
ENDMDL
MODEL 7
REMARK VINA RESULT:      -7.4      2.215      8.392
REMARK  Name = 
REMARK  12 active torsions:
REMARK  status: ('A' for Active; 'I' for Inactive)
REMARK    1  A    between atoms: C_1  and  C_2
REMARK    2  A    between atoms: C_2  and  C_3
REMARK    3  A    between atoms: C_3  and  C_4
REMARK    4  A    between atoms: C_4  and  N_5
REMARK    5  A    between atoms: N_5  and  C_8
REMARK    6  A    between atoms: C_9  and  C_10
REMARK    7  A    between atoms: C_10  and  C_11
REMARK    8  A    between atoms: C_16  and  C_17
REMARK    9  A    between atoms: N_19  and  C_20
REMARK   10  A    between atoms: C_20  and  C_21
REMARK   11  A    between atoms: C_26  and  O_27
REMARK   12  A    between atoms: O_27  and  C_28
REMARK                            x       y       z     vdW  Elec       q    Type
REMARK                         _______ _______ _______ _____ _____    ______ ____
ROOT
ATOM      1  C   UNL     1       3.067   5.415  19.192  0.00  0.00    +0.000 A 
ATOM      2  C   UNL     1       2.740   4.612  20.277  0.00  0.00    +0.000 A 
ATOM      3  N   UNL     1       1.861   5.254  21.106  0.00  0.00    +0.000 NA
ATOM      4  C   UNL     1       1.699   6.443  20.587  0.00  0.00    +0.000 A 
ATOM      5  C   UNL     1       0.984   7.554  21.077  0.00  0.00    +0.000 A 
ATOM      6  C   UNL     1       1.020   8.706  20.396  0.00  0.00    +0.000 A 
ATOM      7  C   UNL     1       1.676   8.853  19.105  0.00  0.00    +0.000 A 
ATOM      8  C   UNL     1       2.382   7.792  18.656  0.00  0.00    +0.000 A 
ATOM      9  N   UNL     1       2.412   6.614  19.408  0.00  0.00    +0.000 N 
ENDROOT
BRANCH   7  10
ATOM     10  C   UNL     1       1.711  10.092  18.258  0.00  0.00    +0.000 C 
ATOM     11  O   UNL     1       2.672  10.297  17.510  0.00  0.00    +0.000 OA
ATOM     12  N   UNL     1       0.697  10.998  18.252  0.00  0.00    +0.000 N 
ATOM     13  H   UNL     1       0.890  11.788  17.649  0.00  0.00    +0.000 HD
BRANCH  12  14
ATOM     14  C   UNL     1      -0.490  11.110  19.087  0.00  0.00    +0.000 C 
BRANCH  14  15
ATOM     15  C   UNL     1      -1.790  10.899  18.329  0.00  0.00    +0.000 A 
ATOM     16  C   UNL     1      -1.796  10.014  17.222  0.00  0.00    +0.000 A 
ATOM     17  C   UNL     1      -2.891   9.906  16.366  0.00  0.00    +0.000 A 
ATOM     18  C   UNL     1      -4.034  10.646  16.617  0.00  0.00    +0.000 A 
ATOM     19  C   UNL     1      -4.065  11.503  17.716  0.00  0.00    +0.000 A 
ATOM     20  C   UNL     1      -2.962  11.643  18.575  0.00  0.00    +0.000 A 
BRANCH  20  21
ATOM     21  O   UNL     1      -3.153  12.659  19.471  0.00  0.00    +0.000 OA
ATOM     22  C   UNL     1      -4.128  12.535  20.491  0.00  0.00    +0.000 C 
ENDBRANCH  20  21
ENDBRANCH  14  15
ENDBRANCH  12  14
ENDBRANCH   7  10
BRANCH   1  23
ATOM     23  N   UNL     1       3.925   5.081  18.149  0.00  0.00    +0.000 N 
ATOM     24  C   UNL     1       3.441   4.124  17.195  0.00  0.00    +0.000 C 
ATOM     25  O   UNL     1       4.114   3.835  16.217  0.00  0.00    +0.000 OA
BRANCH  23  26
ATOM     26  C   UNL     1       5.227   5.747  17.899  0.00  0.00    +0.000 C 
BRANCH  26  27
ATOM     27  C   UNL     1       6.197   5.536  19.065  0.00  0.00    +0.000 C 
BRANCH  27  29
ATOM     28  C   UNL     1       8.018   7.127  18.396  0.00  0.00    +0.000 C 
ATOM     29  C   UNL     1       7.658   5.667  18.639  0.00  0.00    +0.000 C 
ENDBRANCH  27  29
ENDBRANCH  26  27
ENDBRANCH  23  26
ENDBRANCH   1  23
BRANCH   2  30
ATOM     30  C   UNL     1       3.261   3.285  20.702  0.00  0.00    +0.000 C 
ATOM     31  C   UNL     1       2.287   2.544  21.600  0.00  0.00    +0.000 C 
ENDBRANCH   2  30
TORSDOF 9
ENDMDL
MODEL 8
REMARK VINA RESULT:      -7.3      2.220      8.956
REMARK  Name = 
REMARK  12 active torsions:
REMARK  status: ('A' for Active; 'I' for Inactive)
REMARK    1  A    between atoms: C_1  and  C_2
REMARK    2  A    between atoms: C_2  and  C_3
REMARK    3  A    between atoms: C_3  and  C_4
REMARK    4  A    between atoms: C_4  and  N_5
REMARK    5  A    between atoms: N_5  and  C_8
REMARK    6  A    between atoms: C_9  and  C_10
REMARK    7  A    between atoms: C_10  and  C_11
REMARK    8  A    between atoms: C_16  and  C_17
REMARK    9  A    between atoms: N_19  and  C_20
REMARK   10  A    between atoms: C_20  and  C_21
REMARK   11  A    between atoms: C_26  and  O_27
REMARK   12  A    between atoms: O_27  and  C_28
REMARK                            x       y       z     vdW  Elec       q    Type
REMARK                         _______ _______ _______ _____ _____    ______ ____
ROOT
ATOM      1  C   UNL     1       4.296   4.444  17.785  0.00  0.00    +0.000 A 
ATOM      2  C   UNL     1       5.054   4.577  16.630  0.00  0.00    +0.000 A 
ATOM      3  N   UNL     1       5.045   5.874  16.193  0.00  0.00    +0.000 NA
ATOM      4  C   UNL     1       4.252   6.512  17.014  0.00  0.00    +0.000 A 
ATOM      5  C   UNL     1       3.797   7.845  16.980  0.00  0.00    +0.000 A 
ATOM      6  C   UNL     1       2.921   8.260  17.903  0.00  0.00    +0.000 A 
ATOM      7  C   UNL     1       2.484   7.436  19.020  0.00  0.00    +0.000 A 
ATOM      8  C   UNL     1       2.903   6.151  19.030  0.00  0.00    +0.000 A 
ATOM      9  N   UNL     1       3.754   5.694  18.019  0.00  0.00    +0.000 N 
ENDROOT
BRANCH   7  10
ATOM     10  C   UNL     1       1.551   7.848  20.122  0.00  0.00    +0.000 C 
ATOM     11  O   UNL     1       1.411   7.124  21.112  0.00  0.00    +0.000 OA
ATOM     12  N   UNL     1       0.866   9.023  20.092  0.00  0.00    +0.000 N 
ATOM     13  H   UNL     1       0.261   9.136  20.897  0.00  0.00    +0.000 HD
BRANCH  12  14
ATOM     14  C   UNL     1       0.718  10.018  19.041  0.00  0.00    +0.000 C 
BRANCH  14  15
ATOM     15  C   UNL     1      -0.405  11.011  19.295  0.00  0.00    +0.000 A 
ATOM     16  C   UNL     1      -0.203  12.036  20.253  0.00  0.00    +0.000 A 
ATOM     17  C   UNL     1      -1.238  12.868  20.676  0.00  0.00    +0.000 A 
ATOM     18  C   UNL     1      -2.499  12.731  20.122  0.00  0.00    +0.000 A 
ATOM     19  C   UNL     1      -2.719  11.749  19.158  0.00  0.00    +0.000 A 
ATOM     20  C   UNL     1      -1.693  10.885  18.737  0.00  0.00    +0.000 A 
BRANCH  20  21
ATOM     21  O   UNL     1      -2.176   9.897  17.923  0.00  0.00    +0.000 OA
ATOM     22  C   UNL     1      -2.252  10.102  16.524  0.00  0.00    +0.000 C 
ENDBRANCH  20  21
ENDBRANCH  14  15
ENDBRANCH  12  14
ENDBRANCH   7  10
BRANCH   1  23
ATOM     23  N   UNL     1       4.091   3.271  18.505  0.00  0.00    +0.000 N 
ATOM     24  C   UNL     1       4.880   3.095  19.692  0.00  0.00    +0.000 C 
ATOM     25  O   UNL     1       4.704   2.121  20.408  0.00  0.00    +0.000 OA
BRANCH  23  26
ATOM     26  C   UNL     1       3.031   2.281  18.196  0.00  0.00    +0.000 C 
BRANCH  26  27
ATOM     27  C   UNL     1       1.674   2.959  17.990  0.00  0.00    +0.000 C 
BRANCH  27  29
ATOM     28  C   UNL     1       1.151   3.215  20.431  0.00  0.00    +0.000 C 
ATOM     29  C   UNL     1       0.682   2.631  19.105  0.00  0.00    +0.000 C 
ENDBRANCH  27  29
ENDBRANCH  26  27
ENDBRANCH  23  26
ENDBRANCH   1  23
BRANCH   2  30
ATOM     30  C   UNL     1       5.737   3.560  15.786  0.00  0.00    +0.000 C 
ATOM     31  C   UNL     1       5.955   4.043  14.363  0.00  0.00    +0.000 C 
ENDBRANCH   2  30
TORSDOF 9
ENDMDL
MODEL 9
REMARK VINA RESULT:      -7.3      2.496      8.532
REMARK  Name = 
REMARK  12 active torsions:
REMARK  status: ('A' for Active; 'I' for Inactive)
REMARK    1  A    between atoms: C_1  and  C_2
REMARK    2  A    between atoms: C_2  and  C_3
REMARK    3  A    between atoms: C_3  and  C_4
REMARK    4  A    between atoms: C_4  and  N_5
REMARK    5  A    between atoms: N_5  and  C_8
REMARK    6  A    between atoms: C_9  and  C_10
REMARK    7  A    between atoms: C_10  and  C_11
REMARK    8  A    between atoms: C_16  and  C_17
REMARK    9  A    between atoms: N_19  and  C_20
REMARK   10  A    between atoms: C_20  and  C_21
REMARK   11  A    between atoms: C_26  and  O_27
REMARK   12  A    between atoms: O_27  and  C_28
REMARK                            x       y       z     vdW  Elec       q    Type
REMARK                         _______ _______ _______ _____ _____    ______ ____
ROOT
ATOM      1  C   UNL     1       4.334   6.021  18.178  0.00  0.00    +0.000 A 
ATOM      2  C   UNL     1       4.301   4.936  19.043  0.00  0.00    +0.000 A 
ATOM      3  N   UNL     1       3.266   5.057  19.930  0.00  0.00    +0.000 NA
ATOM      4  C   UNL     1       2.715   6.214  19.667  0.00  0.00    +0.000 A 
ATOM      5  C   UNL     1       1.678   6.895  20.334  0.00  0.00    +0.000 A 
ATOM      6  C   UNL     1       1.326   8.117  19.917  0.00  0.00    +0.000 A 
ATOM      7  C   UNL     1       1.885   8.752  18.733  0.00  0.00    +0.000 A 
ATOM      8  C   UNL     1       2.898   8.104  18.115  0.00  0.00    +0.000 A 
ATOM      9  N   UNL     1       3.322   6.863  18.600  0.00  0.00    +0.000 N 
ENDROOT
BRANCH   7  10
ATOM     10  C   UNL     1       1.501  10.091  18.173  0.00  0.00    +0.000 C 
ATOM     11  O   UNL     1       2.336  11.000  18.129  0.00  0.00    +0.000 OA
ATOM     12  N   UNL     1       0.263  10.341  17.671  0.00  0.00    +0.000 N 
ATOM     13  H   UNL     1       0.159  11.299  17.360  0.00  0.00    +0.000 HD
BRANCH  12  14
ATOM     14  C   UNL     1      -0.955   9.544  17.686  0.00  0.00    +0.000 C 
BRANCH  14  15
ATOM     15  C   UNL     1      -2.195  10.331  18.075  0.00  0.00    +0.000 A 
ATOM     16  C   UNL     1      -3.382  10.147  17.324  0.00  0.00    +0.000 A 
ATOM     17  C   UNL     1      -4.502  10.959  17.497  0.00  0.00    +0.000 A 
ATOM     18  C   UNL     1      -4.486  11.954  18.459  0.00  0.00    +0.000 A 
ATOM     19  C   UNL     1      -3.341  12.140  19.232  0.00  0.00    +0.000 A 
ATOM     20  C   UNL     1      -2.194  11.346  19.055  0.00  0.00    +0.000 A 
BRANCH  20  21
ATOM     21  O   UNL     1      -1.143  11.817  19.792  0.00  0.00    +0.000 OA
ATOM     22  C   UNL     1      -1.374  12.453  21.036  0.00  0.00    +0.000 C 
ENDBRANCH  20  21
ENDBRANCH  14  15
ENDBRANCH  12  14
ENDBRANCH   7  10
BRANCH   1  23
ATOM     23  N   UNL     1       5.246   6.225  17.147  0.00  0.00    +0.000 N 
ATOM     24  C   UNL     1       6.502   6.823  17.503  0.00  0.00    +0.000 C 
ATOM     25  O   UNL     1       7.374   6.969  16.661  0.00  0.00    +0.000 OA
BRANCH  23  26
ATOM     26  C   UNL     1       5.050   5.744  15.757  0.00  0.00    +0.000 C 
BRANCH  26  27
ATOM     27  C   UNL     1       5.229   4.226  15.660  0.00  0.00    +0.000 C 
BRANCH  27  29
ATOM     28  C   UNL     1       6.959   4.922  13.982  0.00  0.00    +0.000 C 
ATOM     29  C   UNL     1       6.016   3.810  14.418  0.00  0.00    +0.000 C 
ENDBRANCH  27  29
ENDBRANCH  26  27
ENDBRANCH  23  26
ENDBRANCH   1  23
BRANCH   2  30
ATOM     30  C   UNL     1       5.234   3.790  19.210  0.00  0.00    +0.000 C 
ATOM     31  C   UNL     1       4.542   2.557  19.763  0.00  0.00    +0.000 C 
ENDBRANCH   2  30
TORSDOF 9
ENDMDL
