MODEL 1
REMARK VINA RESULT:      -7.5      0.000      0.000
REMARK  Name = 
REMARK  6 active torsions:
REMARK  status: ('A' for Active; 'I' for Inactive)
REMARK    1  A    between atoms: C_1  and  C_2
REMARK    2  A    between atoms: C_3  and  N_4
REMARK    3  A    between atoms: N_7  and  C_8
REMARK    4  A    between atoms: C_16  and  O_17
REMARK    5  A    between atoms: C_19  and  O_20
REMARK    6  A    between atoms: O_20  and  C_21
REMARK                            x       y       z     vdW  Elec       q    Type
REMARK                         _______ _______ _______ _____ _____    ______ ____
ROOT
ATOM      1  C   UNL     1       1.369   6.344  20.413  0.00  0.00    +0.000 C 
ATOM      2  C   UNL     1       2.118   7.168  19.398  0.00  0.00    +0.000 A 
ATOM      3  C   UNL     1       1.758   8.449  19.145  0.00  0.00    +0.000 A 
ATOM      4  C   UNL     1       2.333   9.174  17.953  0.00  0.00    +0.000 A 
ATOM      5  O   UNL     1       2.086  10.353  17.709  0.00  0.00    +0.000 OA
ATOM      6  O   UNL     1       3.112   8.428  17.089  0.00  0.00    +0.000 OA
ATOM      7  C   UNL     1       3.680   7.214  17.504  0.00  0.00    +0.000 A 
ATOM      8  C   UNL     1       4.737   6.768  16.709  0.00  0.00    +0.000 A 
ATOM      9  C   UNL     1       5.419   5.638  17.107  0.00  0.00    +0.000 A 
ATOM     10  C   UNL     1       5.054   4.956  18.263  0.00  0.00    +0.000 A 
ATOM     11  C   UNL     1       3.963   5.378  19.038  0.00  0.00    +0.000 A 
ATOM     12  C   UNL     1       3.245   6.545  18.655  0.00  0.00    +0.000 A 
ENDROOT
BRANCH   3  13
ATOM     13  N   UNL     1       0.872   9.178  19.962  0.00  0.00    +0.000 N 
ATOM     14  C   UNL     1      -0.527   9.453  19.587  0.00  0.00    +0.000 C 
ATOM     15  C   UNL     1      -0.880  10.953  19.701  0.00  0.00    +0.000 C 
ATOM     16  N   UNL     1      -0.537  11.500  21.031  0.00  0.00    +0.000 NA
ATOM     17  C   UNL     1      -0.922  12.901  21.141  0.00  0.00    +0.000 C 
ATOM     18  C   UNL     1       0.918  11.331  21.233  0.00  0.00    +0.000 C 
ATOM     19  C   UNL     1       1.332   9.845  21.193  0.00  0.00    +0.000 C 
ENDBRANCH   3  13
BRANCH   9  20
ATOM     20  O   UNL     1       6.468   5.148  16.390  0.00  0.00    +0.000 OA
ATOM     21  H   UNL     1       6.149   4.895  15.508  0.00  0.00    +0.000 HD
ENDBRANCH   9  20
BRANCH  11  22
ATOM     22  O   UNL     1       3.536   4.678  20.143  0.00  0.00    +0.000 OA
BRANCH  22  23
ATOM     23  C   UNL     1       3.591   3.243  20.153  0.00  0.00    +0.000 C 
ATOM     24  C   UNL     1       2.779   2.690  21.325  0.00  0.00    +0.000 C 
ATOM     25  C   UNL     1       1.303   3.071  21.230  0.00  0.00    +0.000 C 
ATOM     26  C   UNL     1       0.667   2.758  19.876  0.00  0.00    +0.000 C 
ATOM     27  C   UNL     1       1.534   3.080  18.659  0.00  0.00    +0.000 C 
ATOM     28  C   UNL     1       3.000   2.710  18.841  0.00  0.00    +0.000 C 
ENDBRANCH  22  23
ENDBRANCH  11  22
TORSDOF 4
ENDMDL
MODEL 2
REMARK VINA RESULT:      -7.3      1.944      4.190
REMARK  Name = 
REMARK  6 active torsions:
REMARK  status: ('A' for Active; 'I' for Inactive)
REMARK    1  A    between atoms: C_1  and  C_2
REMARK    2  A    between atoms: C_3  and  N_4
REMARK    3  A    between atoms: N_7  and  C_8
REMARK    4  A    between atoms: C_16  and  O_17
REMARK    5  A    between atoms: C_19  and  O_20
REMARK    6  A    between atoms: O_20  and  C_21
REMARK                            x       y       z     vdW  Elec       q    Type
REMARK                         _______ _______ _______ _____ _____    ______ ____
ROOT
ATOM      1  C   UNL     1       3.251   7.811  17.503  0.00  0.00    +0.000 C 
ATOM      2  C   UNL     1       2.412   7.491  18.713  0.00  0.00    +0.000 A 
ATOM      3  C   UNL     1       1.607   8.431  19.265  0.00  0.00    +0.000 A 
ATOM      4  C   UNL     1       0.981   8.188  20.617  0.00  0.00    +0.000 A 
ATOM      5  O   UNL     1       0.198   8.980  21.138  0.00  0.00    +0.000 OA
ATOM      6  O   UNL     1       1.381   7.051  21.291  0.00  0.00    +0.000 OA
ATOM      7  C   UNL     1       1.987   5.986  20.606  0.00  0.00    +0.000 A 
ATOM      8  C   UNL     1       1.979   4.775  21.297  0.00  0.00    +0.000 A 
ATOM      9  C   UNL     1       2.459   3.655  20.652  0.00  0.00    +0.000 A 
ATOM     10  C   UNL     1       2.948   3.736  19.353  0.00  0.00    +0.000 A 
ATOM     11  C   UNL     1       2.997   4.963  18.674  0.00  0.00    +0.000 A 
ATOM     12  C   UNL     1       2.503   6.134  19.312  0.00  0.00    +0.000 A 
ENDROOT
BRANCH   3  13
ATOM     13  N   UNL     1       1.288   9.645  18.628  0.00  0.00    +0.000 N 
ATOM     14  C   UNL     1       2.163  10.830  18.670  0.00  0.00    +0.000 C 
ATOM     15  C   UNL     1       1.407  12.101  19.119  0.00  0.00    +0.000 C 
ATOM     16  N   UNL     1       0.189  12.330  18.313  0.00  0.00    +0.000 NA
ATOM     17  C   UNL     1      -0.485  13.559  18.713  0.00  0.00    +0.000 C 
ATOM     18  C   UNL     1      -0.697  11.159  18.480  0.00  0.00    +0.000 C 
ATOM     19  C   UNL     1      -0.024   9.859  17.991  0.00  0.00    +0.000 C 
ENDBRANCH   3  13
BRANCH   9  20
ATOM     20  O   UNL     1       2.475   2.434  21.258  0.00  0.00    +0.000 OA
ATOM     21  H   UNL     1       2.964   2.509  22.094  0.00  0.00    +0.000 HD
ENDBRANCH   9  20
BRANCH  11  22
ATOM     22  O   UNL     1       3.544   5.082  17.417  0.00  0.00    +0.000 OA
BRANCH  22  23
ATOM     23  C   UNL     1       4.622   4.220  17.015  0.00  0.00    +0.000 C 
ATOM     24  C   UNL     1       5.038   4.530  15.576  0.00  0.00    +0.000 C 
ATOM     25  C   UNL     1       5.543   5.963  15.421  0.00  0.00    +0.000 C 
ATOM     26  C   UNL     1       6.612   6.357  16.440  0.00  0.00    +0.000 C 
ATOM     27  C   UNL     1       6.362   5.874  17.867  0.00  0.00    +0.000 C 
ATOM     28  C   UNL     1       5.821   4.452  17.943  0.00  0.00    +0.000 C 
ENDBRANCH  22  23
ENDBRANCH  11  22
TORSDOF 4
ENDMDL
MODEL 3
REMARK VINA RESULT:      -7.3      6.345      8.941
REMARK  Name = 
REMARK  6 active torsions:
REMARK  status: ('A' for Active; 'I' for Inactive)
REMARK    1  A    between atoms: C_1  and  C_2
REMARK    2  A    between atoms: C_3  and  N_4
REMARK    3  A    between atoms: N_7  and  C_8
REMARK    4  A    between atoms: C_16  and  O_17
REMARK    5  A    between atoms: C_19  and  O_20
REMARK    6  A    between atoms: O_20  and  C_21
REMARK                            x       y       z     vdW  Elec       q    Type
REMARK                         _______ _______ _______ _____ _____    ______ ____
ROOT
ATOM      1  C   UNL     1      -3.792  13.465  20.283  0.00  0.00    +0.000 C 
ATOM      2  C   UNL     1      -2.795  12.382  19.964  0.00  0.00    +0.000 A 
ATOM      3  C   UNL     1      -1.789  12.091  20.824  0.00  0.00    +0.000 A 
ATOM      4  C   UNL     1      -0.652  11.202  20.383  0.00  0.00    +0.000 A 
ATOM      5  O   UNL     1       0.254  10.859  21.139  0.00  0.00    +0.000 OA
ATOM      6  O   UNL     1      -0.633  10.832  19.052  0.00  0.00    +0.000 OA
ATOM      7  C   UNL     1      -1.794  10.914  18.268  0.00  0.00    +0.000 A 
ATOM      8  C   UNL     1      -1.754  10.162  17.094  0.00  0.00    +0.000 A 
ATOM      9  C   UNL     1      -2.892  10.103  16.319  0.00  0.00    +0.000 A 
ATOM     10  C   UNL     1      -4.044  10.786  16.694  0.00  0.00    +0.000 A 
ATOM     11  C   UNL     1      -4.071  11.579  17.852  0.00  0.00    +0.000 A 
ATOM     12  C   UNL     1      -2.913  11.653  18.674  0.00  0.00    +0.000 A 
ENDROOT
BRANCH   3  13
ATOM     13  N   UNL     1      -1.748  12.561  22.151  0.00  0.00    +0.000 N 
ATOM     14  C   UNL     1      -2.634  12.050  23.212  0.00  0.00    +0.000 C 
ATOM     15  C   UNL     1      -3.366  13.185  23.962  0.00  0.00    +0.000 C 
ATOM     16  N   UNL     1      -2.426  14.211  24.460  0.00  0.00    +0.000 NA
ATOM     17  C   UNL     1      -3.124  15.248  25.209  0.00  0.00    +0.000 C 
ATOM     18  C   UNL     1      -1.715  14.783  23.297  0.00  0.00    +0.000 C 
ATOM     19  C   UNL     1      -0.909  13.709  22.536  0.00  0.00    +0.000 C 
ENDBRANCH   3  13
BRANCH   9  20
ATOM     20  O   UNL     1      -2.934   9.381  15.165  0.00  0.00    +0.000 OA
ATOM     21  H   UNL     1      -2.047   9.378  14.769  0.00  0.00    +0.000 HD
ENDBRANCH   9  20
BRANCH  11  22
ATOM     22  O   UNL     1      -5.174  12.322  18.204  0.00  0.00    +0.000 OA
BRANCH  22  23
ATOM     23  C   UNL     1      -6.495  11.813  17.958  0.00  0.00    +0.000 C 
ATOM     24  C   UNL     1      -6.838  10.722  18.974  0.00  0.00    +0.000 C 
ATOM     25  C   UNL     1      -6.832  11.251  20.407  0.00  0.00    +0.000 C 
ATOM     26  C   UNL     1      -7.663  12.518  20.603  0.00  0.00    +0.000 C 
ATOM     27  C   UNL     1      -7.536  13.559  19.493  0.00  0.00    +0.000 C 
ATOM     28  C   UNL     1      -7.507  12.957  18.094  0.00  0.00    +0.000 C 
ENDBRANCH  22  23
ENDBRANCH  11  22
TORSDOF 4
ENDMDL
MODEL 4
REMARK VINA RESULT:      -7.2      8.647     10.561
REMARK  Name = 
REMARK  6 active torsions:
REMARK  status: ('A' for Active; 'I' for Inactive)
REMARK    1  A    between atoms: C_1  and  C_2
REMARK    2  A    between atoms: C_3  and  N_4
REMARK    3  A    between atoms: N_7  and  C_8
REMARK    4  A    between atoms: C_16  and  O_17
REMARK    5  A    between atoms: C_19  and  O_20
REMARK    6  A    between atoms: O_20  and  C_21
REMARK                            x       y       z     vdW  Elec       q    Type
REMARK                         _______ _______ _______ _____ _____    ______ ____
ROOT
ATOM      1  C   UNL     1       7.617  13.730  17.753  0.00  0.00    +0.000 C 
ATOM      2  C   UNL     1       7.690  15.177  18.169  0.00  0.00    +0.000 A 
ATOM      3  C   UNL     1       6.616  15.795  18.716  0.00  0.00    +0.000 A 
ATOM      4  C   UNL     1       6.611  17.295  18.881  0.00  0.00    +0.000 A 
ATOM      5  O   UNL     1       5.689  17.900  19.423  0.00  0.00    +0.000 OA
ATOM      6  O   UNL     1       7.674  17.984  18.329  0.00  0.00    +0.000 OA
ATOM      7  C   UNL     1       8.873  17.324  18.019  0.00  0.00    +0.000 A 
ATOM      8  C   UNL     1       9.971  18.167  17.850  0.00  0.00    +0.000 A 
ATOM      9  C   UNL     1      11.208  17.593  17.647  0.00  0.00    +0.000 A 
ATOM     10  C   UNL     1      11.352  16.211  17.601  0.00  0.00    +0.000 A 
ATOM     11  C   UNL     1      10.241  15.363  17.726  0.00  0.00    +0.000 A 
ATOM     12  C   UNL     1       8.953  15.927  17.943  0.00  0.00    +0.000 A 
ENDROOT
BRANCH   3  13
ATOM     13  N   UNL     1       5.479  15.103  19.177  0.00  0.00    +0.000 N 
ATOM     14  C   UNL     1       4.307  14.826  18.327  0.00  0.00    +0.000 C 
ATOM     15  C   UNL     1       2.985  15.273  18.988  0.00  0.00    +0.000 C 
ATOM     16  N   UNL     1       2.835  14.718  20.351  0.00  0.00    +0.000 NA
ATOM     17  C   UNL     1       1.561  15.107  20.942  0.00  0.00    +0.000 C 
ATOM     18  C   UNL     1       3.969  15.200  21.168  0.00  0.00    +0.000 C 
ATOM     19  C   UNL     1       5.325  14.734  20.594  0.00  0.00    +0.000 C 
ENDBRANCH   3  13
BRANCH   9  20
ATOM     20  O   UNL     1      12.329  18.351  17.485  0.00  0.00    +0.000 OA
ATOM     21  H   UNL     1      12.061  19.277  17.365  0.00  0.00    +0.000 HD
ENDBRANCH   9  20
BRANCH  11  22
ATOM     22  O   UNL     1      10.347  13.996  17.609  0.00  0.00    +0.000 OA
BRANCH  22  23
ATOM     23  C   UNL     1      11.440  13.302  18.233  0.00  0.00    +0.000 C 
ATOM     24  C   UNL     1      11.336  13.412  19.755  0.00  0.00    +0.000 C 
ATOM     25  C   UNL     1      10.054  12.778  20.289  0.00  0.00    +0.000 C 
ATOM     26  C   UNL     1       9.808  11.357  19.785  0.00  0.00    +0.000 C 
ATOM     27  C   UNL     1      10.116  11.128  18.306  0.00  0.00    +0.000 C 
ATOM     28  C   UNL     1      11.386  11.822  17.834  0.00  0.00    +0.000 C 
ENDBRANCH  22  23
ENDBRANCH  11  22
TORSDOF 4
ENDMDL
MODEL 5
REMARK VINA RESULT:      -7.0      3.072      6.473
REMARK  Name = 
REMARK  6 active torsions:
REMARK  status: ('A' for Active; 'I' for Inactive)
REMARK    1  A    between atoms: C_1  and  C_2
REMARK    2  A    between atoms: C_3  and  N_4
REMARK    3  A    between atoms: N_7  and  C_8
REMARK    4  A    between atoms: C_16  and  O_17
REMARK    5  A    between atoms: C_19  and  O_20
REMARK    6  A    between atoms: O_20  and  C_21
REMARK                            x       y       z     vdW  Elec       q    Type
REMARK                         _______ _______ _______ _____ _____    ______ ____
ROOT
ATOM      1  C   UNL     1       4.979   4.467  18.886  0.00  0.00    +0.000 C 
ATOM      2  C   UNL     1       4.373   5.619  18.127  0.00  0.00    +0.000 A 
ATOM      3  C   UNL     1       4.750   5.881  16.852  0.00  0.00    +0.000 A 
ATOM      4  C   UNL     1       4.343   7.178  16.196  0.00  0.00    +0.000 A 
ATOM      5  O   UNL     1       4.607   7.441  15.025  0.00  0.00    +0.000 OA
ATOM      6  O   UNL     1       3.707   8.106  16.997  0.00  0.00    +0.000 OA
ATOM      7  C   UNL     1       3.101   7.718  18.202  0.00  0.00    +0.000 A 
ATOM      8  C   UNL     1       2.176   8.633  18.706  0.00  0.00    +0.000 A 
ATOM      9  C   UNL     1       1.459   8.281  19.830  0.00  0.00    +0.000 A 
ATOM     10  C   UNL     1       1.663   7.053  20.449  0.00  0.00    +0.000 A 
ATOM     11  C   UNL     1       2.625   6.151  19.969  0.00  0.00    +0.000 A 
ATOM     12  C   UNL     1       3.374   6.484  18.807  0.00  0.00    +0.000 A 
ENDROOT
BRANCH   3  13
ATOM     13  N   UNL     1       5.498   4.982  16.067  0.00  0.00    +0.000 N 
ATOM     14  C   UNL     1       6.939   5.151  15.804  0.00  0.00    +0.000 C 
ATOM     15  C   UNL     1       7.272   5.076  14.298  0.00  0.00    +0.000 C 
ATOM     16  N   UNL     1       6.726   3.852  13.673  0.00  0.00    +0.000 NA
ATOM     17  C   UNL     1       7.092   3.770  12.265  0.00  0.00    +0.000 C 
ATOM     18  C   UNL     1       5.258   3.869  13.841  0.00  0.00    +0.000 C 
ATOM     19  C   UNL     1       4.853   3.882  15.330  0.00  0.00    +0.000 C 
ENDBRANCH   3  13
BRANCH   9  20
ATOM     20  O   UNL     1       0.531   9.117  20.375  0.00  0.00    +0.000 OA
ATOM     21  H   UNL     1       0.644  10.001  19.987  0.00  0.00    +0.000 HD
ENDBRANCH   9  20
BRANCH  11  22
ATOM     22  O   UNL     1       2.896   4.963  20.607  0.00  0.00    +0.000 OA
BRANCH  22  23
ATOM     23  C   UNL     1       1.820   4.124  21.057  0.00  0.00    +0.000 C 
ATOM     24  C   UNL     1       0.820   3.892  19.923  0.00  0.00    +0.000 C 
ATOM     25  C   UNL     1       1.459   3.181  18.732  0.00  0.00    +0.000 C 
ATOM     26  C   UNL     1       2.228   1.914  19.106  0.00  0.00    +0.000 C 
ATOM     27  C   UNL     1       3.075   2.016  20.373  0.00  0.00    +0.000 C 
ATOM     28  C   UNL     1       2.391   2.772  21.504  0.00  0.00    +0.000 C 
ENDBRANCH  22  23
ENDBRANCH  11  22
TORSDOF 4
ENDMDL
MODEL 6
REMARK VINA RESULT:      -6.8      8.429     10.340
REMARK  Name = 
REMARK  6 active torsions:
REMARK  status: ('A' for Active; 'I' for Inactive)
REMARK    1  A    between atoms: C_1  and  C_2
REMARK    2  A    between atoms: C_3  and  N_4
REMARK    3  A    between atoms: N_7  and  C_8
REMARK    4  A    between atoms: C_16  and  O_17
REMARK    5  A    between atoms: C_19  and  O_20
REMARK    6  A    between atoms: O_20  and  C_21
REMARK                            x       y       z     vdW  Elec       q    Type
REMARK                         _______ _______ _______ _____ _____    ______ ____
ROOT
ATOM      1  C   UNL     1       7.355  13.978  17.858  0.00  0.00    +0.000 C 
ATOM      2  C   UNL     1       7.419  15.314  18.552  0.00  0.00    +0.000 A 
ATOM      3  C   UNL     1       6.285  15.983  18.872  0.00  0.00    +0.000 A 
ATOM      4  C   UNL     1       6.359  17.422  19.319  0.00  0.00    +0.000 A 
ATOM      5  O   UNL     1       5.370  18.058  19.677  0.00  0.00    +0.000 OA
ATOM      6  O   UNL     1       7.596  18.032  19.247  0.00  0.00    +0.000 OA
ATOM      7  C   UNL     1       8.770  17.267  19.176  0.00  0.00    +0.000 A 
ATOM      8  C   UNL     1       9.935  17.962  19.502  0.00  0.00    +0.000 A 
ATOM      9  C   UNL     1      11.119  17.258  19.560  0.00  0.00    +0.000 A 
ATOM     10  C   UNL     1      11.150  15.895  19.288  0.00  0.00    +0.000 A 
ATOM     11  C   UNL     1       9.987  15.204  18.915  0.00  0.00    +0.000 A 
ATOM     12  C   UNL     1       8.750  15.904  18.854  0.00  0.00    +0.000 A 
ENDROOT
BRANCH   3  13
ATOM     13  N   UNL     1       5.006  15.394  18.838  0.00  0.00    +0.000 N 
ATOM     14  C   UNL     1       4.115  15.476  17.667  0.00  0.00    +0.000 C 
ATOM     15  C   UNL     1       2.702  15.978  18.039  0.00  0.00    +0.000 C 
ATOM     16  N   UNL     1       2.111  15.191  19.142  0.00  0.00    +0.000 NA
ATOM     17  C   UNL     1       0.760  15.643  19.448  0.00  0.00    +0.000 C 
ATOM     18  C   UNL     1       2.994  15.320  20.321  0.00  0.00    +0.000 C 
ATOM     19  C   UNL     1       4.411  14.777  20.035  0.00  0.00    +0.000 C 
ENDBRANCH   3  13
BRANCH   9  20
ATOM     20  O   UNL     1      12.296  17.865  19.882  0.00  0.00    +0.000 OA
ATOM     21  H   UNL     1      12.901  17.196  20.242  0.00  0.00    +0.000 HD
ENDBRANCH   9  20
BRANCH  11  22
ATOM     22  O   UNL     1      10.005  13.873  18.570  0.00  0.00    +0.000 OA
BRANCH  22  23
ATOM     23  C   UNL     1      11.054  13.017  19.053  0.00  0.00    +0.000 C 
ATOM     24  C   UNL     1      10.714  12.502  20.452  0.00  0.00    +0.000 C 
ATOM     25  C   UNL     1       9.433  11.671  20.461  0.00  0.00    +0.000 C 
ATOM     26  C   UNL     1       9.403  10.567  19.405  0.00  0.00    +0.000 C 
ATOM     27  C   UNL     1       9.949  10.961  18.034  0.00  0.00    +0.000 C 
ATOM     28  C   UNL     1      11.203  11.822  18.103  0.00  0.00    +0.000 C 
ENDBRANCH  22  23
ENDBRANCH  11  22
TORSDOF 4
ENDMDL
MODEL 7
REMARK VINA RESULT:      -6.5      1.831      4.015
REMARK  Name = 
REMARK  6 active torsions:
REMARK  status: ('A' for Active; 'I' for Inactive)
REMARK    1  A    between atoms: C_1  and  C_2
REMARK    2  A    between atoms: C_3  and  N_4
REMARK    3  A    between atoms: N_7  and  C_8
REMARK    4  A    between atoms: C_16  and  O_17
REMARK    5  A    between atoms: C_19  and  O_20
REMARK    6  A    between atoms: O_20  and  C_21
REMARK                            x       y       z     vdW  Elec       q    Type
REMARK                         _______ _______ _______ _____ _____    ______ ____
ROOT
ATOM      1  C   UNL     1       2.975   8.502  17.718  0.00  0.00    +0.000 C 
ATOM      2  C   UNL     1       2.209   7.915  18.876  0.00  0.00    +0.000 A 
ATOM      3  C   UNL     1       1.319   8.666  19.568  0.00  0.00    +0.000 A 
ATOM      4  C   UNL     1       0.760   8.160  20.875  0.00  0.00    +0.000 A 
ATOM      5  O   UNL     1      -0.093   8.772  21.514  0.00  0.00    +0.000 OA
ATOM      6  O   UNL     1       1.302   6.991  21.371  0.00  0.00    +0.000 OA
ATOM      7  C   UNL     1       2.005   6.113  20.532  0.00  0.00    +0.000 A 
ATOM      8  C   UNL     1       2.152   4.822  21.037  0.00  0.00    +0.000 A 
ATOM      9  C   UNL     1       2.738   3.869  20.230  0.00  0.00    +0.000 A 
ATOM     10  C   UNL     1       3.180   4.194  18.953  0.00  0.00    +0.000 A 
ATOM     11  C   UNL     1       3.074   5.504  18.460  0.00  0.00    +0.000 A 
ATOM     12  C   UNL     1       2.467   6.505  19.268  0.00  0.00    +0.000 A 
ENDROOT
BRANCH   3  13
ATOM     13  N   UNL     1       0.848   9.915  19.118  0.00  0.00    +0.000 N 
ATOM     14  C   UNL     1       1.441  11.197  19.539  0.00  0.00    +0.000 C 
ATOM     15  C   UNL     1       0.381  12.188  20.069  0.00  0.00    +0.000 C 
ATOM     16  N   UNL     1      -0.730  12.370  19.110  0.00  0.00    +0.000 NA
ATOM     17  C   UNL     1      -1.695  13.345  19.600  0.00  0.00    +0.000 C 
ATOM     18  C   UNL     1      -1.367  11.054  18.892  0.00  0.00    +0.000 C 
ATOM     19  C   UNL     1      -0.374  10.029  18.303  0.00  0.00    +0.000 C 
ENDBRANCH   3  13
BRANCH   9  20
ATOM     20  O   UNL     1       2.907   2.584  20.649  0.00  0.00    +0.000 OA
ATOM     21  H   UNL     1       3.769   2.266  20.334  0.00  0.00    +0.000 HD
ENDBRANCH   9  20
BRANCH  11  22
ATOM     22  O   UNL     1       3.570   5.865  17.229  0.00  0.00    +0.000 OA
BRANCH  22  23
ATOM     23  C   UNL     1       4.860   6.492  17.128  0.00  0.00    +0.000 C 
ATOM     24  C   UNL     1       5.906   5.674  17.888  0.00  0.00    +0.000 C 
ATOM     25  C   UNL     1       6.058   4.266  17.317  0.00  0.00    +0.000 C 
ATOM     26  C   UNL     1       6.269   4.230  15.804  0.00  0.00    +0.000 C 
ATOM     27  C   UNL     1       5.404   5.200  15.001  0.00  0.00    +0.000 C 
ATOM     28  C   UNL     1       5.264   6.571  15.651  0.00  0.00    +0.000 C 
ENDBRANCH  22  23
ENDBRANCH  11  22
TORSDOF 4
ENDMDL
MODEL 8
REMARK VINA RESULT:      -6.5      8.629     10.578
REMARK  Name = 
REMARK  6 active torsions:
REMARK  status: ('A' for Active; 'I' for Inactive)
REMARK    1  A    between atoms: C_1  and  C_2
REMARK    2  A    between atoms: C_3  and  N_4
REMARK    3  A    between atoms: N_7  and  C_8
REMARK    4  A    between atoms: C_16  and  O_17
REMARK    5  A    between atoms: C_19  and  O_20
REMARK    6  A    between atoms: O_20  and  C_21
REMARK                            x       y       z     vdW  Elec       q    Type
REMARK                         _______ _______ _______ _____ _____    ______ ____
ROOT
ATOM      1  C   UNL     1       8.596  12.159  21.850  0.00  0.00    +0.000 C 
ATOM      2  C   UNL     1       7.615  13.277  22.090  0.00  0.00    +0.000 A 
ATOM      3  C   UNL     1       6.802  13.264  23.174  0.00  0.00    +0.000 A 
ATOM      4  C   UNL     1       5.651  14.236  23.267  0.00  0.00    +0.000 A 
ATOM      5  O   UNL     1       4.920  14.307  24.251  0.00  0.00    +0.000 OA
ATOM      6  O   UNL     1       5.405  15.014  22.152  0.00  0.00    +0.000 OA
ATOM      7  C   UNL     1       6.394  15.201  21.175  0.00  0.00    +0.000 A 
ATOM      8  C   UNL     1       6.176  16.291  20.332  0.00  0.00    +0.000 A 
ATOM      9  C   UNL     1       7.153  16.609  19.412  0.00  0.00    +0.000 A 
ATOM     10  C   UNL     1       8.317  15.854  19.322  0.00  0.00    +0.000 A 
ATOM     11  C   UNL     1       8.517  14.731  20.139  0.00  0.00    +0.000 A 
ATOM     12  C   UNL     1       7.530  14.384  21.101  0.00  0.00    +0.000 A 
ENDROOT
BRANCH   3  13
ATOM     13  N   UNL     1       6.984  12.392  24.265  0.00  0.00    +0.000 N 
ATOM     14  C   UNL     1       6.110  11.233  24.522  0.00  0.00    +0.000 C 
ATOM     15  C   UNL     1       5.573  11.214  25.970  0.00  0.00    +0.000 C 
ATOM     16  N   UNL     1       6.663  11.328  26.963  0.00  0.00    +0.000 NA
ATOM     17  C   UNL     1       6.147  11.257  28.324  0.00  0.00    +0.000 C 
ATOM     18  C   UNL     1       7.366  12.607  26.727  0.00  0.00    +0.000 C 
ATOM     19  C   UNL     1       7.982  12.667  25.313  0.00  0.00    +0.000 C 
ENDBRANCH   3  13
BRANCH   9  20
ATOM     20  O   UNL     1       7.017  17.665  18.562  0.00  0.00    +0.000 OA
ATOM     21  H   UNL     1       6.104  17.680  18.231  0.00  0.00    +0.000 HD
ENDBRANCH   9  20
BRANCH  11  22
ATOM     22  O   UNL     1       9.627  13.926  20.017  0.00  0.00    +0.000 OA
BRANCH  22  23
ATOM     23  C   UNL     1      10.594  14.183  18.986  0.00  0.00    +0.000 C 
ATOM     24  C   UNL     1      12.000  13.841  19.482  0.00  0.00    +0.000 C 
ATOM     25  C   UNL     1      12.134  12.365  19.852  0.00  0.00    +0.000 C 
ATOM     26  C   UNL     1      11.646  11.407  18.765  0.00  0.00    +0.000 C 
ATOM     27  C   UNL     1      10.351  11.819  18.067  0.00  0.00    +0.000 C 
ATOM     28  C   UNL     1      10.269  13.310  17.767  0.00  0.00    +0.000 C 
ENDBRANCH  22  23
ENDBRANCH  11  22
TORSDOF 4
ENDMDL
MODEL 9
REMARK VINA RESULT:      -6.5      7.119     10.051
REMARK  Name = 
REMARK  6 active torsions:
REMARK  status: ('A' for Active; 'I' for Inactive)
REMARK    1  A    between atoms: C_1  and  C_2
REMARK    2  A    between atoms: C_3  and  N_4
REMARK    3  A    between atoms: N_7  and  C_8
REMARK    4  A    between atoms: C_16  and  O_17
REMARK    5  A    between atoms: C_19  and  O_20
REMARK    6  A    between atoms: O_20  and  C_21
REMARK                            x       y       z     vdW  Elec       q    Type
REMARK                         _______ _______ _______ _____ _____    ______ ____
ROOT
ATOM      1  C   UNL     1      -2.655  12.245  19.054  0.00  0.00    +0.000 C 
ATOM      2  C   UNL     1      -2.185  12.716  20.406  0.00  0.00    +0.000 A 
ATOM      3  C   UNL     1      -0.902  13.111  20.595  0.00  0.00    +0.000 A 
ATOM      4  C   UNL     1      -0.375  13.324  21.992  0.00  0.00    +0.000 A 
ATOM      5  O   UNL     1       0.759  13.737  22.218  0.00  0.00    +0.000 OA
ATOM      6  O   UNL     1      -1.212  12.967  23.032  0.00  0.00    +0.000 OA
ATOM      7  C   UNL     1      -2.592  12.823  22.825  0.00  0.00    +0.000 A 
ATOM      8  C   UNL     1      -3.358  12.854  23.991  0.00  0.00    +0.000 A 
ATOM      9  C   UNL     1      -4.732  12.826  23.868  0.00  0.00    +0.000 A 
ATOM     10  C   UNL     1      -5.333  12.755  22.617  0.00  0.00    +0.000 A 
ATOM     11  C   UNL     1      -4.562  12.679  21.446  0.00  0.00    +0.000 A 
ATOM     12  C   UNL     1      -3.144  12.713  21.542  0.00  0.00    +0.000 A 
ENDROOT
BRANCH   3  13
ATOM     13  N   UNL     1      -0.010  13.367  19.535  0.00  0.00    +0.000 N 
ATOM     14  C   UNL     1       0.986  12.386  19.067  0.00  0.00    +0.000 C 
ATOM     15  C   UNL     1       2.408  12.985  18.996  0.00  0.00    +0.000 C 
ATOM     16  N   UNL     1       2.440  14.237  18.210  0.00  0.00    +0.000 NA
ATOM     17  C   UNL     1       3.795  14.761  18.108  0.00  0.00    +0.000 C 
ATOM     18  C   UNL     1       1.541  15.211  18.865  0.00  0.00    +0.000 C 
ATOM     19  C   UNL     1       0.085  14.700  18.914  0.00  0.00    +0.000 C 
ENDBRANCH   3  13
BRANCH   9  20
ATOM     20  O   UNL     1      -5.547  12.864  24.959  0.00  0.00    +0.000 OA
ATOM     21  H   UNL     1      -6.044  13.698  24.945  0.00  0.00    +0.000 HD
ENDBRANCH   9  20
BRANCH  11  22
ATOM     22  O   UNL     1      -5.133  12.534  20.203  0.00  0.00    +0.000 OA
BRANCH  22  23
ATOM     23  C   UNL     1      -6.338  11.767  20.047  0.00  0.00    +0.000 C 
ATOM     24  C   UNL     1      -7.525  12.696  19.783  0.00  0.00    +0.000 C 
ATOM     25  C   UNL     1      -7.348  13.499  18.496  0.00  0.00    +0.000 C 
ATOM     26  C   UNL     1      -6.985  12.649  17.279  0.00  0.00    +0.000 C 
ATOM     27  C   UNL     1      -5.962  11.545  17.538  0.00  0.00    +0.000 C 
ATOM     28  C   UNL     1      -6.175  10.814  18.857  0.00  0.00    +0.000 C 
ENDBRANCH  22  23
ENDBRANCH  11  22
TORSDOF 4
ENDMDL
