MODEL 1
REMARK VINA RESULT:      -8.2      0.000      0.000
REMARK  Name = 
REMARK  11 active torsions:
REMARK  status: ('A' for Active; 'I' for Inactive)
REMARK    1  A    between atoms: C_3  and  O_4
REMARK    2  A    between atoms: C_7  and  C_8
REMARK    3  A    between atoms: C_13  and  C_14
REMARK    4  A    between atoms: C_18  and  C_19
REMARK    5  A    between atoms: C_19  and  C_20
REMARK    6  A    between atoms: C_19  and  C_21
REMARK    7  A    between atoms: C_21  and  C_22
REMARK    8  A    between atoms: C_22  and  C_23
REMARK    9  A    between atoms: C_23  and  C_24
REMARK   10  A    between atoms: C_24  and  O_25
REMARK   11  A    between atoms: C_27  and  O_28
REMARK                            x       y       z     vdW  Elec       q    Type
REMARK                         _______ _______ _______ _____ _____    ______ ____
ROOT
ATOM      1  C   UNL     1       1.723   6.417  20.603  0.00  0.00    +0.000 C 
ATOM      2  C   UNL     1       2.545   5.442  20.169  0.00  0.00    +0.000 C 
ATOM      3  C   UNL     1       2.650   4.127  20.929  0.00  0.00    +0.000 C 
ATOM      4  C   UNL     1       2.556   2.898  20.019  0.00  0.00    +0.000 C 
ATOM      5  C   UNL     1       3.539   2.971  18.839  0.00  0.00    +0.000 C 
ATOM      6  C   UNL     1       3.411   4.283  18.044  0.00  0.00    +0.000 C 
ATOM      7  C   UNL     1       2.039   4.242  17.297  0.00  0.00    +0.000 C 
ATOM      8  C   UNL     1       3.513   5.493  19.005  0.00  0.00    +0.000 C 
ATOM      9  C   UNL     1       3.633   6.683  18.050  0.00  0.00    +0.000 C 
ATOM     10  C   UNL     1       4.371   6.157  16.816  0.00  0.00    +0.000 C 
ATOM     11  C   UNL     1       4.527   4.622  16.993  0.00  0.00    +0.000 C 
ENDROOT
BRANCH   1  17
ATOM     12  C   UNL     1      -1.076  12.042  22.270  0.00  0.00    +0.000 C 
ATOM     13  C   UNL     1      -0.597  10.910  21.720  0.00  0.00    +0.000 C 
ATOM     14  C   UNL     1      -0.381   9.626  22.496  0.00  0.00    +0.000 C 
ATOM     15  C   UNL     1       0.956   8.933  22.171  0.00  0.00    +0.000 C 
ATOM     16  C   UNL     1       1.274   8.856  20.691  0.00  0.00    +0.000 C 
ATOM     17  C   UNL     1       1.645   7.744  20.044  0.00  0.00    +0.000 C 
ATOM     18  C   UNL     1       1.108  10.177  19.965  0.00  0.00    +0.000 C 
ATOM     19  C   UNL     1      -0.256  10.847  20.250  0.00  0.00    +0.000 C 
BRANCH  14  20
ATOM     20  O   UNL     1      -0.416   9.899  23.903  0.00  0.00    +0.000 OA
ATOM     21  H   UNL     1       0.459   9.691  24.269  0.00  0.00    +0.000 HD
ENDBRANCH  14  20
BRANCH  19  22
ATOM     22  O   UNL     1      -1.323  10.180  19.581  0.00  0.00    +0.000 OA
ATOM     23  H   UNL     1      -1.677  10.767  18.899  0.00  0.00    +0.000 HD
ENDBRANCH  19  22
ENDBRANCH   1  17
BRANCH  11  24
ATOM     24  C   UNL     1       6.040   4.270  17.238  0.00  0.00    +0.000 C 
ATOM     25  C   UNL     1       6.660   5.178  18.307  0.00  0.00    +0.000 C 
BRANCH  24  26
ATOM     26  C   UNL     1       6.919   4.139  15.974  0.00  0.00    +0.000 C 
BRANCH  26  27
ATOM     27  C   UNL     1       6.195   3.985  14.629  0.00  0.00    +0.000 C 
BRANCH  27  28
ATOM     28  C   UNL     1       6.903   4.570  13.408  0.00  0.00    +0.000 C 
BRANCH  28  29
ATOM     29  C   UNL     1       6.743   3.743  12.139  0.00  0.00    +0.000 C 
BRANCH  29  30
ATOM     30  O   UNL     1       6.130   2.498  12.451  0.00  0.00    +0.000 OA
ATOM     31  H   UNL     1       6.608   2.115  13.205  0.00  0.00    +0.000 HD
ENDBRANCH  29  30
ENDBRANCH  28  29
ENDBRANCH  27  28
ENDBRANCH  26  27
ENDBRANCH  24  26
ENDBRANCH  11  24
TORSDOF 9
ENDMDL
MODEL 2
REMARK VINA RESULT:      -7.9      3.458      8.505
REMARK  Name = 
REMARK  11 active torsions:
REMARK  status: ('A' for Active; 'I' for Inactive)
REMARK    1  A    between atoms: C_3  and  O_4
REMARK    2  A    between atoms: C_7  and  C_8
REMARK    3  A    between atoms: C_13  and  C_14
REMARK    4  A    between atoms: C_18  and  C_19
REMARK    5  A    between atoms: C_19  and  C_20
REMARK    6  A    between atoms: C_19  and  C_21
REMARK    7  A    between atoms: C_21  and  C_22
REMARK    8  A    between atoms: C_22  and  C_23
REMARK    9  A    between atoms: C_23  and  C_24
REMARK   10  A    between atoms: C_24  and  O_25
REMARK   11  A    between atoms: C_27  and  O_28
REMARK                            x       y       z     vdW  Elec       q    Type
REMARK                         _______ _______ _______ _____ _____    ______ ____
ROOT
ATOM      1  C   UNL     1       1.225   7.932  21.207  0.00  0.00    +0.000 C 
ATOM      2  C   UNL     1       0.278   8.889  21.238  0.00  0.00    +0.000 C 
ATOM      3  C   UNL     1      -0.563   9.103  22.489  0.00  0.00    +0.000 C 
ATOM      4  C   UNL     1      -0.662  10.576  22.902  0.00  0.00    +0.000 C 
ATOM      5  C   UNL     1      -1.106  11.477  21.738  0.00  0.00    +0.000 C 
ATOM      6  C   UNL     1      -0.236  11.292  20.482  0.00  0.00    +0.000 C 
ATOM      7  C   UNL     1       1.176  11.881  20.803  0.00  0.00    +0.000 C 
ATOM      8  C   UNL     1      -0.168   9.791  20.105  0.00  0.00    +0.000 C 
ATOM      9  C   UNL     1       0.492   9.812  18.725  0.00  0.00    +0.000 C 
ATOM     10  C   UNL     1       0.048  11.121  18.067  0.00  0.00    +0.000 C 
ATOM     11  C   UNL     1      -0.734  11.931  19.137  0.00  0.00    +0.000 C 
ENDROOT
BRANCH   1  17
ATOM     12  C   UNL     1       3.957   2.474  18.970  0.00  0.00    +0.000 C 
ATOM     13  C   UNL     1       3.596   3.701  19.393  0.00  0.00    +0.000 C 
ATOM     14  C   UNL     1       2.619   3.944  20.526  0.00  0.00    +0.000 C 
ATOM     15  C   UNL     1       1.597   5.055  20.223  0.00  0.00    +0.000 C 
ATOM     16  C   UNL     1       2.197   6.303  19.607  0.00  0.00    +0.000 C 
ATOM     17  C   UNL     1       1.981   7.552  20.040  0.00  0.00    +0.000 C 
ATOM     18  C   UNL     1       3.117   6.020  18.435  0.00  0.00    +0.000 C 
ATOM     19  C   UNL     1       4.177   4.942  18.757  0.00  0.00    +0.000 C 
BRANCH  14  20
ATOM     20  O   UNL     1       1.901   2.738  20.813  0.00  0.00    +0.000 OA
ATOM     21  H   UNL     1       1.826   2.232  19.988  0.00  0.00    +0.000 HD
ENDBRANCH  14  20
BRANCH  19  22
ATOM     22  O   UNL     1       5.195   5.441  19.621  0.00  0.00    +0.000 OA
ATOM     23  H   UNL     1       5.533   4.709  20.157  0.00  0.00    +0.000 HD
ENDBRANCH  19  22
ENDBRANCH   1  17
BRANCH  11  24
ATOM     24  C   UNL     1      -2.258  11.982  18.750  0.00  0.00    +0.000 C 
ATOM     25  C   UNL     1      -3.111  12.523  19.904  0.00  0.00    +0.000 C 
BRANCH  24  26
ATOM     26  C   UNL     1      -2.839  10.699  18.118  0.00  0.00    +0.000 C 
BRANCH  26  27
ATOM     27  C   UNL     1      -3.454  10.822  16.717  0.00  0.00    +0.000 C 
BRANCH  27  28
ATOM     28  C   UNL     1      -2.664  10.187  15.574  0.00  0.00    +0.000 C 
BRANCH  28  29
ATOM     29  C   UNL     1      -3.451  10.043  14.277  0.00  0.00    +0.000 C 
BRANCH  29  30
ATOM     30  O   UNL     1      -2.553   9.857  13.189  0.00  0.00    +0.000 OA
ATOM     31  H   UNL     1      -2.826   9.051  12.717  0.00  0.00    +0.000 HD
ENDBRANCH  29  30
ENDBRANCH  28  29
ENDBRANCH  27  28
ENDBRANCH  26  27
ENDBRANCH  24  26
ENDBRANCH  11  24
TORSDOF 9
ENDMDL
MODEL 3
REMARK VINA RESULT:      -7.8      1.001      1.014
REMARK  Name = 
REMARK  11 active torsions:
REMARK  status: ('A' for Active; 'I' for Inactive)
REMARK    1  A    between atoms: C_3  and  O_4
REMARK    2  A    between atoms: C_7  and  C_8
REMARK    3  A    between atoms: C_13  and  C_14
REMARK    4  A    between atoms: C_18  and  C_19
REMARK    5  A    between atoms: C_19  and  C_20
REMARK    6  A    between atoms: C_19  and  C_21
REMARK    7  A    between atoms: C_21  and  C_22
REMARK    8  A    between atoms: C_22  and  C_23
REMARK    9  A    between atoms: C_23  and  C_24
REMARK   10  A    between atoms: C_24  and  O_25
REMARK   11  A    between atoms: C_27  and  O_28
REMARK                            x       y       z     vdW  Elec       q    Type
REMARK                         _______ _______ _______ _____ _____    ______ ____
ROOT
ATOM      1  C   UNL     1       1.550   6.780  20.746  0.00  0.00    +0.000 C 
ATOM      2  C   UNL     1       2.308   5.759  20.302  0.00  0.00    +0.000 C 
ATOM      3  C   UNL     1       2.363   4.447  21.072  0.00  0.00    +0.000 C 
ATOM      4  C   UNL     1       2.181   3.216  20.177  0.00  0.00    +0.000 C 
ATOM      5  C   UNL     1       3.136   3.227  18.972  0.00  0.00    +0.000 C 
ATOM      6  C   UNL     1       3.056   4.536  18.168  0.00  0.00    +0.000 C 
ATOM      7  C   UNL     1       1.666   4.561  17.456  0.00  0.00    +0.000 C 
ATOM      8  C   UNL     1       3.248   5.748  19.113  0.00  0.00    +0.000 C 
ATOM      9  C   UNL     1       3.405   6.921  18.143  0.00  0.00    +0.000 C 
ATOM     10  C   UNL     1       4.082   6.346  16.896  0.00  0.00    +0.000 C 
ATOM     11  C   UNL     1       4.161   4.806  17.085  0.00  0.00    +0.000 C 
ENDROOT
BRANCH   1  17
ATOM     12  C   UNL     1      -1.345  12.430  22.140  0.00  0.00    +0.000 C 
ATOM     13  C   UNL     1      -0.827  11.292  21.639  0.00  0.00    +0.000 C 
ATOM     14  C   UNL     1      -0.686  10.012  22.437  0.00  0.00    +0.000 C 
ATOM     15  C   UNL     1       0.669   9.309  22.231  0.00  0.00    +0.000 C 
ATOM     16  C   UNL     1       1.110   9.222  20.783  0.00  0.00    +0.000 C 
ATOM     17  C   UNL     1       1.529   8.104  20.176  0.00  0.00    +0.000 C 
ATOM     18  C   UNL     1       1.015  10.539  20.038  0.00  0.00    +0.000 C 
ATOM     19  C   UNL     1      -0.364  11.219  20.203  0.00  0.00    +0.000 C 
BRANCH  14  20
ATOM     20  O   UNL     1      -0.839  10.293  23.834  0.00  0.00    +0.000 OA
ATOM     21  H   UNL     1      -1.200  11.189  23.920  0.00  0.00    +0.000 HD
ENDBRANCH  14  20
BRANCH  19  22
ATOM     22  O   UNL     1      -1.375  10.554  19.450  0.00  0.00    +0.000 OA
ATOM     23  H   UNL     1      -2.233  10.723  19.865  0.00  0.00    +0.000 HD
ENDBRANCH  19  22
ENDBRANCH   1  17
BRANCH  11  24
ATOM     24  C   UNL     1       5.660   4.377  17.295  0.00  0.00    +0.000 C 
ATOM     25  C   UNL     1       6.474   5.494  17.959  0.00  0.00    +0.000 C 
BRANCH  24  26
ATOM     26  C   UNL     1       6.367   3.762  16.067  0.00  0.00    +0.000 C 
BRANCH  26  27
ATOM     27  C   UNL     1       7.012   4.733  15.069  0.00  0.00    +0.000 C 
BRANCH  27  28
ATOM     28  C   UNL     1       6.788   4.429  13.588  0.00  0.00    +0.000 C 
BRANCH  28  29
ATOM     29  C   UNL     1       7.709   5.195  12.648  0.00  0.00    +0.000 C 
BRANCH  29  30
ATOM     30  O   UNL     1       8.697   5.889  13.403  0.00  0.00    +0.000 OA
ATOM     31  H   UNL     1       9.227   5.224  13.875  0.00  0.00    +0.000 HD
ENDBRANCH  29  30
ENDBRANCH  28  29
ENDBRANCH  27  28
ENDBRANCH  26  27
ENDBRANCH  24  26
ENDBRANCH  11  24
TORSDOF 9
ENDMDL
MODEL 4
REMARK VINA RESULT:      -7.7      1.716      2.454
REMARK  Name = 
REMARK  11 active torsions:
REMARK  status: ('A' for Active; 'I' for Inactive)
REMARK    1  A    between atoms: C_3  and  O_4
REMARK    2  A    between atoms: C_7  and  C_8
REMARK    3  A    between atoms: C_13  and  C_14
REMARK    4  A    between atoms: C_18  and  C_19
REMARK    5  A    between atoms: C_19  and  C_20
REMARK    6  A    between atoms: C_19  and  C_21
REMARK    7  A    between atoms: C_21  and  C_22
REMARK    8  A    between atoms: C_22  and  C_23
REMARK    9  A    between atoms: C_23  and  C_24
REMARK   10  A    between atoms: C_24  and  O_25
REMARK   11  A    between atoms: C_27  and  O_28
REMARK                            x       y       z     vdW  Elec       q    Type
REMARK                         _______ _______ _______ _____ _____    ______ ____
ROOT
ATOM      1  C   UNL     1       1.503   6.963  20.734  0.00  0.00    +0.000 C 
ATOM      2  C   UNL     1       2.244   5.941  20.264  0.00  0.00    +0.000 C 
ATOM      3  C   UNL     1       2.308   4.622  21.020  0.00  0.00    +0.000 C 
ATOM      4  C   UNL     1       2.097   3.401  20.118  0.00  0.00    +0.000 C 
ATOM      5  C   UNL     1       3.025   3.417  18.892  0.00  0.00    +0.000 C 
ATOM      6  C   UNL     1       2.936   4.735  18.102  0.00  0.00    +0.000 C 
ATOM      7  C   UNL     1       1.531   4.775  17.421  0.00  0.00    +0.000 C 
ATOM      8  C   UNL     1       3.157   5.936  19.054  0.00  0.00    +0.000 C 
ATOM      9  C   UNL     1       3.301   7.117  18.092  0.00  0.00    +0.000 C 
ATOM     10  C   UNL     1       3.946   6.549  16.824  0.00  0.00    +0.000 C 
ATOM     11  C   UNL     1       4.018   5.007  16.997  0.00  0.00    +0.000 C 
ENDROOT
BRANCH   1  17
ATOM     12  C   UNL     1      -1.497  12.561  22.116  0.00  0.00    +0.000 C 
ATOM     13  C   UNL     1      -0.954  11.435  21.616  0.00  0.00    +0.000 C 
ATOM     14  C   UNL     1      -0.815  10.148  22.404  0.00  0.00    +0.000 C 
ATOM     15  C   UNL     1       0.554   9.465  22.223  0.00  0.00    +0.000 C 
ATOM     16  C   UNL     1       1.031   9.399  20.786  0.00  0.00    +0.000 C 
ATOM     17  C   UNL     1       1.478   8.293  20.177  0.00  0.00    +0.000 C 
ATOM     18  C   UNL     1       0.936  10.723  20.052  0.00  0.00    +0.000 C 
ATOM     19  C   UNL     1      -0.455  11.383  20.191  0.00  0.00    +0.000 C 
BRANCH  14  20
ATOM     20  O   UNL     1      -1.004  10.413  23.800  0.00  0.00    +0.000 OA
ATOM     21  H   UNL     1      -0.923   9.571  24.277  0.00  0.00    +0.000 HD
ENDBRANCH  14  20
BRANCH  19  22
ATOM     22  O   UNL     1      -1.440  10.713  19.407  0.00  0.00    +0.000 OA
ATOM     23  H   UNL     1      -1.707   9.906  19.869  0.00  0.00    +0.000 HD
ENDBRANCH  19  22
ENDBRANCH   1  17
BRANCH  11  24
ATOM     24  C   UNL     1       5.519   4.567  17.170  0.00  0.00    +0.000 C 
ATOM     25  C   UNL     1       5.875   3.411  16.226  0.00  0.00    +0.000 C 
BRANCH  24  26
ATOM     26  C   UNL     1       5.992   4.330  18.621  0.00  0.00    +0.000 C 
BRANCH  26  27
ATOM     27  C   UNL     1       6.619   5.521  19.358  0.00  0.00    +0.000 C 
BRANCH  27  28
ATOM     28  C   UNL     1       7.897   6.097  18.749  0.00  0.00    +0.000 C 
BRANCH  28  29
ATOM     29  C   UNL     1       7.680   7.354  17.918  0.00  0.00    +0.000 C 
BRANCH  29  30
ATOM     30  O   UNL     1       7.728   7.028  16.533  0.00  0.00    +0.000 OA
ATOM     31  H   UNL     1       7.826   6.064  16.461  0.00  0.00    +0.000 HD
ENDBRANCH  29  30
ENDBRANCH  28  29
ENDBRANCH  27  28
ENDBRANCH  26  27
ENDBRANCH  24  26
ENDBRANCH  11  24
TORSDOF 9
ENDMDL
MODEL 5
REMARK VINA RESULT:      -7.6      2.177      2.576
REMARK  Name = 
REMARK  11 active torsions:
REMARK  status: ('A' for Active; 'I' for Inactive)
REMARK    1  A    between atoms: C_3  and  O_4
REMARK    2  A    between atoms: C_7  and  C_8
REMARK    3  A    between atoms: C_13  and  C_14
REMARK    4  A    between atoms: C_18  and  C_19
REMARK    5  A    between atoms: C_19  and  C_20
REMARK    6  A    between atoms: C_19  and  C_21
REMARK    7  A    between atoms: C_21  and  C_22
REMARK    8  A    between atoms: C_22  and  C_23
REMARK    9  A    between atoms: C_23  and  C_24
REMARK   10  A    between atoms: C_24  and  O_25
REMARK   11  A    between atoms: C_27  and  O_28
REMARK                            x       y       z     vdW  Elec       q    Type
REMARK                         _______ _______ _______ _____ _____    ______ ____
ROOT
ATOM      1  C   UNL     1       1.327   6.943  20.757  0.00  0.00    +0.000 C 
ATOM      2  C   UNL     1       2.046   5.858  20.409  0.00  0.00    +0.000 C 
ATOM      3  C   UNL     1       2.010   4.601  21.267  0.00  0.00    +0.000 C 
ATOM      4  C   UNL     1       1.793   3.322  20.451  0.00  0.00    +0.000 C 
ATOM      5  C   UNL     1       2.785   3.203  19.282  0.00  0.00    +0.000 C 
ATOM      6  C   UNL     1       2.799   4.457  18.390  0.00  0.00    +0.000 C 
ATOM      7  C   UNL     1       1.435   4.500  17.629  0.00  0.00    +0.000 C 
ATOM      8  C   UNL     1       3.021   5.719  19.258  0.00  0.00    +0.000 C 
ATOM      9  C   UNL     1       3.270   6.814  18.218  0.00  0.00    +0.000 C 
ATOM     10  C   UNL     1       3.955   6.122  17.037  0.00  0.00    +0.000 C 
ATOM     11  C   UNL     1       3.950   4.597  17.331  0.00  0.00    +0.000 C 
ENDROOT
BRANCH   1  17
ATOM     12  C   UNL     1      -1.257  12.830  21.711  0.00  0.00    +0.000 C 
ATOM     13  C   UNL     1      -0.799  11.633  21.298  0.00  0.00    +0.000 C 
ATOM     14  C   UNL     1      -0.745  10.404  22.183  0.00  0.00    +0.000 C 
ATOM     15  C   UNL     1       0.570   9.613  22.051  0.00  0.00    +0.000 C 
ATOM     16  C   UNL     1       1.029   9.403  20.622  0.00  0.00    +0.000 C 
ATOM     17  C   UNL     1       1.392   8.224  20.099  0.00  0.00    +0.000 C 
ATOM     18  C   UNL     1       1.022  10.669  19.788  0.00  0.00    +0.000 C 
ATOM     19  C   UNL     1      -0.317  11.436  19.880  0.00  0.00    +0.000 C 
BRANCH  14  20
ATOM     20  O   UNL     1      -0.903  10.788  23.555  0.00  0.00    +0.000 OA
ATOM     21  H   UNL     1      -0.297  10.247  24.087  0.00  0.00    +0.000 HD
ENDBRANCH  14  20
BRANCH  19  22
ATOM     22  O   UNL     1      -1.353  10.780  19.153  0.00  0.00    +0.000 OA
ATOM     23  H   UNL     1      -2.130  11.356  19.132  0.00  0.00    +0.000 HD
ENDBRANCH  19  22
ENDBRANCH   1  17
BRANCH  11  24
ATOM     24  C   UNL     1       5.417   4.111  17.622  0.00  0.00    +0.000 C 
ATOM     25  C   UNL     1       5.757   4.220  19.114  0.00  0.00    +0.000 C 
BRANCH  24  26
ATOM     26  C   UNL     1       6.518   4.692  16.708  0.00  0.00    +0.000 C 
BRANCH  26  27
ATOM     27  C   UNL     1       7.577   5.587  17.365  0.00  0.00    +0.000 C 
BRANCH  27  28
ATOM     28  C   UNL     1       7.362   7.095  17.238  0.00  0.00    +0.000 C 
BRANCH  28  29
ATOM     29  C   UNL     1       8.166   7.925  18.230  0.00  0.00    +0.000 C 
BRANCH  29  30
ATOM     30  O   UNL     1       8.017   9.308  17.931  0.00  0.00    +0.000 OA
ATOM     31  H   UNL     1       7.837   9.773  18.765  0.00  0.00    +0.000 HD
ENDBRANCH  29  30
ENDBRANCH  28  29
ENDBRANCH  27  28
ENDBRANCH  26  27
ENDBRANCH  24  26
ENDBRANCH  11  24
TORSDOF 9
ENDMDL
MODEL 6
REMARK VINA RESULT:      -7.5      3.456      9.643
REMARK  Name = 
REMARK  11 active torsions:
REMARK  status: ('A' for Active; 'I' for Inactive)
REMARK    1  A    between atoms: C_3  and  O_4
REMARK    2  A    between atoms: C_7  and  C_8
REMARK    3  A    between atoms: C_13  and  C_14
REMARK    4  A    between atoms: C_18  and  C_19
REMARK    5  A    between atoms: C_19  and  C_20
REMARK    6  A    between atoms: C_19  and  C_21
REMARK    7  A    between atoms: C_21  and  C_22
REMARK    8  A    between atoms: C_22  and  C_23
REMARK    9  A    between atoms: C_23  and  C_24
REMARK   10  A    between atoms: C_24  and  O_25
REMARK   11  A    between atoms: C_27  and  O_28
REMARK                            x       y       z     vdW  Elec       q    Type
REMARK                         _______ _______ _______ _____ _____    ______ ____
ROOT
ATOM      1  C   UNL     1       1.214   8.122  21.364  0.00  0.00    +0.000 C 
ATOM      2  C   UNL     1       0.187   8.990  21.436  0.00  0.00    +0.000 C 
ATOM      3  C   UNL     1      -0.532   9.227  22.757  0.00  0.00    +0.000 C 
ATOM      4  C   UNL     1      -0.728  10.713  23.077  0.00  0.00    +0.000 C 
ATOM      5  C   UNL     1      -1.380  11.477  21.912  0.00  0.00    +0.000 C 
ATOM      6  C   UNL     1      -0.634  11.271  20.582  0.00  0.00    +0.000 C 
ATOM      7  C   UNL     1       0.739  12.007  20.700  0.00  0.00    +0.000 C 
ATOM      8  C   UNL     1      -0.462   9.758  20.303  0.00  0.00    +0.000 C 
ATOM      9  C   UNL     1       0.042   9.729  18.858  0.00  0.00    +0.000 C 
ATOM     10  C   UNL     1      -0.595  10.938  18.167  0.00  0.00    +0.000 C 
ATOM     11  C   UNL     1      -1.332  11.757  19.262  0.00  0.00    +0.000 C 
ENDROOT
BRANCH   1  17
ATOM     12  C   UNL     1       3.740   2.617  19.006  0.00  0.00    +0.000 C 
ATOM     13  C   UNL     1       3.419   3.852  19.436  0.00  0.00    +0.000 C 
ATOM     14  C   UNL     1       2.535   4.117  20.638  0.00  0.00    +0.000 C 
ATOM     15  C   UNL     1       1.496   5.229  20.399  0.00  0.00    +0.000 C 
ATOM     16  C   UNL     1       2.051   6.464  19.718  0.00  0.00    +0.000 C 
ATOM     17  C   UNL     1       1.874   7.720  20.147  0.00  0.00    +0.000 C 
ATOM     18  C   UNL     1       2.875   6.158  18.482  0.00  0.00    +0.000 C 
ATOM     19  C   UNL     1       3.953   5.079  18.737  0.00  0.00    +0.000 C 
BRANCH  14  20
ATOM     20  O   UNL     1       1.837   2.919  21.001  0.00  0.00    +0.000 OA
ATOM     21  H   UNL     1       2.404   2.164  20.775  0.00  0.00    +0.000 HD
ENDBRANCH  14  20
BRANCH  19  22
ATOM     22  O   UNL     1       5.037   5.587  19.511  0.00  0.00    +0.000 OA
ATOM     23  H   UNL     1       4.806   6.472  19.825  0.00  0.00    +0.000 HD
ENDBRANCH  19  22
ENDBRANCH   1  17
BRANCH  11  24
ATOM     24  C   UNL     1      -2.887  11.642  19.047  0.00  0.00    +0.000 C 
ATOM     25  C   UNL     1      -3.229  11.321  17.587  0.00  0.00    +0.000 C 
BRANCH  24  26
ATOM     26  C   UNL     1      -3.737  12.793  19.628  0.00  0.00    +0.000 C 
BRANCH  26  27
ATOM     27  C   UNL     1      -5.024  12.409  20.372  0.00  0.00    +0.000 C 
BRANCH  27  28
ATOM     28  C   UNL     1      -6.335  12.656  19.626  0.00  0.00    +0.000 C 
BRANCH  28  29
ATOM     29  C   UNL     1      -6.807  11.476  18.787  0.00  0.00    +0.000 C 
BRANCH  29  30
ATOM     30  O   UNL     1      -6.805  11.835  17.410  0.00  0.00    +0.000 OA
ATOM     31  H   UNL     1      -7.352  12.633  17.313  0.00  0.00    +0.000 HD
ENDBRANCH  29  30
ENDBRANCH  28  29
ENDBRANCH  27  28
ENDBRANCH  26  27
ENDBRANCH  24  26
ENDBRANCH  11  24
TORSDOF 9
ENDMDL
MODEL 7
REMARK VINA RESULT:      -7.5      2.999      9.986
REMARK  Name = 
REMARK  11 active torsions:
REMARK  status: ('A' for Active; 'I' for Inactive)
REMARK    1  A    between atoms: C_3  and  O_4
REMARK    2  A    between atoms: C_7  and  C_8
REMARK    3  A    between atoms: C_13  and  C_14
REMARK    4  A    between atoms: C_18  and  C_19
REMARK    5  A    between atoms: C_19  and  C_20
REMARK    6  A    between atoms: C_19  and  C_21
REMARK    7  A    between atoms: C_21  and  C_22
REMARK    8  A    between atoms: C_22  and  C_23
REMARK    9  A    between atoms: C_23  and  C_24
REMARK   10  A    between atoms: C_24  and  O_25
REMARK   11  A    between atoms: C_27  and  O_28
REMARK                            x       y       z     vdW  Elec       q    Type
REMARK                         _______ _______ _______ _____ _____    ______ ____
ROOT
ATOM      1  C   UNL     1       1.410   7.935  21.013  0.00  0.00    +0.000 C 
ATOM      2  C   UNL     1       0.403   8.784  21.298  0.00  0.00    +0.000 C 
ATOM      3  C   UNL     1      -0.262   8.761  22.667  0.00  0.00    +0.000 C 
ATOM      4  C   UNL     1      -0.418  10.156  23.283  0.00  0.00    +0.000 C 
ATOM      5  C   UNL     1      -1.098  11.144  22.319  0.00  0.00    +0.000 C 
ATOM      6  C   UNL     1      -0.407  11.198  20.945  0.00  0.00    +0.000 C 
ATOM      7  C   UNL     1       0.984  11.880  21.151  0.00  0.00    +0.000 C 
ATOM      8  C   UNL     1      -0.273   9.768  20.366  0.00  0.00    +0.000 C 
ATOM      9  C   UNL     1       0.176  10.021  18.925  0.00  0.00    +0.000 C 
ATOM     10  C   UNL     1      -0.463  11.350  18.513  0.00  0.00    +0.000 C 
ATOM     11  C   UNL     1      -1.144  11.943  19.777  0.00  0.00    +0.000 C 
ENDROOT
BRANCH   1  17
ATOM     12  C   UNL     1       3.987   3.026  17.621  0.00  0.00    +0.000 C 
ATOM     13  C   UNL     1       3.648   4.155  18.273  0.00  0.00    +0.000 C 
ATOM     14  C   UNL     1       2.822   4.174  19.544  0.00  0.00    +0.000 C 
ATOM     15  C   UNL     1       1.736   5.265  19.550  0.00  0.00    +0.000 C 
ATOM     16  C   UNL     1       2.212   6.620  19.068  0.00  0.00    +0.000 C 
ATOM     17  C   UNL     1       2.017   7.776  19.715  0.00  0.00    +0.000 C 
ATOM     18  C   UNL     1       2.978   6.565  17.760  0.00  0.00    +0.000 C 
ATOM     19  C   UNL     1       4.103   5.505  17.772  0.00  0.00    +0.000 C 
BRANCH  14  20
ATOM     20  O   UNL     1       2.185   2.903  19.726  0.00  0.00    +0.000 OA
ATOM     21  H   UNL     1       1.620   2.963  20.513  0.00  0.00    +0.000 HD
ENDBRANCH  14  20
BRANCH  19  22
ATOM     22  O   UNL     1       5.210   5.918  18.570  0.00  0.00    +0.000 OA
ATOM     23  H   UNL     1       4.923   5.974  19.493  0.00  0.00    +0.000 HD
ENDBRANCH  19  22
ENDBRANCH   1  17
BRANCH  11  24
ATOM     24  C   UNL     1      -2.707  11.890  19.607  0.00  0.00    +0.000 C 
ATOM     25  C   UNL     1      -3.103  11.602  18.154  0.00  0.00    +0.000 C 
BRANCH  24  26
ATOM     26  C   UNL     1      -3.496  13.065  20.226  0.00  0.00    +0.000 C 
BRANCH  26  27
ATOM     27  C   UNL     1      -4.571  12.719  21.266  0.00  0.00    +0.000 C 
BRANCH  27  28
ATOM     28  C   UNL     1      -4.145  12.799  22.731  0.00  0.00    +0.000 C 
BRANCH  28  29
ATOM     29  C   UNL     1      -5.307  12.864  23.715  0.00  0.00    +0.000 C 
BRANCH  29  30
ATOM     30  O   UNL     1      -5.113  11.907  24.750  0.00  0.00    +0.000 OA
ATOM     31  H   UNL     1      -5.078  12.388  25.594  0.00  0.00    +0.000 HD
ENDBRANCH  29  30
ENDBRANCH  28  29
ENDBRANCH  27  28
ENDBRANCH  26  27
ENDBRANCH  24  26
ENDBRANCH  11  24
TORSDOF 9
ENDMDL
MODEL 8
REMARK VINA RESULT:      -7.5      3.384      9.892
REMARK  Name = 
REMARK  11 active torsions:
REMARK  status: ('A' for Active; 'I' for Inactive)
REMARK    1  A    between atoms: C_3  and  O_4
REMARK    2  A    between atoms: C_7  and  C_8
REMARK    3  A    between atoms: C_13  and  C_14
REMARK    4  A    between atoms: C_18  and  C_19
REMARK    5  A    between atoms: C_19  and  C_20
REMARK    6  A    between atoms: C_19  and  C_21
REMARK    7  A    between atoms: C_21  and  C_22
REMARK    8  A    between atoms: C_22  and  C_23
REMARK    9  A    between atoms: C_23  and  C_24
REMARK   10  A    between atoms: C_24  and  O_25
REMARK   11  A    between atoms: C_27  and  O_28
REMARK                            x       y       z     vdW  Elec       q    Type
REMARK                         _______ _______ _______ _____ _____    ______ ____
ROOT
ATOM      1  C   UNL     1       1.345   7.955  21.324  0.00  0.00    +0.000 C 
ATOM      2  C   UNL     1       0.341   8.850  21.405  0.00  0.00    +0.000 C 
ATOM      3  C   UNL     1      -0.392   9.073  22.720  0.00  0.00    +0.000 C 
ATOM      4  C   UNL     1      -0.551  10.555  23.076  0.00  0.00    +0.000 C 
ATOM      5  C   UNL     1      -1.163  11.367  21.922  0.00  0.00    +0.000 C 
ATOM      6  C   UNL     1      -0.403  11.175  20.598  0.00  0.00    +0.000 C 
ATOM      7  C   UNL     1       0.988  11.868  20.756  0.00  0.00    +0.000 C 
ATOM      8  C   UNL     1      -0.268   9.665  20.282  0.00  0.00    +0.000 C 
ATOM      9  C   UNL     1       0.257   9.659  18.845  0.00  0.00    +0.000 C 
ATOM     10  C   UNL     1      -0.335  10.903  18.176  0.00  0.00    +0.000 C 
ATOM     11  C   UNL     1      -1.067  11.714  19.281  0.00  0.00    +0.000 C 
ENDROOT
BRANCH   1  17
ATOM     12  C   UNL     1       3.875   2.474  18.917  0.00  0.00    +0.000 C 
ATOM     13  C   UNL     1       3.554   3.704  19.360  0.00  0.00    +0.000 C 
ATOM     14  C   UNL     1       2.662   3.957  20.559  0.00  0.00    +0.000 C 
ATOM     15  C   UNL     1       1.627   5.074  20.326  0.00  0.00    +0.000 C 
ATOM     16  C   UNL     1       2.190   6.316  19.664  0.00  0.00    +0.000 C 
ATOM     17  C   UNL     1       2.013   7.567  20.107  0.00  0.00    +0.000 C 
ATOM     18  C   UNL     1       3.022   6.023  18.431  0.00  0.00    +0.000 C 
ATOM     19  C   UNL     1       4.096   4.939  18.679  0.00  0.00    +0.000 C 
BRANCH  14  20
ATOM     20  O   UNL     1       1.959   2.756  20.902  0.00  0.00    +0.000 OA
ATOM     21  H   UNL     1       1.759   2.283  20.078  0.00  0.00    +0.000 HD
ENDBRANCH  14  20
BRANCH  19  22
ATOM     22  O   UNL     1       5.175   5.434  19.467  0.00  0.00    +0.000 OA
ATOM     23  H   UNL     1       5.963   4.902  19.284  0.00  0.00    +0.000 HD
ENDBRANCH  19  22
ENDBRANCH   1  17
BRANCH  11  24
ATOM     24  C   UNL     1      -2.620  11.648  19.041  0.00  0.00    +0.000 C 
ATOM     25  C   UNL     1      -2.951  11.519  17.549  0.00  0.00    +0.000 C 
BRANCH  24  26
ATOM     26  C   UNL     1      -3.462  12.728  19.755  0.00  0.00    +0.000 C 
BRANCH  26  27
ATOM     27  C   UNL     1      -4.939  12.406  20.019  0.00  0.00    +0.000 C 
BRANCH  27  28
ATOM     28  C   UNL     1      -5.482  12.795  21.393  0.00  0.00    +0.000 C 
BRANCH  28  29
ATOM     29  C   UNL     1      -6.988  12.623  21.541  0.00  0.00    +0.000 C 
BRANCH  29  30
ATOM     30  O   UNL     1      -7.265  11.622  22.513  0.00  0.00    +0.000 OA
ATOM     31  H   UNL     1      -6.456  11.095  22.632  0.00  0.00    +0.000 HD
ENDBRANCH  29  30
ENDBRANCH  28  29
ENDBRANCH  27  28
ENDBRANCH  26  27
ENDBRANCH  24  26
ENDBRANCH  11  24
TORSDOF 9
ENDMDL
MODEL 9
REMARK VINA RESULT:      -7.4      3.467      9.230
REMARK  Name = 
REMARK  11 active torsions:
REMARK  status: ('A' for Active; 'I' for Inactive)
REMARK    1  A    between atoms: C_3  and  O_4
REMARK    2  A    between atoms: C_7  and  C_8
REMARK    3  A    between atoms: C_13  and  C_14
REMARK    4  A    between atoms: C_18  and  C_19
REMARK    5  A    between atoms: C_19  and  C_20
REMARK    6  A    between atoms: C_19  and  C_21
REMARK    7  A    between atoms: C_21  and  C_22
REMARK    8  A    between atoms: C_22  and  C_23
REMARK    9  A    between atoms: C_23  and  C_24
REMARK   10  A    between atoms: C_24  and  O_25
REMARK   11  A    between atoms: C_27  and  O_28
REMARK                            x       y       z     vdW  Elec       q    Type
REMARK                         _______ _______ _______ _____ _____    ______ ____
ROOT
ATOM      1  C   UNL     1       1.231   7.920  21.283  0.00  0.00    +0.000 C 
ATOM      2  C   UNL     1       0.287   8.880  21.307  0.00  0.00    +0.000 C 
ATOM      3  C   UNL     1      -0.556   9.103  22.555  0.00  0.00    +0.000 C 
ATOM      4  C   UNL     1      -0.650  10.577  22.962  0.00  0.00    +0.000 C 
ATOM      5  C   UNL     1      -1.089  11.475  21.793  0.00  0.00    +0.000 C 
ATOM      6  C   UNL     1      -0.217  11.281  20.540  0.00  0.00    +0.000 C 
ATOM      7  C   UNL     1       1.196  11.867  20.862  0.00  0.00    +0.000 C 
ATOM      8  C   UNL     1      -0.153   9.779  20.170  0.00  0.00    +0.000 C 
ATOM      9  C   UNL     1       0.510   9.792  18.791  0.00  0.00    +0.000 C 
ATOM     10  C   UNL     1       0.072  11.100  18.126  0.00  0.00    +0.000 C 
ATOM     11  C   UNL     1      -0.710  11.917  19.191  0.00  0.00    +0.000 C 
ENDROOT
BRANCH   1  17
ATOM     12  C   UNL     1       3.934   2.440  19.065  0.00  0.00    +0.000 C 
ATOM     13  C   UNL     1       3.580   3.670  19.484  0.00  0.00    +0.000 C 
ATOM     14  C   UNL     1       2.601   3.922  20.614  0.00  0.00    +0.000 C 
ATOM     15  C   UNL     1       1.587   5.039  20.305  0.00  0.00    +0.000 C 
ATOM     16  C   UNL     1       2.198   6.282  19.689  0.00  0.00    +0.000 C 
ATOM     17  C   UNL     1       1.989   7.533  20.119  0.00  0.00    +0.000 C 
ATOM     18  C   UNL     1       3.120   5.990  18.521  0.00  0.00    +0.000 C 
ATOM     19  C   UNL     1       4.172   4.905  18.848  0.00  0.00    +0.000 C 
BRANCH  14  20
ATOM     20  O   UNL     1       1.873   2.721  20.901  0.00  0.00    +0.000 OA
ATOM     21  H   UNL     1       0.959   2.847  20.601  0.00  0.00    +0.000 HD
ENDBRANCH  14  20
BRANCH  19  22
ATOM     22  O   UNL     1       5.190   5.399  19.715  0.00  0.00    +0.000 OA
ATOM     23  H   UNL     1       6.004   5.513  19.205  0.00  0.00    +0.000 HD
ENDBRANCH  19  22
ENDBRANCH   1  17
BRANCH  11  24
ATOM     24  C   UNL     1      -2.233  11.971  18.801  0.00  0.00    +0.000 C 
ATOM     25  C   UNL     1      -3.086  12.521  19.950  0.00  0.00    +0.000 C 
BRANCH  24  26
ATOM     26  C   UNL     1      -2.818  10.686  18.175  0.00  0.00    +0.000 C 
BRANCH  26  27
ATOM     27  C   UNL     1      -4.315  10.687  17.840  0.00  0.00    +0.000 C 
BRANCH  27  28
ATOM     28  C   UNL     1      -4.767  11.675  16.765  0.00  0.00    +0.000 C 
BRANCH  28  29
ATOM     29  C   UNL     1      -5.956  12.537  17.172  0.00  0.00    +0.000 C 
BRANCH  29  30
ATOM     30  O   UNL     1      -7.037  11.704  17.575  0.00  0.00    +0.000 OA
ATOM     31  H   UNL     1      -6.909  11.488  18.514  0.00  0.00    +0.000 HD
ENDBRANCH  29  30
ENDBRANCH  28  29
ENDBRANCH  27  28
ENDBRANCH  26  27
ENDBRANCH  24  26
ENDBRANCH  11  24
TORSDOF 9
ENDMDL
