MODEL 1
REMARK VINA RESULT:      -8.0      0.000      0.000
REMARK  Name = 
REMARK  8 active torsions:
REMARK  status: ('A' for Active; 'I' for Inactive)
REMARK    1  A    between atoms: C_2  and  C_3
REMARK    2  A    between atoms: C_2  and  C_29
REMARK    3  A    between atoms: C_3  and  N_4
REMARK    4  A    between atoms: N_9  and  C_10
REMARK    5  A    between atoms: C_17  and  S_18
REMARK    6  A    between atoms: S_18  and  C_19
REMARK    7  A    between atoms: C_19  and  C_20
REMARK    8  A    between atoms: C_20  and  N_21
REMARK                            x       y       z     vdW  Elec       q    Type
REMARK                         _______ _______ _______ _____ _____    ______ ____
ROOT
ATOM      1  N   UNL     1       1.324   8.660  19.955  0.00  0.00    +0.000 N 
ATOM      2  N   UNL     1       1.823   8.433  21.192  0.00  0.00    +0.000 NA
ATOM      3  C   UNL     1       1.268   9.402  21.927  0.00  0.00    +0.000 A 
ATOM      4  C   UNL     1       0.436  10.259  21.176  0.00  0.00    +0.000 A 
ATOM      5  C   UNL     1      -0.387  11.370  21.379  0.00  0.00    +0.000 A 
ATOM      6  N   UNL     1      -0.488  12.014  22.619  0.00  0.00    +0.000 N 
ATOM      7  N   UNL     1      -1.069  11.851  20.304  0.00  0.00    +0.000 NA
ATOM      8  C   UNL     1      -0.917  11.274  19.094  0.00  0.00    +0.000 A 
ATOM      9  N   UNL     1      -0.170  10.196  18.819  0.00  0.00    +0.000 NA
ATOM     10  C   UNL     1       0.481   9.739  19.897  0.00  0.00    +0.000 A 
ATOM     11  H   UNL     1       0.299  11.899  23.240  0.00  0.00    +0.000 HD
ENDROOT
BRANCH   6  12
ATOM     12  C   UNL     1      -1.614  12.626  23.197  0.00  0.00    +0.000 A 
ATOM     13  C   UNL     1      -1.605  13.963  23.617  0.00  0.00    +0.000 A 
ATOM     14  C   UNL     1      -2.726  14.538  24.219  0.00  0.00    +0.000 A 
ATOM     15  C   UNL     1      -3.866  13.772  24.439  0.00  0.00    +0.000 A 
ATOM     16  C   UNL     1      -3.885  12.434  24.052  0.00  0.00    +0.000 A 
ATOM     17  C   UNL     1      -2.767  11.867  23.434  0.00  0.00    +0.000 A 
ENDBRANCH   6  12
BRANCH   1  18
ATOM     18  C   UNL     1       1.628   7.756  18.863  0.00  0.00    +0.000 C 
BRANCH  18  20
ATOM     19 CL   UNL     1       4.012   6.640  17.981  0.00  0.00    +0.000 Cl
ATOM     20  C   UNL     1       2.696   6.714  19.205  0.00  0.00    +0.000 C 
BRANCH  20  21
ATOM     21  C   UNL     1       2.089   5.328  19.345  0.00  0.00    +0.000 A 
ATOM     22  C   UNL     1       1.928   4.509  18.217  0.00  0.00    +0.000 A 
ATOM     23  C   UNL     1       1.387   3.226  18.340  0.00  0.00    +0.000 A 
ATOM     24  C   UNL     1       0.999   2.745  19.590  0.00  0.00    +0.000 A 
ATOM     25  C   UNL     1       1.143   3.549  20.717  0.00  0.00    +0.000 A 
ATOM     26  C   UNL     1       1.680   4.831  20.596  0.00  0.00    +0.000 A 
ENDBRANCH  20  21
ENDBRANCH  18  20
ENDBRANCH   1  18
BRANCH   8  27
ATOM     27  S   UNL     1      -1.735  12.019  17.698  0.00  0.00    +0.000 S 
BRANCH  27  28
ATOM     28  C   UNL     1      -3.408  11.286  17.842  0.00  0.00    +0.000 C 
BRANCH  28  29
ATOM     29  C   UNL     1      -4.245  11.938  18.956  0.00  0.00    +0.000 C 
BRANCH  29  30
ATOM     30  N   UNL     1      -5.622  12.324  18.568  0.00  0.00    +0.000 NA
ATOM     31  C   UNL     1      -6.344  12.891  19.736  0.00  0.00    +0.000 C 
ATOM     32  C   UNL     1      -6.735  11.843  20.797  0.00  0.00    +0.000 C 
ATOM     33  O   UNL     1      -7.519  10.787  20.226  0.00  0.00    +0.000 OA
ATOM     34  C   UNL     1      -6.823  10.170  19.135  0.00  0.00    +0.000 C 
ATOM     35  C   UNL     1      -6.439  11.198  18.059  0.00  0.00    +0.000 C 
ENDBRANCH  29  30
ENDBRANCH  28  29
ENDBRANCH  27  28
ENDBRANCH   8  27
TORSDOF 8
ENDMDL
MODEL 2
REMARK VINA RESULT:      -7.9      0.699      1.156
REMARK  Name = 
REMARK  8 active torsions:
REMARK  status: ('A' for Active; 'I' for Inactive)
REMARK    1  A    between atoms: C_2  and  C_3
REMARK    2  A    between atoms: C_2  and  C_29
REMARK    3  A    between atoms: C_3  and  N_4
REMARK    4  A    between atoms: N_9  and  C_10
REMARK    5  A    between atoms: C_17  and  S_18
REMARK    6  A    between atoms: S_18  and  C_19
REMARK    7  A    between atoms: C_19  and  C_20
REMARK    8  A    between atoms: C_20  and  N_21
REMARK                            x       y       z     vdW  Elec       q    Type
REMARK                         _______ _______ _______ _____ _____    ______ ____
ROOT
ATOM      1  N   UNL     1       1.266   8.813  19.691  0.00  0.00    +0.000 N 
ATOM      2  N   UNL     1       1.859   8.742  20.905  0.00  0.00    +0.000 NA
ATOM      3  C   UNL     1       1.244   9.704  21.601  0.00  0.00    +0.000 A 
ATOM      4  C   UNL     1       0.280  10.403  20.846  0.00  0.00    +0.000 A 
ATOM      5  C   UNL     1      -0.647  11.434  21.019  0.00  0.00    +0.000 A 
ATOM      6  N   UNL     1      -0.747  12.164  22.211  0.00  0.00    +0.000 N 
ATOM      7  N   UNL     1      -1.441  11.750  19.960  0.00  0.00    +0.000 NA
ATOM      8  C   UNL     1      -1.298  11.096  18.789  0.00  0.00    +0.000 A 
ATOM      9  N   UNL     1      -0.453  10.084  18.546  0.00  0.00    +0.000 NA
ATOM     10  C   UNL     1       0.307   9.788  19.609  0.00  0.00    +0.000 A 
ATOM     11  H   UNL     1       0.084  12.184  22.784  0.00  0.00    +0.000 HD
ENDROOT
BRANCH   6  12
ATOM     12  C   UNL     1      -1.897  12.699  22.816  0.00  0.00    +0.000 A 
ATOM     13  C   UNL     1      -2.177  14.072  22.807  0.00  0.00    +0.000 A 
ATOM     14  C   UNL     1      -3.310  14.581  23.444  0.00  0.00    +0.000 A 
ATOM     15  C   UNL     1      -4.166  13.725  24.129  0.00  0.00    +0.000 A 
ATOM     16  C   UNL     1      -3.890  12.360  24.173  0.00  0.00    +0.000 A 
ATOM     17  C   UNL     1      -2.765  11.852  23.519  0.00  0.00    +0.000 A 
ENDBRANCH   6  12
BRANCH   1  18
ATOM     18  C   UNL     1       1.603   7.860  18.652  0.00  0.00    +0.000 C 
BRANCH  18  20
ATOM     19 CL   UNL     1       4.030   6.753  17.880  0.00  0.00    +0.000 Cl
ATOM     20  C   UNL     1       2.680   6.853  19.065  0.00  0.00    +0.000 C 
BRANCH  20  21
ATOM     21  C   UNL     1       2.094   5.462  19.248  0.00  0.00    +0.000 A 
ATOM     22  C   UNL     1       1.713   5.017  20.523  0.00  0.00    +0.000 A 
ATOM     23  C   UNL     1       1.157   3.747  20.697  0.00  0.00    +0.000 A 
ATOM     24  C   UNL     1       0.976   2.905  19.600  0.00  0.00    +0.000 A 
ATOM     25  C   UNL     1       1.358   3.327  18.331  0.00  0.00    +0.000 A 
ATOM     26  C   UNL     1       1.916   4.594  18.155  0.00  0.00    +0.000 A 
ENDBRANCH  20  21
ENDBRANCH  18  20
ENDBRANCH   1  18
BRANCH   8  27
ATOM     27  S   UNL     1      -2.274  11.632  17.399  0.00  0.00    +0.000 S 
BRANCH  27  28
ATOM     28  C   UNL     1      -3.919  10.962  17.848  0.00  0.00    +0.000 C 
BRANCH  28  29
ATOM     29  C   UNL     1      -5.012  12.046  17.875  0.00  0.00    +0.000 C 
BRANCH  29  30
ATOM     30  N   UNL     1      -6.401  11.545  17.755  0.00  0.00    +0.000 NA
ATOM     31  C   UNL     1      -7.365  12.658  17.950  0.00  0.00    +0.000 C 
ATOM     32  C   UNL     1      -7.467  13.147  19.409  0.00  0.00    +0.000 C 
ATOM     33  O   UNL     1      -7.799  12.075  20.300  0.00  0.00    +0.000 OA
ATOM     34  C   UNL     1      -6.849  11.007  20.187  0.00  0.00    +0.000 C 
ATOM     35  C   UNL     1      -6.746  10.495  18.742  0.00  0.00    +0.000 C 
ENDBRANCH  29  30
ENDBRANCH  28  29
ENDBRANCH  27  28
ENDBRANCH   8  27
TORSDOF 8
ENDMDL
MODEL 3
REMARK VINA RESULT:      -7.8      0.889      1.687
REMARK  Name = 
REMARK  8 active torsions:
REMARK  status: ('A' for Active; 'I' for Inactive)
REMARK    1  A    between atoms: C_2  and  C_3
REMARK    2  A    between atoms: C_2  and  C_29
REMARK    3  A    between atoms: C_3  and  N_4
REMARK    4  A    between atoms: N_9  and  C_10
REMARK    5  A    between atoms: C_17  and  S_18
REMARK    6  A    between atoms: S_18  and  C_19
REMARK    7  A    between atoms: C_19  and  C_20
REMARK    8  A    between atoms: C_20  and  N_21
REMARK                            x       y       z     vdW  Elec       q    Type
REMARK                         _______ _______ _______ _____ _____    ______ ____
ROOT
ATOM      1  N   UNL     1       1.321   8.682  19.924  0.00  0.00    +0.000 N 
ATOM      2  N   UNL     1       1.854   8.506  21.155  0.00  0.00    +0.000 NA
ATOM      3  C   UNL     1       1.270   9.468  21.879  0.00  0.00    +0.000 A 
ATOM      4  C   UNL     1       0.386  10.268  21.126  0.00  0.00    +0.000 A 
ATOM      5  C   UNL     1      -0.481  11.347  21.320  0.00  0.00    +0.000 A 
ATOM      6  N   UNL     1      -0.588  12.015  22.546  0.00  0.00    +0.000 N 
ATOM      7  N   UNL     1      -1.206  11.770  20.248  0.00  0.00    +0.000 NA
ATOM      8  C   UNL     1      -1.052  11.172  19.049  0.00  0.00    +0.000 A 
ATOM      9  N   UNL     1      -0.262  10.122  18.784  0.00  0.00    +0.000 NA
ATOM     10  C   UNL     1       0.429   9.720  19.858  0.00  0.00    +0.000 A 
ATOM     11  H   UNL     1       0.216  11.950  23.153  0.00  0.00    +0.000 HD
ENDROOT
BRANCH   6  12
ATOM     12  C   UNL     1      -1.728  12.590  23.132  0.00  0.00    +0.000 A 
ATOM     13  C   UNL     1      -2.827  11.823  23.542  0.00  0.00    +0.000 A 
ATOM     14  C   UNL     1      -3.961  12.423  24.092  0.00  0.00    +0.000 A 
ATOM     15  C   UNL     1      -4.027  13.807  24.211  0.00  0.00    +0.000 A 
ATOM     16  C   UNL     1      -2.956  14.589  23.785  0.00  0.00    +0.000 A 
ATOM     17  C   UNL     1      -1.815  13.984  23.251  0.00  0.00    +0.000 A 
ENDBRANCH   6  12
BRANCH   1  18
ATOM     18  C   UNL     1       1.644   7.766  18.847  0.00  0.00    +0.000 C 
BRANCH  18  20
ATOM     19 CL   UNL     1       4.045   6.647  18.018  0.00  0.00    +0.000 Cl
ATOM     20  C   UNL     1       2.708   6.730  19.218  0.00  0.00    +0.000 C 
BRANCH  20  21
ATOM     21  C   UNL     1       2.102   5.343  19.361  0.00  0.00    +0.000 A 
ATOM     22  C   UNL     1       1.710   4.870  20.622  0.00  0.00    +0.000 A 
ATOM     23  C   UNL     1       1.135   3.603  20.760  0.00  0.00    +0.000 A 
ATOM     24  C   UNL     1       0.945   2.794  19.641  0.00  0.00    +0.000 A 
ATOM     25  C   UNL     1       1.338   3.245  18.384  0.00  0.00    +0.000 A 
ATOM     26  C   UNL     1       1.914   4.508  18.245  0.00  0.00    +0.000 A 
ENDBRANCH  20  21
ENDBRANCH  18  20
ENDBRANCH   1  18
BRANCH   8  27
ATOM     27  S   UNL     1      -1.929  11.845  17.652  0.00  0.00    +0.000 S 
BRANCH  27  28
ATOM     28  C   UNL     1      -3.465  10.846  17.690  0.00  0.00    +0.000 C 
BRANCH  28  29
ATOM     29  C   UNL     1      -4.695  11.634  17.205  0.00  0.00    +0.000 C 
BRANCH  29  30
ATOM     30  N   UNL     1      -5.912  11.477  18.035  0.00  0.00    +0.000 NA
ATOM     31  C   UNL     1      -6.978  12.396  17.559  0.00  0.00    +0.000 C 
ATOM     32  C   UNL     1      -6.717  13.879  17.887  0.00  0.00    +0.000 C 
ATOM     33  O   UNL     1      -6.518  14.077  19.293  0.00  0.00    +0.000 OA
ATOM     34  C   UNL     1      -5.448  13.254  19.776  0.00  0.00    +0.000 C 
ATOM     35  C   UNL     1      -5.700  11.768  19.472  0.00  0.00    +0.000 C 
ENDBRANCH  29  30
ENDBRANCH  28  29
ENDBRANCH  27  28
ENDBRANCH   8  27
TORSDOF 8
ENDMDL
MODEL 4
REMARK VINA RESULT:      -7.7      2.976      4.633
REMARK  Name = 
REMARK  8 active torsions:
REMARK  status: ('A' for Active; 'I' for Inactive)
REMARK    1  A    between atoms: C_2  and  C_3
REMARK    2  A    between atoms: C_2  and  C_29
REMARK    3  A    between atoms: C_3  and  N_4
REMARK    4  A    between atoms: N_9  and  C_10
REMARK    5  A    between atoms: C_17  and  S_18
REMARK    6  A    between atoms: S_18  and  C_19
REMARK    7  A    between atoms: C_19  and  C_20
REMARK    8  A    between atoms: C_20  and  N_21
REMARK                            x       y       z     vdW  Elec       q    Type
REMARK                         _______ _______ _______ _____ _____    ______ ____
ROOT
ATOM      1  N   UNL     1       1.953   7.789  19.359  0.00  0.00    +0.000 N 
ATOM      2  N   UNL     1       2.444   8.001  18.116  0.00  0.00    +0.000 NA
ATOM      3  C   UNL     1       2.081   9.261  17.856  0.00  0.00    +0.000 A 
ATOM      4  C   UNL     1       1.348   9.854  18.905  0.00  0.00    +0.000 A 
ATOM      5  C   UNL     1       0.753  11.081  19.210  0.00  0.00    +0.000 A 
ATOM      6  N   UNL     1       0.703  12.141  18.296  0.00  0.00    +0.000 N 
ATOM      7  N   UNL     1       0.169  11.208  20.433  0.00  0.00    +0.000 NA
ATOM      8  C   UNL     1       0.154  10.165  21.287  0.00  0.00    +0.000 A 
ATOM      9  N   UNL     1       0.719   8.967  21.083  0.00  0.00    +0.000 NA
ATOM     10  C   UNL     1       1.295   8.874  19.878  0.00  0.00    +0.000 A 
ATOM     11  H   UNL     1       0.765  11.884  17.322  0.00  0.00    +0.000 HD
ENDROOT
BRANCH   6  12
ATOM     12  C   UNL     1       0.783  13.521  18.551  0.00  0.00    +0.000 A 
ATOM     13  C   UNL     1      -0.357  14.316  18.730  0.00  0.00    +0.000 A 
ATOM     14  C   UNL     1      -0.250  15.691  18.949  0.00  0.00    +0.000 A 
ATOM     15  C   UNL     1       1.002  16.298  18.961  0.00  0.00    +0.000 A 
ATOM     16  C   UNL     1       2.145  15.529  18.759  0.00  0.00    +0.000 A 
ATOM     17  C   UNL     1       2.036  14.150  18.558  0.00  0.00    +0.000 A 
ENDBRANCH   6  12
BRANCH   1  18
ATOM     18  C   UNL     1       2.212   6.540  20.048  0.00  0.00    +0.000 C 
BRANCH  18  20
ATOM     19 CL   UNL     1       1.580   3.839  19.947  0.00  0.00    +0.000 Cl
ATOM     20  C   UNL     1       2.201   5.316  19.130  0.00  0.00    +0.000 C 
BRANCH  20  21
ATOM     21  C   UNL     1       3.590   5.020  18.588  0.00  0.00    +0.000 A 
ATOM     22  C   UNL     1       3.745   4.412  17.333  0.00  0.00    +0.000 A 
ATOM     23  C   UNL     1       5.019   4.152  16.820  0.00  0.00    +0.000 A 
ATOM     24  C   UNL     1       6.153   4.495  17.554  0.00  0.00    +0.000 A 
ATOM     25  C   UNL     1       6.016   5.089  18.805  0.00  0.00    +0.000 A 
ATOM     26  C   UNL     1       4.746   5.347  19.320  0.00  0.00    +0.000 A 
ENDBRANCH  20  21
ENDBRANCH  18  20
ENDBRANCH   1  18
BRANCH   8  27
ATOM     27  S   UNL     1      -0.731  10.345  22.823  0.00  0.00    +0.000 S 
BRANCH  27  28
ATOM     28  C   UNL     1      -1.109  12.138  22.799  0.00  0.00    +0.000 C 
BRANCH  28  29
ATOM     29  C   UNL     1      -2.449  12.450  22.108  0.00  0.00    +0.000 C 
BRANCH  29  30
ATOM     30  N   UNL     1      -3.649  12.308  22.966  0.00  0.00    +0.000 NA
ATOM     31  C   UNL     1      -4.857  12.775  22.238  0.00  0.00    +0.000 C 
ATOM     32  C   UNL     1      -4.929  14.306  22.066  0.00  0.00    +0.000 C 
ATOM     33  O   UNL     1      -4.851  14.979  23.330  0.00  0.00    +0.000 OA
ATOM     34  C   UNL     1      -3.660  14.602  24.034  0.00  0.00    +0.000 C 
ATOM     35  C   UNL     1      -3.579  13.079  24.228  0.00  0.00    +0.000 C 
ENDBRANCH  29  30
ENDBRANCH  28  29
ENDBRANCH  27  28
ENDBRANCH   8  27
TORSDOF 8
ENDMDL
MODEL 5
REMARK VINA RESULT:      -7.7      3.000      4.749
REMARK  Name = 
REMARK  8 active torsions:
REMARK  status: ('A' for Active; 'I' for Inactive)
REMARK    1  A    between atoms: C_2  and  C_3
REMARK    2  A    between atoms: C_2  and  C_29
REMARK    3  A    between atoms: C_3  and  N_4
REMARK    4  A    between atoms: N_9  and  C_10
REMARK    5  A    between atoms: C_17  and  S_18
REMARK    6  A    between atoms: S_18  and  C_19
REMARK    7  A    between atoms: C_19  and  C_20
REMARK    8  A    between atoms: C_20  and  N_21
REMARK                            x       y       z     vdW  Elec       q    Type
REMARK                         _______ _______ _______ _____ _____    ______ ____
ROOT
ATOM      1  N   UNL     1       2.110   7.608  19.160  0.00  0.00    +0.000 N 
ATOM      2  N   UNL     1       2.539   7.867  17.903  0.00  0.00    +0.000 NA
ATOM      3  C   UNL     1       2.137   9.126  17.698  0.00  0.00    +0.000 A 
ATOM      4  C   UNL     1       1.439   9.671  18.796  0.00  0.00    +0.000 A 
ATOM      5  C   UNL     1       0.832  10.874  19.165  0.00  0.00    +0.000 A 
ATOM      6  N   UNL     1       0.718  11.959  18.287  0.00  0.00    +0.000 N 
ATOM      7  N   UNL     1       0.302  10.952  20.417  0.00  0.00    +0.000 NA
ATOM      8  C   UNL     1       0.350   9.884  21.239  0.00  0.00    +0.000 A 
ATOM      9  N   UNL     1       0.931   8.706  20.973  0.00  0.00    +0.000 NA
ATOM     10  C   UNL     1       1.453   8.662  19.740  0.00  0.00    +0.000 A 
ATOM     11  H   UNL     1       0.741  11.733  17.304  0.00  0.00    +0.000 HD
ENDROOT
BRANCH   6  12
ATOM     12  C   UNL     1       0.780  13.332  18.580  0.00  0.00    +0.000 A 
ATOM     13  C   UNL     1      -0.371  14.109  18.772  0.00  0.00    +0.000 A 
ATOM     14  C   UNL     1      -0.283  15.478  19.029  0.00  0.00    +0.000 A 
ATOM     15  C   UNL     1       0.961  16.099  19.067  0.00  0.00    +0.000 A 
ATOM     16  C   UNL     1       2.115  15.350  18.851  0.00  0.00    +0.000 A 
ATOM     17  C   UNL     1       2.024  13.976  18.612  0.00  0.00    +0.000 A 
ENDBRANCH   6  12
BRANCH   1  18
ATOM     18  C   UNL     1       2.428   6.346  19.799  0.00  0.00    +0.000 C 
BRANCH  18  20
ATOM     19 CL   UNL     1       1.916   3.629  19.554  0.00  0.00    +0.000 Cl
ATOM     20  C   UNL     1       2.503   5.166  18.827  0.00  0.00    +0.000 C 
BRANCH  20  21
ATOM     21  C   UNL     1       3.922   4.952  18.327  0.00  0.00    +0.000 A 
ATOM     22  C   UNL     1       5.016   5.279  19.142  0.00  0.00    +0.000 A 
ATOM     23  C   UNL     1       6.324   5.069  18.697  0.00  0.00    +0.000 A 
ATOM     24  C   UNL     1       6.556   4.531  17.433  0.00  0.00    +0.000 A 
ATOM     25  C   UNL     1       5.482   4.210  16.608  0.00  0.00    +0.000 A 
ATOM     26  C   UNL     1       4.176   4.422  17.049  0.00  0.00    +0.000 A 
ENDBRANCH  20  21
ENDBRANCH  18  20
ENDBRANCH   1  18
BRANCH   8  27
ATOM     27  S   UNL     1      -0.468   9.999  22.817  0.00  0.00    +0.000 S 
BRANCH  27  28
ATOM     28  C   UNL     1      -0.977  11.759  22.819  0.00  0.00    +0.000 C 
BRANCH  28  29
ATOM     29  C   UNL     1      -2.479  11.939  23.104  0.00  0.00    +0.000 C 
BRANCH  29  30
ATOM     30  N   UNL     1      -3.186  12.871  22.195  0.00  0.00    +0.000 NA
ATOM     31  C   UNL     1      -2.696  14.259  22.403  0.00  0.00    +0.000 C 
ATOM     32  C   UNL     1      -3.167  14.895  23.726  0.00  0.00    +0.000 C 
ATOM     33  O   UNL     1      -4.596  14.878  23.838  0.00  0.00    +0.000 OA
ATOM     34  C   UNL     1      -5.100  13.541  23.709  0.00  0.00    +0.000 C 
ATOM     35  C   UNL     1      -4.654  12.897  22.386  0.00  0.00    +0.000 C 
ENDBRANCH  29  30
ENDBRANCH  28  29
ENDBRANCH  27  28
ENDBRANCH   8  27
TORSDOF 8
ENDMDL
MODEL 6
REMARK VINA RESULT:      -7.7      2.942      4.540
REMARK  Name = 
REMARK  8 active torsions:
REMARK  status: ('A' for Active; 'I' for Inactive)
REMARK    1  A    between atoms: C_2  and  C_3
REMARK    2  A    between atoms: C_2  and  C_29
REMARK    3  A    between atoms: C_3  and  N_4
REMARK    4  A    between atoms: N_9  and  C_10
REMARK    5  A    between atoms: C_17  and  S_18
REMARK    6  A    between atoms: S_18  and  C_19
REMARK    7  A    between atoms: C_19  and  C_20
REMARK    8  A    between atoms: C_20  and  N_21
REMARK                            x       y       z     vdW  Elec       q    Type
REMARK                         _______ _______ _______ _____ _____    ______ ____
ROOT
ATOM      1  N   UNL     1       1.981   7.876  19.230  0.00  0.00    +0.000 N 
ATOM      2  N   UNL     1       2.459   8.118  17.987  0.00  0.00    +0.000 NA
ATOM      3  C   UNL     1       2.096   9.385  17.763  0.00  0.00    +0.000 A 
ATOM      4  C   UNL     1       1.377   9.953  18.835  0.00  0.00    +0.000 A 
ATOM      5  C   UNL     1       0.789  11.174  19.178  0.00  0.00    +0.000 A 
ATOM      6  N   UNL     1       0.732  12.257  18.291  0.00  0.00    +0.000 N 
ATOM      7  N   UNL     1       0.219  11.272  20.410  0.00  0.00    +0.000 NA
ATOM      8  C   UNL     1       0.211  10.208  21.238  0.00  0.00    +0.000 A 
ATOM      9  N   UNL     1       0.769   9.013  20.997  0.00  0.00    +0.000 NA
ATOM     10  C   UNL     1       1.332   8.949  19.783  0.00  0.00    +0.000 A 
ATOM     11  H   UNL     1       0.782  12.025  17.310  0.00  0.00    +0.000 HD
ENDROOT
BRANCH   6  12
ATOM     12  C   UNL     1       0.819  13.630  18.580  0.00  0.00    +0.000 A 
ATOM     13  C   UNL     1       2.045  14.269  18.809  0.00  0.00    +0.000 A 
ATOM     14  C   UNL     1       2.102  15.628  19.127  0.00  0.00    +0.000 A 
ATOM     15  C   UNL     1       0.927  16.362  19.251  0.00  0.00    +0.000 A 
ATOM     16  C   UNL     1      -0.303  15.738  19.054  0.00  0.00    +0.000 A 
ATOM     17  C   UNL     1      -0.355  14.382  18.719  0.00  0.00    +0.000 A 
ENDBRANCH   6  12
BRANCH   1  18
ATOM     18  C   UNL     1       2.244   6.610  19.885  0.00  0.00    +0.000 C 
BRANCH  18  20
ATOM     19 CL   UNL     1       1.534   3.937  19.647  0.00  0.00    +0.000 Cl
ATOM     20  C   UNL     1       2.265   5.415  18.929  0.00  0.00    +0.000 C 
BRANCH  20  21
ATOM     21  C   UNL     1       3.682   5.087  18.487  0.00  0.00    +0.000 A 
ATOM     22  C   UNL     1       4.770   5.383  19.322  0.00  0.00    +0.000 A 
ATOM     23  C   UNL     1       6.074   5.068  18.931  0.00  0.00    +0.000 A 
ATOM     24  C   UNL     1       6.309   4.455  17.701  0.00  0.00    +0.000 A 
ATOM     25  C   UNL     1       5.242   4.164  16.857  0.00  0.00    +0.000 A 
ATOM     26  C   UNL     1       3.939   4.480  17.244  0.00  0.00    +0.000 A 
ENDBRANCH  20  21
ENDBRANCH  18  20
ENDBRANCH   1  18
BRANCH   8  27
ATOM     27  S   UNL     1      -0.657  10.352  22.787  0.00  0.00    +0.000 S 
BRANCH  27  28
ATOM     28  C   UNL     1      -1.067  12.138  22.793  0.00  0.00    +0.000 C 
BRANCH  28  29
ATOM     29  C   UNL     1      -2.460  12.426  22.204  0.00  0.00    +0.000 C 
BRANCH  29  30
ATOM     30  N   UNL     1      -3.133  13.633  22.739  0.00  0.00    +0.000 NA
ATOM     31  C   UNL     1      -3.285  13.523  24.213  0.00  0.00    +0.000 C 
ATOM     32  C   UNL     1      -4.352  12.502  24.656  0.00  0.00    +0.000 C 
ATOM     33  O   UNL     1      -5.628  12.789  24.071  0.00  0.00    +0.000 OA
ATOM     34  C   UNL     1      -5.533  12.836  22.640  0.00  0.00    +0.000 C 
ATOM     35  C   UNL     1      -4.485  13.862  22.180  0.00  0.00    +0.000 C 
ENDBRANCH  29  30
ENDBRANCH  28  29
ENDBRANCH  27  28
ENDBRANCH   8  27
TORSDOF 8
ENDMDL
MODEL 7
REMARK VINA RESULT:      -7.7      2.960      4.776
REMARK  Name = 
REMARK  8 active torsions:
REMARK  status: ('A' for Active; 'I' for Inactive)
REMARK    1  A    between atoms: C_2  and  C_3
REMARK    2  A    between atoms: C_2  and  C_29
REMARK    3  A    between atoms: C_3  and  N_4
REMARK    4  A    between atoms: N_9  and  C_10
REMARK    5  A    between atoms: C_17  and  S_18
REMARK    6  A    between atoms: S_18  and  C_19
REMARK    7  A    between atoms: C_19  and  C_20
REMARK    8  A    between atoms: C_20  and  N_21
REMARK                            x       y       z     vdW  Elec       q    Type
REMARK                         _______ _______ _______ _____ _____    ______ ____
ROOT
ATOM      1  N   UNL     1       1.998   7.748  19.258  0.00  0.00    +0.000 N 
ATOM      2  N   UNL     1       2.424   7.999  17.998  0.00  0.00    +0.000 NA
ATOM      3  C   UNL     1       2.028   9.260  17.789  0.00  0.00    +0.000 A 
ATOM      4  C   UNL     1       1.339   9.813  18.888  0.00  0.00    +0.000 A 
ATOM      5  C   UNL     1       0.741  11.022  19.254  0.00  0.00    +0.000 A 
ATOM      6  N   UNL     1       0.630  12.104  18.372  0.00  0.00    +0.000 N 
ATOM      7  N   UNL     1       0.217  11.109  20.508  0.00  0.00    +0.000 NA
ATOM      8  C   UNL     1       0.261  10.044  21.334  0.00  0.00    +0.000 A 
ATOM      9  N   UNL     1       0.833   8.861  21.070  0.00  0.00    +0.000 NA
ATOM     10  C   UNL     1       1.350   8.808  19.836  0.00  0.00    +0.000 A 
ATOM     11  H   UNL     1       0.648  11.873  17.390  0.00  0.00    +0.000 HD
ENDROOT
BRANCH   6  12
ATOM     12  C   UNL     1       0.702  13.478  18.659  0.00  0.00    +0.000 A 
ATOM     13  C   UNL     1      -0.443  14.259  18.869  0.00  0.00    +0.000 A 
ATOM     14  C   UNL     1      -0.345  15.629  19.120  0.00  0.00    +0.000 A 
ATOM     15  C   UNL     1       0.902  16.246  19.133  0.00  0.00    +0.000 A 
ATOM     16  C   UNL     1       2.049  15.492  18.899  0.00  0.00    +0.000 A 
ATOM     17  C   UNL     1       1.949  14.117  18.667  0.00  0.00    +0.000 A 
ENDBRANCH   6  12
BRANCH   1  18
ATOM     18  C   UNL     1       2.310   6.486  19.900  0.00  0.00    +0.000 C 
BRANCH  18  20
ATOM     19 CL   UNL     1       1.680   3.792  19.679  0.00  0.00    +0.000 Cl
ATOM     20  C   UNL     1       2.335   5.295  18.939  0.00  0.00    +0.000 C 
BRANCH  20  21
ATOM     21  C   UNL     1       3.745   5.015  18.444  0.00  0.00    +0.000 A 
ATOM     22  C   UNL     1       4.853   5.344  19.240  0.00  0.00    +0.000 A 
ATOM     23  C   UNL     1       6.151   5.073  18.800  0.00  0.00    +0.000 A 
ATOM     24  C   UNL     1       6.360   4.472  17.560  0.00  0.00    +0.000 A 
ATOM     25  C   UNL     1       5.272   4.149  16.754  0.00  0.00    +0.000 A 
ATOM     26  C   UNL     1       3.975   4.420  17.190  0.00  0.00    +0.000 A 
ENDBRANCH  20  21
ENDBRANCH  18  20
ENDBRANCH   1  18
BRANCH   8  27
ATOM     27  S   UNL     1      -0.550  10.170  22.915  0.00  0.00    +0.000 S 
BRANCH  27  28
ATOM     28  C   UNL     1      -1.132  11.907  22.871  0.00  0.00    +0.000 C 
BRANCH  28  29
ATOM     29  C   UNL     1      -2.662  12.020  22.991  0.00  0.00    +0.000 C 
BRANCH  29  30
ATOM     30  N   UNL     1      -3.146  13.037  23.954  0.00  0.00    +0.000 NA
ATOM     31  C   UNL     1      -4.628  13.130  23.899  0.00  0.00    +0.000 C 
ATOM     32  C   UNL     1      -5.164  13.810  22.623  0.00  0.00    +0.000 C 
ATOM     33  O   UNL     1      -4.603  15.118  22.451  0.00  0.00    +0.000 OA
ATOM     34  C   UNL     1      -3.170  15.059  22.432  0.00  0.00    +0.000 C 
ATOM     35  C   UNL     1      -2.617  14.398  23.705  0.00  0.00    +0.000 C 
ENDBRANCH  29  30
ENDBRANCH  28  29
ENDBRANCH  27  28
ENDBRANCH   8  27
TORSDOF 8
ENDMDL
MODEL 8
REMARK VINA RESULT:      -7.7      3.059      5.046
REMARK  Name = 
REMARK  8 active torsions:
REMARK  status: ('A' for Active; 'I' for Inactive)
REMARK    1  A    between atoms: C_2  and  C_3
REMARK    2  A    between atoms: C_2  and  C_29
REMARK    3  A    between atoms: C_3  and  N_4
REMARK    4  A    between atoms: N_9  and  C_10
REMARK    5  A    between atoms: C_17  and  S_18
REMARK    6  A    between atoms: S_18  and  C_19
REMARK    7  A    between atoms: C_19  and  C_20
REMARK    8  A    between atoms: C_20  and  N_21
REMARK                            x       y       z     vdW  Elec       q    Type
REMARK                         _______ _______ _______ _____ _____    ______ ____
ROOT
ATOM      1  N   UNL     1       2.458   7.099  19.153  0.00  0.00    +0.000 N 
ATOM      2  N   UNL     1       2.710   7.321  17.842  0.00  0.00    +0.000 NA
ATOM      3  C   UNL     1       2.230   8.553  17.644  0.00  0.00    +0.000 A 
ATOM      4  C   UNL     1       1.657   9.117  18.803  0.00  0.00    +0.000 A 
ATOM      5  C   UNL     1       1.051  10.311  19.203  0.00  0.00    +0.000 A 
ATOM      6  N   UNL     1       0.777  11.352  18.307  0.00  0.00    +0.000 N 
ATOM      7  N   UNL     1       0.684  10.422  20.509  0.00  0.00    +0.000 NA
ATOM      8  C   UNL     1       0.884   9.393  21.357  0.00  0.00    +0.000 A 
ATOM      9  N   UNL     1       1.476   8.227  21.062  0.00  0.00    +0.000 NA
ATOM     10  C   UNL     1       1.836   8.150  19.775  0.00  0.00    +0.000 A 
ATOM     11  H   UNL     1       0.683  11.085  17.339  0.00  0.00    +0.000 HD
ENDROOT
BRANCH   6  12
ATOM     12  C   UNL     1       0.816  12.738  18.538  0.00  0.00    +0.000 A 
ATOM     13  C   UNL     1       2.017  13.460  18.556  0.00  0.00    +0.000 A 
ATOM     14  C   UNL     1       2.031  14.831  18.820  0.00  0.00    +0.000 A 
ATOM     15  C   UNL     1       0.843  15.496  19.103  0.00  0.00    +0.000 A 
ATOM     16  C   UNL     1      -0.358  14.791  19.117  0.00  0.00    +0.000 A 
ATOM     17  C   UNL     1      -0.371  13.422  18.834  0.00  0.00    +0.000 A 
ENDBRANCH   6  12
BRANCH   1  18
ATOM     18  C   UNL     1       2.911   5.879  19.792  0.00  0.00    +0.000 C 
BRANCH  18  20
ATOM     19 CL   UNL     1       2.875   3.117  19.511  0.00  0.00    +0.000 Cl
ATOM     20  C   UNL     1       3.201   4.741  18.810  0.00  0.00    +0.000 C 
BRANCH  20  21
ATOM     21  C   UNL     1       4.644   4.779  18.332  0.00  0.00    +0.000 A 
ATOM     22  C   UNL     1       5.659   5.239  19.185  0.00  0.00    +0.000 A 
ATOM     23  C   UNL     1       6.991   5.260  18.760  0.00  0.00    +0.000 A 
ATOM     24  C   UNL     1       7.325   4.825  17.479  0.00  0.00    +0.000 A 
ATOM     25  C   UNL     1       6.328   4.376  16.617  0.00  0.00    +0.000 A 
ATOM     26  C   UNL     1       4.998   4.356  17.038  0.00  0.00    +0.000 A 
ENDBRANCH  20  21
ENDBRANCH  18  20
ENDBRANCH   1  18
BRANCH   8  27
ATOM     27  S   UNL     1       0.272   9.543  23.024  0.00  0.00    +0.000 S 
BRANCH  27  28
ATOM     28  C   UNL     1      -1.264  10.504  22.746  0.00  0.00    +0.000 C 
BRANCH  28  29
ATOM     29  C   UNL     1      -1.071  12.011  22.996  0.00  0.00    +0.000 C 
BRANCH  29  30
ATOM     30  N   UNL     1      -2.087  12.889  22.371  0.00  0.00    +0.000 NA
ATOM     31  C   UNL     1      -1.867  14.300  22.781  0.00  0.00    +0.000 C 
ATOM     32  C   UNL     1      -2.245  14.589  24.248  0.00  0.00    +0.000 C 
ATOM     33  O   UNL     1      -3.605  14.226  24.520  0.00  0.00    +0.000 OA
ATOM     34  C   UNL     1      -3.838  12.848  24.198  0.00  0.00    +0.000 C 
ATOM     35  C   UNL     1      -3.481  12.545  22.734  0.00  0.00    +0.000 C 
ENDBRANCH  29  30
ENDBRANCH  28  29
ENDBRANCH  27  28
ENDBRANCH   8  27
TORSDOF 8
ENDMDL
MODEL 9
REMARK VINA RESULT:      -7.4      1.315      1.837
REMARK  Name = 
REMARK  8 active torsions:
REMARK  status: ('A' for Active; 'I' for Inactive)
REMARK    1  A    between atoms: C_2  and  C_3
REMARK    2  A    between atoms: C_2  and  C_29
REMARK    3  A    between atoms: C_3  and  N_4
REMARK    4  A    between atoms: N_9  and  C_10
REMARK    5  A    between atoms: C_17  and  S_18
REMARK    6  A    between atoms: S_18  and  C_19
REMARK    7  A    between atoms: C_19  and  C_20
REMARK    8  A    between atoms: C_20  and  N_21
REMARK                            x       y       z     vdW  Elec       q    Type
REMARK                         _______ _______ _______ _____ _____    ______ ____
ROOT
ATOM      1  N   UNL     1       0.987   8.528  20.632  0.00  0.00    +0.000 N 
ATOM      2  N   UNL     1       1.409   8.440  21.915  0.00  0.00    +0.000 NA
ATOM      3  C   UNL     1       0.857   9.514  22.490  0.00  0.00    +0.000 A 
ATOM      4  C   UNL     1       0.105  10.299  21.592  0.00  0.00    +0.000 A 
ATOM      5  C   UNL     1      -0.678  11.456  21.607  0.00  0.00    +0.000 A 
ATOM      6  N   UNL     1      -0.818  12.255  22.749  0.00  0.00    +0.000 N 
ATOM      7  N   UNL     1      -1.281  11.821  20.442  0.00  0.00    +0.000 NA
ATOM      8  C   UNL     1      -1.091  11.092  19.325  0.00  0.00    +0.000 A 
ATOM      9  N   UNL     1      -0.377   9.961  19.230  0.00  0.00    +0.000 NA
ATOM     10  C   UNL     1       0.195   9.620  20.391  0.00  0.00    +0.000 A 
ATOM     11  H   UNL     1      -0.070  12.191  23.424  0.00  0.00    +0.000 HD
ENDROOT
BRANCH   6  12
ATOM     12  C   UNL     1      -1.945  12.976  23.180  0.00  0.00    +0.000 A 
ATOM     13  C   UNL     1      -1.940  14.373  23.297  0.00  0.00    +0.000 A 
ATOM     14  C   UNL     1      -3.063  15.062  23.759  0.00  0.00    +0.000 A 
ATOM     15  C   UNL     1      -4.200  14.359  24.143  0.00  0.00    +0.000 A 
ATOM     16  C   UNL     1      -4.215  12.969  24.060  0.00  0.00    +0.000 A 
ATOM     17  C   UNL     1      -3.096  12.284  23.580  0.00  0.00    +0.000 A 
ENDBRANCH   6  12
BRANCH   1  18
ATOM     18  C   UNL     1       1.309   7.483  19.680  0.00  0.00    +0.000 C 
BRANCH  18  20
ATOM     19 CL   UNL     1       2.297   9.007  17.581  0.00  0.00    +0.000 Cl
ATOM     20  C   UNL     1       2.566   7.767  18.856  0.00  0.00    +0.000 C 
BRANCH  20  21
ATOM     21  C   UNL     1       3.090   6.502  18.194  0.00  0.00    +0.000 A 
ATOM     22  C   UNL     1       2.342   5.316  18.244  0.00  0.00    +0.000 A 
ATOM     23  C   UNL     1       2.808   4.154  17.624  0.00  0.00    +0.000 A 
ATOM     24  C   UNL     1       4.026   4.160  16.947  0.00  0.00    +0.000 A 
ATOM     25  C   UNL     1       4.785   5.326  16.897  0.00  0.00    +0.000 A 
ATOM     26  C   UNL     1       4.323   6.487  17.518  0.00  0.00    +0.000 A 
ENDBRANCH  20  21
ENDBRANCH  18  20
ENDBRANCH   1  18
BRANCH   8  27
ATOM     27  S   UNL     1      -1.800  11.683  17.801  0.00  0.00    +0.000 S 
BRANCH  27  28
ATOM     28  C   UNL     1      -3.374  10.745  17.763  0.00  0.00    +0.000 C 
BRANCH  28  29
ATOM     29  C   UNL     1      -4.543  11.526  18.391  0.00  0.00    +0.000 C 
BRANCH  29  30
ATOM     30  N   UNL     1      -5.879  11.223  17.826  0.00  0.00    +0.000 NA
ATOM     31  C   UNL     1      -6.576  12.483  17.459  0.00  0.00    +0.000 C 
ATOM     32  C   UNL     1      -7.065  13.302  18.670  0.00  0.00    +0.000 C 
ATOM     33  O   UNL     1      -7.916  12.523  19.520  0.00  0.00    +0.000 OA
ATOM     34  C   UNL     1      -7.250  11.328  19.950  0.00  0.00    +0.000 C 
ATOM     35  C   UNL     1      -6.770  10.490  18.755  0.00  0.00    +0.000 C 
ENDBRANCH  29  30
ENDBRANCH  28  29
ENDBRANCH  27  28
ENDBRANCH   8  27
TORSDOF 8
ENDMDL
