MODEL 1
REMARK VINA RESULT:      -6.4      0.000      0.000
REMARK  Name = 
REMARK  15 active torsions:
REMARK  status: ('A' for Active; 'I' for Inactive)
REMARK    1  A    between atoms: C_1  and  O_2
REMARK    2  A    between atoms: O_2  and  C_3
REMARK    3  A    between atoms: C_4  and  O_5
REMARK    4  A    between atoms: O_5  and  C_6
REMARK    5  A    between atoms: C_7  and  C_8
REMARK    6  A    between atoms: C_8  and  N_9
REMARK    7  A    between atoms: C_13  and  O_14
REMARK    8  A    between atoms: O_14  and  C_15
REMARK    9  A    between atoms: C_16  and  N_17
REMARK   10  A    between atoms: C_18  and  C_19
REMARK   11  A    between atoms: C_21  and  O_22
REMARK   12  A    between atoms: C_24  and  C_25
REMARK   13  A    between atoms: C_25  and  O_26
REMARK   14  A    between atoms: C_27  and  O_28
REMARK   15  A    between atoms: C_29  and  O_30
REMARK                            x       y       z     vdW  Elec       q    Type
REMARK                         _______ _______ _______ _____ _____    ______ ____
ROOT
ATOM      1  C   UNL     1      -3.140  12.347  18.716  0.00  0.00    +0.000 C 
ATOM      2  C   UNL     1      -4.071  11.806  17.594  0.00  0.00    +0.000 C 
ATOM      3  O   UNL     1      -3.938  10.382  17.442  0.00  0.00    +0.000 OA
ATOM      4  C   UNL     1      -2.639  10.008  16.980  0.00  0.00    +0.000 C 
ATOM      5  C   UNL     1      -1.566  10.457  18.005  0.00  0.00    +0.000 C 
ATOM      6  C   UNL     1      -1.679  11.960  18.363  0.00  0.00    +0.000 C 
ENDROOT
BRANCH   5   7
ATOM      7  N   UNL     1      -0.209  10.058  17.608  0.00  0.00    +0.000 N 
ATOM      8  C   UNL     1       0.700   9.666  18.560  0.00  0.00    +0.000 C 
ATOM      9  C   UNL     1       2.037   9.232  18.026  0.00  0.00    +0.000 C 
ATOM     10  O   UNL     1       0.449   9.632  19.758  0.00  0.00    +0.000 OA
ATOM     11  H   UNL     1       0.128  10.432  16.730  0.00  0.00    +0.000 HD
ENDBRANCH   5   7
BRANCH   4  12
ATOM     12  O   UNL     1      -2.394  10.498  15.657  0.00  0.00    +0.000 OA
ATOM     13  C   UNL     1      -3.330   9.962  14.721  0.00  0.00    +0.000 C 
ENDBRANCH   4  12
BRANCH   6  14
ATOM     14  O   UNL     1      -1.150  12.773  17.296  0.00  0.00    +0.000 OA
ATOM     15  H   UNL     1      -0.354  13.243  17.595  0.00  0.00    +0.000 HD
ENDBRANCH   6  14
BRANCH   1  16
ATOM     16  O   UNL     1      -3.588  11.832  19.981  0.00  0.00    +0.000 OA
BRANCH  16  18
ATOM     17  C   UNL     1      -4.654  13.182  21.735  0.00  0.00    +0.000 C 
ATOM     18  C   UNL     1      -3.318  12.647  21.135  0.00  0.00    +0.000 C 
ATOM     19  O   UNL     1      -2.594  11.904  22.113  0.00  0.00    +0.000 OA
ATOM     20  C   UNL     1      -2.257  12.612  23.321  0.00  0.00    +0.000 C 
ATOM     21  C   UNL     1      -3.511  13.185  24.007  0.00  0.00    +0.000 C 
ATOM     22  C   UNL     1      -4.337  14.002  23.005  0.00  0.00    +0.000 C 
BRANCH  17  24
ATOM     23  C   UNL     1      -6.811  12.176  21.428  0.00  0.00    +0.000 C 
ATOM     24  O   UNL     1      -5.568  12.126  22.121  0.00  0.00    +0.000 OA
ENDBRANCH  17  24
BRANCH  21  25
ATOM     25  O   UNL     1      -4.324  12.120  24.536  0.00  0.00    +0.000 OA
ATOM     26  H   UNL     1      -5.119  12.535  24.935  0.00  0.00    +0.000 HD
ENDBRANCH  21  25
BRANCH  22  27
ATOM     27  O   UNL     1      -5.552  14.439  23.629  0.00  0.00    +0.000 OA
ATOM     28  H   UNL     1      -6.153  14.656  22.885  0.00  0.00    +0.000 HD
ENDBRANCH  22  27
BRANCH  20  29
ATOM     29  C   UNL     1      -1.172  13.673  23.060  0.00  0.00    +0.000 C 
BRANCH  29  30
ATOM     30  O   UNL     1      -0.932  14.491  24.195  0.00  0.00    +0.000 OA
ATOM     31  H   UNL     1      -1.796  14.758  24.557  0.00  0.00    +0.000 HD
ENDBRANCH  29  30
ENDBRANCH  20  29
ENDBRANCH  16  18
ENDBRANCH   1  16
BRANCH   2  32
ATOM     32  C   UNL     1      -5.559  12.077  17.846  0.00  0.00    +0.000 C 
BRANCH  32  33
ATOM     33  N   UNL     1      -5.864  13.429  18.267  0.00  0.00    +0.000 N 
ATOM     34  C   UNL     1      -6.765  14.210  17.593  0.00  0.00    +0.000 C 
ATOM     35  O   UNL     1      -7.303  13.916  16.534  0.00  0.00    +0.000 OA
ATOM     36  H   UNL     1      -5.543  13.739  19.178  0.00  0.00    +0.000 HD
ENDBRANCH  32  33
ENDBRANCH   2  32
TORSDOF 12
ENDMDL
MODEL 2
REMARK VINA RESULT:      -6.0      1.154      1.299
REMARK  Name = 
REMARK  15 active torsions:
REMARK  status: ('A' for Active; 'I' for Inactive)
REMARK    1  A    between atoms: C_1  and  O_2
REMARK    2  A    between atoms: O_2  and  C_3
REMARK    3  A    between atoms: C_4  and  O_5
REMARK    4  A    between atoms: O_5  and  C_6
REMARK    5  A    between atoms: C_7  and  C_8
REMARK    6  A    between atoms: C_8  and  N_9
REMARK    7  A    between atoms: C_13  and  O_14
REMARK    8  A    between atoms: O_14  and  C_15
REMARK    9  A    between atoms: C_16  and  N_17
REMARK   10  A    between atoms: C_18  and  C_19
REMARK   11  A    between atoms: C_21  and  O_22
REMARK   12  A    between atoms: C_24  and  C_25
REMARK   13  A    between atoms: C_25  and  O_26
REMARK   14  A    between atoms: C_27  and  O_28
REMARK   15  A    between atoms: C_29  and  O_30
REMARK                            x       y       z     vdW  Elec       q    Type
REMARK                         _______ _______ _______ _____ _____    ______ ____
ROOT
ATOM      1  C   UNL     1      -2.991  12.430  18.952  0.00  0.00    +0.000 C 
ATOM      2  C   UNL     1      -3.994  11.883  17.897  0.00  0.00    +0.000 C 
ATOM      3  O   UNL     1      -3.870  10.458  17.743  0.00  0.00    +0.000 OA
ATOM      4  C   UNL     1      -2.605  10.082  17.198  0.00  0.00    +0.000 C 
ATOM      5  C   UNL     1      -1.467  10.536  18.148  0.00  0.00    +0.000 C 
ATOM      6  C   UNL     1      -1.556  12.041  18.506  0.00  0.00    +0.000 C 
ENDROOT
BRANCH   5   7
ATOM      7  N   UNL     1      -0.139  10.136  17.664  0.00  0.00    +0.000 N 
ATOM      8  C   UNL     1       0.808   9.679  18.548  0.00  0.00    +0.000 C 
ATOM      9  C   UNL     1       2.108   9.251  17.927  0.00  0.00    +0.000 C 
ATOM     10  O   UNL     1       0.615   9.586  19.754  0.00  0.00    +0.000 OA
ATOM     11  H   UNL     1       0.162  10.549  16.790  0.00  0.00    +0.000 HD
ENDBRANCH   5   7
BRANCH   4  12
ATOM     12  O   UNL     1      -2.448  10.566  15.859  0.00  0.00    +0.000 OA
ATOM     13  C   UNL     1      -3.367   9.935  14.967  0.00  0.00    +0.000 C 
ENDBRANCH   4  12
BRANCH   6  14
ATOM     14  O   UNL     1      -1.100  12.849  17.402  0.00  0.00    +0.000 OA
ATOM     15  H   UNL     1      -0.879  13.744  17.709  0.00  0.00    +0.000 HD
ENDBRANCH   6  14
BRANCH   1  16
ATOM     16  O   UNL     1      -3.355  11.920  20.247  0.00  0.00    +0.000 OA
BRANCH  16  18
ATOM     17  C   UNL     1      -4.470  13.380  21.877  0.00  0.00    +0.000 C 
ATOM     18  C   UNL     1      -3.119  12.793  21.366  0.00  0.00    +0.000 C 
ATOM     19  O   UNL     1      -2.450  12.093  22.413  0.00  0.00    +0.000 OA
ATOM     20  C   UNL     1      -2.153  12.861  23.594  0.00  0.00    +0.000 C 
ATOM     21  C   UNL     1      -3.424  13.489  24.194  0.00  0.00    +0.000 C 
ATOM     22  C   UNL     1      -4.192  14.264  23.115  0.00  0.00    +0.000 C 
BRANCH  17  24
ATOM     23  C   UNL     1      -6.743  12.614  21.825  0.00  0.00    +0.000 C 
ATOM     24  O   UNL     1      -5.418  12.361  22.280  0.00  0.00    +0.000 OA
ENDBRANCH  17  24
BRANCH  21  25
ATOM     25  O   UNL     1      -4.278  12.468  24.743  0.00  0.00    +0.000 OA
ATOM     26  H   UNL     1      -5.189  12.654  24.431  0.00  0.00    +0.000 HD
ENDBRANCH  21  25
BRANCH  22  27
ATOM     27  O   UNL     1      -5.425  14.752  23.660  0.00  0.00    +0.000 OA
ATOM     28  H   UNL     1      -5.457  15.698  23.404  0.00  0.00    +0.000 HD
ENDBRANCH  22  27
BRANCH  20  29
ATOM     29  C   UNL     1      -1.039  13.889  23.323  0.00  0.00    +0.000 C 
BRANCH  29  30
ATOM     30  O   UNL     1      -0.842  14.773  24.417  0.00  0.00    +0.000 OA
ATOM     31  H   UNL     1      -1.552  15.440  24.392  0.00  0.00    +0.000 HD
ENDBRANCH  29  30
ENDBRANCH  20  29
ENDBRANCH  16  18
ENDBRANCH   1  16
BRANCH   2  32
ATOM     32  C   UNL     1      -5.462  12.155  18.245  0.00  0.00    +0.000 C 
BRANCH  32  33
ATOM     33  N   UNL     1      -6.391  11.146  17.781  0.00  0.00    +0.000 N 
ATOM     34  C   UNL     1      -6.986  10.260  18.640  0.00  0.00    +0.000 C 
ATOM     35  O   UNL     1      -6.722  10.142  19.829  0.00  0.00    +0.000 OA
ATOM     36  H   UNL     1      -6.745  11.210  16.833  0.00  0.00    +0.000 HD
ENDBRANCH  32  33
ENDBRANCH   2  32
TORSDOF 12
ENDMDL
MODEL 3
REMARK VINA RESULT:      -5.8      3.221      6.763
REMARK  Name = 
REMARK  15 active torsions:
REMARK  status: ('A' for Active; 'I' for Inactive)
REMARK    1  A    between atoms: C_1  and  O_2
REMARK    2  A    between atoms: O_2  and  C_3
REMARK    3  A    between atoms: C_4  and  O_5
REMARK    4  A    between atoms: O_5  and  C_6
REMARK    5  A    between atoms: C_7  and  C_8
REMARK    6  A    between atoms: C_8  and  N_9
REMARK    7  A    between atoms: C_13  and  O_14
REMARK    8  A    between atoms: O_14  and  C_15
REMARK    9  A    between atoms: C_16  and  N_17
REMARK   10  A    between atoms: C_18  and  C_19
REMARK   11  A    between atoms: C_21  and  O_22
REMARK   12  A    between atoms: C_24  and  C_25
REMARK   13  A    between atoms: C_25  and  O_26
REMARK   14  A    between atoms: C_27  and  O_28
REMARK   15  A    between atoms: C_29  and  O_30
REMARK                            x       y       z     vdW  Elec       q    Type
REMARK                         _______ _______ _______ _____ _____    ______ ____
ROOT
ATOM      1  C   UNL     1       0.169  11.787  18.927  0.00  0.00    +0.000 C 
ATOM      2  C   UNL     1       1.006  11.456  20.195  0.00  0.00    +0.000 C 
ATOM      3  O   UNL     1       0.968  12.534  21.146  0.00  0.00    +0.000 OA
ATOM      4  C   UNL     1       1.602  13.714  20.651  0.00  0.00    +0.000 C 
ATOM      5  C   UNL     1       0.870  14.208  19.376  0.00  0.00    +0.000 C 
ATOM      6  C   UNL     1       0.724  13.097  18.306  0.00  0.00    +0.000 C 
ENDROOT
BRANCH   5   7
ATOM      7  N   UNL     1       1.449  15.450  18.843  0.00  0.00    +0.000 N 
ATOM      8  C   UNL     1       0.631  16.500  18.504  0.00  0.00    +0.000 C 
ATOM      9  C   UNL     1       1.342  17.732  18.020  0.00  0.00    +0.000 C 
ATOM     10  O   UNL     1      -0.589  16.467  18.613  0.00  0.00    +0.000 OA
ATOM     11  H   UNL     1       2.354  15.366  18.398  0.00  0.00    +0.000 HD
ENDBRANCH   5   7
BRANCH   4  12
ATOM     12  O   UNL     1       3.005  13.509  20.452  0.00  0.00    +0.000 OA
ATOM     13  C   UNL     1       3.778  14.241  21.403  0.00  0.00    +0.000 C 
ENDBRANCH   4  12
BRANCH   6  14
ATOM     14  O   UNL     1       1.979  12.881  17.630  0.00  0.00    +0.000 OA
ATOM     15  H   UNL     1       2.619  13.567  17.882  0.00  0.00    +0.000 HD
ENDBRANCH   6  14
BRANCH   1  16
ATOM     16  O   UNL     1      -1.220  11.861  19.294  0.00  0.00    +0.000 OA
BRANCH  16  18
ATOM     17  C   UNL     1      -3.576  11.216  19.033  0.00  0.00    +0.000 C 
ATOM     18  C   UNL     1      -2.152  11.231  18.397  0.00  0.00    +0.000 C 
ATOM     19  O   UNL     1      -2.172  11.907  17.142  0.00  0.00    +0.000 OA
ATOM     20  C   UNL     1      -3.068  11.369  16.151  0.00  0.00    +0.000 C 
ATOM     21  C   UNL     1      -4.516  11.311  16.670  0.00  0.00    +0.000 C 
ATOM     22  C   UNL     1      -4.565  10.590  18.024  0.00  0.00    +0.000 C 
BRANCH  17  24
ATOM     23  C   UNL     1      -4.255  12.747  20.751  0.00  0.00    +0.000 C 
ATOM     24  O   UNL     1      -4.070  12.540  19.355  0.00  0.00    +0.000 OA
ENDBRANCH  17  24
BRANCH  21  25
ATOM     25  O   UNL     1      -5.048  12.641  16.822  0.00  0.00    +0.000 OA
ATOM     26  H   UNL     1      -4.449  13.249  16.339  0.00  0.00    +0.000 HD
ENDBRANCH  21  25
BRANCH  22  27
ATOM     27  O   UNL     1      -5.900  10.637  18.545  0.00  0.00    +0.000 OA
ATOM     28  H   UNL     1      -5.827  11.145  19.380  0.00  0.00    +0.000 HD
ENDBRANCH  22  27
BRANCH  20  29
ATOM     29  C   UNL     1      -2.561  10.015  15.619  0.00  0.00    +0.000 C 
BRANCH  29  30
ATOM     30  O   UNL     1      -2.587   9.948  14.201  0.00  0.00    +0.000 OA
ATOM     31  H   UNL     1      -3.104  10.707  13.877  0.00  0.00    +0.000 HD
ENDBRANCH  29  30
ENDBRANCH  20  29
ENDBRANCH  16  18
ENDBRANCH   1  16
BRANCH   2  32
ATOM     32  C   UNL     1       0.526  10.204  20.939  0.00  0.00    +0.000 C 
BRANCH  32  33
ATOM     33  N   UNL     1      -0.651  10.403  21.759  0.00  0.00    +0.000 N 
ATOM     34  C   UNL     1      -0.633  10.191  23.113  0.00  0.00    +0.000 C 
ATOM     35  O   UNL     1       0.302   9.715  23.742  0.00  0.00    +0.000 OA
ATOM     36  H   UNL     1      -1.451  10.878  21.356  0.00  0.00    +0.000 HD
ENDBRANCH  32  33
ENDBRANCH   2  32
TORSDOF 12
ENDMDL
MODEL 4
REMARK VINA RESULT:      -5.8      1.504      2.664
REMARK  Name = 
REMARK  15 active torsions:
REMARK  status: ('A' for Active; 'I' for Inactive)
REMARK    1  A    between atoms: C_1  and  O_2
REMARK    2  A    between atoms: O_2  and  C_3
REMARK    3  A    between atoms: C_4  and  O_5
REMARK    4  A    between atoms: O_5  and  C_6
REMARK    5  A    between atoms: C_7  and  C_8
REMARK    6  A    between atoms: C_8  and  N_9
REMARK    7  A    between atoms: C_13  and  O_14
REMARK    8  A    between atoms: O_14  and  C_15
REMARK    9  A    between atoms: C_16  and  N_17
REMARK   10  A    between atoms: C_18  and  C_19
REMARK   11  A    between atoms: C_21  and  O_22
REMARK   12  A    between atoms: C_24  and  C_25
REMARK   13  A    between atoms: C_25  and  O_26
REMARK   14  A    between atoms: C_27  and  O_28
REMARK   15  A    between atoms: C_29  and  O_30
REMARK                            x       y       z     vdW  Elec       q    Type
REMARK                         _______ _______ _______ _____ _____    ______ ____
ROOT
ATOM      1  C   UNL     1      -2.906  12.440  19.107  0.00  0.00    +0.000 C 
ATOM      2  C   UNL     1      -3.926  11.869  18.082  0.00  0.00    +0.000 C 
ATOM      3  O   UNL     1      -3.781  10.446  17.931  0.00  0.00    +0.000 OA
ATOM      4  C   UNL     1      -2.524  10.090  17.354  0.00  0.00    +0.000 C 
ATOM      5  C   UNL     1      -1.369  10.570  18.270  0.00  0.00    +0.000 C 
ATOM      6  C   UNL     1      -1.477  12.075  18.623  0.00  0.00    +0.000 C 
ENDROOT
BRANCH   5   7
ATOM      7  N   UNL     1      -0.047  10.192  17.752  0.00  0.00    +0.000 N 
ATOM      8  C   UNL     1       0.887   9.634  18.590  0.00  0.00    +0.000 C 
ATOM      9  C   UNL     1       2.181   9.242  17.932  0.00  0.00    +0.000 C 
ATOM     10  O   UNL     1       0.689   9.431  19.781  0.00  0.00    +0.000 OA
ATOM     11  H   UNL     1       0.265  10.682  16.923  0.00  0.00    +0.000 HD
ENDBRANCH   5   7
BRANCH   4  12
ATOM     12  O   UNL     1      -2.412  10.571  16.009  0.00  0.00    +0.000 OA
ATOM     13  C   UNL     1      -3.157   9.757  15.102  0.00  0.00    +0.000 C 
ENDBRANCH   4  12
BRANCH   6  14
ATOM     14  O   UNL     1      -1.065  12.886  17.504  0.00  0.00    +0.000 OA
ATOM     15  H   UNL     1      -0.095  12.927  17.457  0.00  0.00    +0.000 HD
ENDBRANCH   6  14
BRANCH   1  16
ATOM     16  O   UNL     1      -3.224  11.930  20.413  0.00  0.00    +0.000 OA
BRANCH  16  18
ATOM     17  C   UNL     1      -3.568  12.486  22.781  0.00  0.00    +0.000 C 
ATOM     18  C   UNL     1      -3.913  12.829  21.300  0.00  0.00    +0.000 C 
ATOM     19  O   UNL     1      -3.567  14.181  21.006  0.00  0.00    +0.000 OA
ATOM     20  C   UNL     1      -4.194  15.185  21.826  0.00  0.00    +0.000 C 
ATOM     21  C   UNL     1      -3.915  14.948  23.322  0.00  0.00    +0.000 C 
ATOM     22  C   UNL     1      -4.271  13.505  23.706  0.00  0.00    +0.000 C 
BRANCH  17  24
ATOM     23  C   UNL     1      -1.531  11.276  23.160  0.00  0.00    +0.000 C 
ATOM     24  O   UNL     1      -2.148  12.555  23.066  0.00  0.00    +0.000 OA
ENDBRANCH  17  24
BRANCH  21  25
ATOM     25  O   UNL     1      -2.526  15.188  23.617  0.00  0.00    +0.000 OA
ATOM     26  H   UNL     1      -2.402  15.025  24.577  0.00  0.00    +0.000 HD
ENDBRANCH  21  25
BRANCH  22  27
ATOM     27  O   UNL     1      -3.907  13.269  25.072  0.00  0.00    +0.000 OA
ATOM     28  H   UNL     1      -3.370  14.048  25.329  0.00  0.00    +0.000 HD
ENDBRANCH  22  27
BRANCH  20  29
ATOM     29  C   UNL     1      -5.695  15.308  21.503  0.00  0.00    +0.000 C 
BRANCH  29  30
ATOM     30  O   UNL     1      -5.937  15.448  20.111  0.00  0.00    +0.000 OA
ATOM     31  H   UNL     1      -5.078  15.569  19.670  0.00  0.00    +0.000 HD
ENDBRANCH  29  30
ENDBRANCH  20  29
ENDBRANCH  16  18
ENDBRANCH   1  16
BRANCH   2  32
ATOM     32  C   UNL     1      -5.389  12.116  18.469  0.00  0.00    +0.000 C 
BRANCH  32  33
ATOM     33  N   UNL     1      -6.231  10.938  18.431  0.00  0.00    +0.000 N 
ATOM     34  C   UNL     1      -6.892  10.485  19.543  0.00  0.00    +0.000 C 
ATOM     35  O   UNL     1      -6.758  10.930  20.675  0.00  0.00    +0.000 OA
ATOM     36  H   UNL     1      -6.480  10.546  17.530  0.00  0.00    +0.000 HD
ENDBRANCH  32  33
ENDBRANCH   2  32
TORSDOF 12
ENDMDL
MODEL 5
REMARK VINA RESULT:      -5.7      3.732      8.706
REMARK  Name = 
REMARK  15 active torsions:
REMARK  status: ('A' for Active; 'I' for Inactive)
REMARK    1  A    between atoms: C_1  and  O_2
REMARK    2  A    between atoms: O_2  and  C_3
REMARK    3  A    between atoms: C_4  and  O_5
REMARK    4  A    between atoms: O_5  and  C_6
REMARK    5  A    between atoms: C_7  and  C_8
REMARK    6  A    between atoms: C_8  and  N_9
REMARK    7  A    between atoms: C_13  and  O_14
REMARK    8  A    between atoms: O_14  and  C_15
REMARK    9  A    between atoms: C_16  and  N_17
REMARK   10  A    between atoms: C_18  and  C_19
REMARK   11  A    between atoms: C_21  and  O_22
REMARK   12  A    between atoms: C_24  and  C_25
REMARK   13  A    between atoms: C_25  and  O_26
REMARK   14  A    between atoms: C_27  and  O_28
REMARK   15  A    between atoms: C_29  and  O_30
REMARK                            x       y       z     vdW  Elec       q    Type
REMARK                         _______ _______ _______ _____ _____    ______ ____
ROOT
ATOM      1  C   UNL     1       1.655   9.226  19.329  0.00  0.00    +0.000 C 
ATOM      2  C   UNL     1       0.910   9.820  20.557  0.00  0.00    +0.000 C 
ATOM      3  O   UNL     1      -0.502   9.555  20.495  0.00  0.00    +0.000 OA
ATOM      4  C   UNL     1      -1.128  10.218  19.397  0.00  0.00    +0.000 C 
ATOM      5  C   UNL     1      -0.514   9.721  18.062  0.00  0.00    +0.000 C 
ATOM      6  C   UNL     1       1.032   9.830  18.043  0.00  0.00    +0.000 C 
ENDROOT
BRANCH   5   7
ATOM      7  N   UNL     1      -1.151  10.335  16.889  0.00  0.00    +0.000 N 
ATOM      8  C   UNL     1      -2.482  10.112  16.633  0.00  0.00    +0.000 C 
ATOM      9  C   UNL     1      -3.031  10.835  15.435  0.00  0.00    +0.000 C 
ATOM     10  O   UNL     1      -3.195   9.407  17.336  0.00  0.00    +0.000 OA
ATOM     11  H   UNL     1      -0.536  10.579  16.123  0.00  0.00    +0.000 HD
ENDBRANCH   5   7
BRANCH   4  12
ATOM     12  O   UNL     1      -1.074  11.641  19.547  0.00  0.00    +0.000 OA
ATOM     13  C   UNL     1      -2.377  12.195  19.732  0.00  0.00    +0.000 C 
ENDBRANCH   4  12
BRANCH   6  14
ATOM     14  O   UNL     1       1.437  11.199  17.842  0.00  0.00    +0.000 OA
ATOM     15  H   UNL     1       1.768  11.322  16.936  0.00  0.00    +0.000 HD
ENDBRANCH   6  14
BRANCH   1  16
ATOM     16  O   UNL     1       1.582   7.790  19.391  0.00  0.00    +0.000 OA
BRANCH  16  18
ATOM     17  C   UNL     1       2.773   5.672  19.747  0.00  0.00    +0.000 C 
ATOM     18  C   UNL     1       2.786   7.075  19.065  0.00  0.00    +0.000 C 
ATOM     19  O   UNL     1       2.922   6.942  17.652  0.00  0.00    +0.000 OA
ATOM     20  C   UNL     1       4.094   6.243  17.194  0.00  0.00    +0.000 C 
ATOM     21  C   UNL     1       4.184   4.832  17.803  0.00  0.00    +0.000 C 
ATOM     22  C   UNL     1       4.048   4.904  19.330  0.00  0.00    +0.000 C 
BRANCH  17  24
ATOM     23  C   UNL     1       0.958   4.278  20.467  0.00  0.00    +0.000 C 
ATOM     24  O   UNL     1       1.636   4.861  19.359  0.00  0.00    +0.000 OA
ENDBRANCH  17  24
BRANCH  21  25
ATOM     25  O   UNL     1       3.143   3.989  17.274  0.00  0.00    +0.000 OA
ATOM     26  H   UNL     1       2.818   3.432  18.013  0.00  0.00    +0.000 HD
ENDBRANCH  21  25
BRANCH  22  27
ATOM     27  O   UNL     1       4.026   3.577  19.873  0.00  0.00    +0.000 OA
ATOM     28  H   UNL     1       3.119   3.248  19.699  0.00  0.00    +0.000 HD
ENDBRANCH  22  27
BRANCH  20  29
ATOM     29  C   UNL     1       5.366   7.082  17.419  0.00  0.00    +0.000 C 
BRANCH  29  30
ATOM     30  O   UNL     1       6.358   6.834  16.435  0.00  0.00    +0.000 OA
ATOM     31  H   UNL     1       7.221   7.080  16.814  0.00  0.00    +0.000 HD
ENDBRANCH  29  30
ENDBRANCH  20  29
ENDBRANCH  16  18
ENDBRANCH   1  16
BRANCH   2  32
ATOM     32  C   UNL     1       1.397   9.264  21.900  0.00  0.00    +0.000 C 
BRANCH  32  33
ATOM     33  N   UNL     1       0.341   8.887  22.817  0.00  0.00    +0.000 N 
ATOM     34  C   UNL     1      -0.479   9.819  23.398  0.00  0.00    +0.000 C 
ATOM     35  O   UNL     1      -0.345  11.031  23.310  0.00  0.00    +0.000 OA
ATOM     36  H   UNL     1       0.088   7.908  22.892  0.00  0.00    +0.000 HD
ENDBRANCH  32  33
ENDBRANCH   2  32
TORSDOF 12
ENDMDL
MODEL 6
REMARK VINA RESULT:      -5.7      1.296      2.386
REMARK  Name = 
REMARK  15 active torsions:
REMARK  status: ('A' for Active; 'I' for Inactive)
REMARK    1  A    between atoms: C_1  and  O_2
REMARK    2  A    between atoms: O_2  and  C_3
REMARK    3  A    between atoms: C_4  and  O_5
REMARK    4  A    between atoms: O_5  and  C_6
REMARK    5  A    between atoms: C_7  and  C_8
REMARK    6  A    between atoms: C_8  and  N_9
REMARK    7  A    between atoms: C_13  and  O_14
REMARK    8  A    between atoms: O_14  and  C_15
REMARK    9  A    between atoms: C_16  and  N_17
REMARK   10  A    between atoms: C_18  and  C_19
REMARK   11  A    between atoms: C_21  and  O_22
REMARK   12  A    between atoms: C_24  and  C_25
REMARK   13  A    between atoms: C_25  and  O_26
REMARK   14  A    between atoms: C_27  and  O_28
REMARK   15  A    between atoms: C_29  and  O_30
REMARK                            x       y       z     vdW  Elec       q    Type
REMARK                         _______ _______ _______ _____ _____    ______ ____
ROOT
ATOM      1  C   UNL     1      -2.962  12.407  19.002  0.00  0.00    +0.000 C 
ATOM      2  C   UNL     1      -3.963  11.828  17.963  0.00  0.00    +0.000 C 
ATOM      3  O   UNL     1      -3.812  10.404  17.824  0.00  0.00    +0.000 OA
ATOM      4  C   UNL     1      -2.544  10.048  17.271  0.00  0.00    +0.000 C 
ATOM      5  C   UNL     1      -1.407  10.536  18.205  0.00  0.00    +0.000 C 
ATOM      6  C   UNL     1      -1.524  12.043  18.546  0.00  0.00    +0.000 C 
ENDROOT
BRANCH   5   7
ATOM      7  N   UNL     1      -0.075  10.158  17.711  0.00  0.00    +0.000 N 
ATOM      8  C   UNL     1       0.859   9.642  18.577  0.00  0.00    +0.000 C 
ATOM      9  C   UNL     1       2.163   9.244  17.945  0.00  0.00    +0.000 C 
ATOM     10  O   UNL     1       0.651   9.478  19.773  0.00  0.00    +0.000 OA
ATOM     11  H   UNL     1       0.238  10.621  16.868  0.00  0.00    +0.000 HD
ENDBRANCH   5   7
BRANCH   4  12
ATOM     12  O   UNL     1      -2.411  10.520  15.925  0.00  0.00    +0.000 OA
ATOM     13  C   UNL     1      -3.249   9.787  15.031  0.00  0.00    +0.000 C 
ENDBRANCH   4  12
BRANCH   6  14
ATOM     14  O   UNL     1      -1.094  12.847  17.429  0.00  0.00    +0.000 OA
ATOM     15  H   UNL     1      -1.549  12.565  16.617  0.00  0.00    +0.000 HD
ENDBRANCH   6  14
BRANCH   1  16
ATOM     16  O   UNL     1      -3.302  11.905  20.306  0.00  0.00    +0.000 OA
BRANCH  16  18
ATOM     17  C   UNL     1      -3.594  12.515  22.668  0.00  0.00    +0.000 C 
ATOM     18  C   UNL     1      -3.977  12.820  21.187  0.00  0.00    +0.000 C 
ATOM     19  O   UNL     1      -3.649  14.167  20.854  0.00  0.00    +0.000 OA
ATOM     20  C   UNL     1      -4.266  15.185  21.664  0.00  0.00    +0.000 C 
ATOM     21  C   UNL     1      -3.950  14.986  23.158  0.00  0.00    +0.000 C 
ATOM     22  C   UNL     1      -4.285  13.551  23.584  0.00  0.00    +0.000 C 
BRANCH  17  24
ATOM     23  C   UNL     1      -1.563  11.337  23.158  0.00  0.00    +0.000 C 
ATOM     24  O   UNL     1      -2.170  12.602  22.917  0.00  0.00    +0.000 OA
ENDBRANCH  17  24
BRANCH  21  25
ATOM     25  O   UNL     1      -2.556  15.244  23.414  0.00  0.00    +0.000 OA
ATOM     26  H   UNL     1      -2.269  14.615  24.111  0.00  0.00    +0.000 HD
ENDBRANCH  21  25
BRANCH  22  27
ATOM     27  O   UNL     1      -3.886  13.349  24.946  0.00  0.00    +0.000 OA
ATOM     28  H   UNL     1      -3.075  13.889  25.055  0.00  0.00    +0.000 HD
ENDBRANCH  22  27
BRANCH  20  29
ATOM     29  C   UNL     1      -5.775  15.289  21.373  0.00  0.00    +0.000 C 
BRANCH  29  30
ATOM     30  O   UNL     1      -6.047  15.464  19.991  0.00  0.00    +0.000 OA
ATOM     31  H   UNL     1      -6.926  15.085  19.810  0.00  0.00    +0.000 HD
ENDBRANCH  29  30
ENDBRANCH  20  29
ENDBRANCH  16  18
ENDBRANCH   1  16
BRANCH   2  32
ATOM     32  C   UNL     1      -5.433  12.074  18.323  0.00  0.00    +0.000 C 
BRANCH  32  33
ATOM     33  N   UNL     1      -6.322  12.193  17.186  0.00  0.00    +0.000 N 
ATOM     34  C   UNL     1      -6.847  13.399  16.802  0.00  0.00    +0.000 C 
ATOM     35  O   UNL     1      -6.731  14.449  17.418  0.00  0.00    +0.000 OA
ATOM     36  H   UNL     1      -6.415  11.404  16.556  0.00  0.00    +0.000 HD
ENDBRANCH  32  33
ENDBRANCH   2  32
TORSDOF 12
ENDMDL
MODEL 7
REMARK VINA RESULT:      -5.6      8.858     12.144
REMARK  Name = 
REMARK  15 active torsions:
REMARK  status: ('A' for Active; 'I' for Inactive)
REMARK    1  A    between atoms: C_1  and  O_2
REMARK    2  A    between atoms: O_2  and  C_3
REMARK    3  A    between atoms: C_4  and  O_5
REMARK    4  A    between atoms: O_5  and  C_6
REMARK    5  A    between atoms: C_7  and  C_8
REMARK    6  A    between atoms: C_8  and  N_9
REMARK    7  A    between atoms: C_13  and  O_14
REMARK    8  A    between atoms: O_14  and  C_15
REMARK    9  A    between atoms: C_16  and  N_17
REMARK   10  A    between atoms: C_18  and  C_19
REMARK   11  A    between atoms: C_21  and  O_22
REMARK   12  A    between atoms: C_24  and  C_25
REMARK   13  A    between atoms: C_25  and  O_26
REMARK   14  A    between atoms: C_27  and  O_28
REMARK   15  A    between atoms: C_29  and  O_30
REMARK                            x       y       z     vdW  Elec       q    Type
REMARK                         _______ _______ _______ _____ _____    ______ ____
ROOT
ATOM      1  C   UNL     1       5.840   4.850  16.905  0.00  0.00    +0.000 C 
ATOM      2  C   UNL     1       6.329   6.207  16.323  0.00  0.00    +0.000 C 
ATOM      3  O   UNL     1       5.777   6.448  15.017  0.00  0.00    +0.000 OA
ATOM      4  C   UNL     1       6.245   5.506  14.051  0.00  0.00    +0.000 C 
ATOM      5  C   UNL     1       5.821   4.073  14.466  0.00  0.00    +0.000 C 
ATOM      6  C   UNL     1       6.243   3.724  15.916  0.00  0.00    +0.000 C 
ENDROOT
BRANCH   5   7
ATOM      7  N   UNL     1       6.235   3.059  13.485  0.00  0.00    +0.000 N 
ATOM      8  C   UNL     1       5.536   2.911  12.312  0.00  0.00    +0.000 C 
ATOM      9  C   UNL     1       6.086   1.880  11.367  0.00  0.00    +0.000 C 
ATOM     10  O   UNL     1       4.555   3.584  12.022  0.00  0.00    +0.000 OA
ATOM     11  H   UNL     1       6.761   2.275  13.847  0.00  0.00    +0.000 HD
ENDBRANCH   5   7
BRANCH   4  12
ATOM     12  O   UNL     1       7.655   5.636  13.835  0.00  0.00    +0.000 OA
ATOM     13  C   UNL     1       7.968   5.668  12.442  0.00  0.00    +0.000 C 
ENDBRANCH   4  12
BRANCH   6  14
ATOM     14  O   UNL     1       7.654   3.436  15.974  0.00  0.00    +0.000 OA
ATOM     15  H   UNL     1       8.102   3.792  15.188  0.00  0.00    +0.000 HD
ENDBRANCH   6  14
BRANCH   1  16
ATOM     16  O   UNL     1       4.425   4.931  17.148  0.00  0.00    +0.000 OA
BRANCH  16  18
ATOM     17  C   UNL     1       3.311   5.111  19.331  0.00  0.00    +0.000 C 
ATOM     18  C   UNL     1       3.922   4.162  18.255  0.00  0.00    +0.000 C 
ATOM     19  O   UNL     1       2.948   3.221  17.808  0.00  0.00    +0.000 OA
ATOM     20  C   UNL     1       2.367   2.383  18.825  0.00  0.00    +0.000 C 
ATOM     21  C   UNL     1       1.725   3.220  19.946  0.00  0.00    +0.000 C 
ATOM     22  C   UNL     1       2.726   4.255  20.476  0.00  0.00    +0.000 C 
BRANCH  17  24
ATOM     23  C   UNL     1       2.545   7.326  18.818  0.00  0.00    +0.000 C 
ATOM     24  O   UNL     1       2.237   5.936  18.817  0.00  0.00    +0.000 OA
ENDBRANCH  17  24
BRANCH  21  25
ATOM     25  O   UNL     1       0.554   3.901  19.456  0.00  0.00    +0.000 OA
ATOM     26  H   UNL     1      -0.119   3.215  19.259  0.00  0.00    +0.000 HD
ENDBRANCH  21  25
BRANCH  22  27
ATOM     27  O   UNL     1       2.082   5.095  21.443  0.00  0.00    +0.000 OA
ATOM     28  H   UNL     1       1.122   4.952  21.301  0.00  0.00    +0.000 HD
ENDBRANCH  22  27
BRANCH  20  29
ATOM     29  C   UNL     1       3.386   1.353  19.346  0.00  0.00    +0.000 C 
BRANCH  29  30
ATOM     30  O   UNL     1       4.044   0.665  18.293  0.00  0.00    +0.000 OA
ATOM     31  H   UNL     1       3.523   0.795  17.481  0.00  0.00    +0.000 HD
ENDBRANCH  29  30
ENDBRANCH  20  29
ENDBRANCH  16  18
ENDBRANCH   1  16
BRANCH   2  32
ATOM     32  C   UNL     1       5.948   7.417  17.184  0.00  0.00    +0.000 C 
BRANCH  32  33
ATOM     33  N   UNL     1       7.001   8.398  17.347  0.00  0.00    +0.000 N 
ATOM     34  C   UNL     1       8.136   8.128  18.067  0.00  0.00    +0.000 C 
ATOM     35  O   UNL     1       8.330   7.117  18.727  0.00  0.00    +0.000 OA
ATOM     36  H   UNL     1       6.982   9.233  16.772  0.00  0.00    +0.000 HD
ENDBRANCH  32  33
ENDBRANCH   2  32
TORSDOF 12
ENDMDL
MODEL 8
REMARK VINA RESULT:      -5.6      2.194      3.150
REMARK  Name = 
REMARK  15 active torsions:
REMARK  status: ('A' for Active; 'I' for Inactive)
REMARK    1  A    between atoms: C_1  and  O_2
REMARK    2  A    between atoms: O_2  and  C_3
REMARK    3  A    between atoms: C_4  and  O_5
REMARK    4  A    between atoms: O_5  and  C_6
REMARK    5  A    between atoms: C_7  and  C_8
REMARK    6  A    between atoms: C_8  and  N_9
REMARK    7  A    between atoms: C_13  and  O_14
REMARK    8  A    between atoms: O_14  and  C_15
REMARK    9  A    between atoms: C_16  and  N_17
REMARK   10  A    between atoms: C_18  and  C_19
REMARK   11  A    between atoms: C_21  and  O_22
REMARK   12  A    between atoms: C_24  and  C_25
REMARK   13  A    between atoms: C_25  and  O_26
REMARK   14  A    between atoms: C_27  and  O_28
REMARK   15  A    between atoms: C_29  and  O_30
REMARK                            x       y       z     vdW  Elec       q    Type
REMARK                         _______ _______ _______ _____ _____    ______ ____
ROOT
ATOM      1  C   UNL     1      -2.562  12.352  19.527  0.00  0.00    +0.000 C 
ATOM      2  C   UNL     1      -2.337  11.552  18.213  0.00  0.00    +0.000 C 
ATOM      3  O   UNL     1      -2.042  10.170  18.483  0.00  0.00    +0.000 OA
ATOM      4  C   UNL     1      -0.799  10.007  19.166  0.00  0.00    +0.000 C 
ATOM      5  C   UNL     1      -0.851  10.736  20.534  0.00  0.00    +0.000 C 
ATOM      6  C   UNL     1      -1.288  12.217  20.402  0.00  0.00    +0.000 C 
ENDROOT
BRANCH   5   7
ATOM      7  N   UNL     1       0.387  10.566  21.307  0.00  0.00    +0.000 N 
ATOM      8  C   UNL     1       0.490   9.552  22.228  0.00  0.00    +0.000 C 
ATOM      9  C   UNL     1       1.822   9.448  22.918  0.00  0.00    +0.000 C 
ATOM     10  O   UNL     1      -0.413   8.758  22.460  0.00  0.00    +0.000 OA
ATOM     11  H   UNL     1       0.963  11.391  21.417  0.00  0.00    +0.000 HD
ENDBRANCH   5   7
BRANCH   4  12
ATOM     12  O   UNL     1       0.304  10.419  18.350  0.00  0.00    +0.000 OA
ATOM     13  C   UNL     1       1.107   9.305  17.959  0.00  0.00    +0.000 C 
ENDBRANCH   4  12
BRANCH   6  14
ATOM     14  O   UNL     1      -0.201  13.019  19.898  0.00  0.00    +0.000 OA
ATOM     15  H   UNL     1       0.440  12.460  19.428  0.00  0.00    +0.000 HD
ENDBRANCH   6  14
BRANCH   1  16
ATOM     16  O   UNL     1      -3.759  11.872  20.165  0.00  0.00    +0.000 OA
BRANCH  16  18
ATOM     17  C   UNL     1      -5.880  12.794  20.993  0.00  0.00    +0.000 C 
ATOM     18  C   UNL     1      -4.332  12.725  21.171  0.00  0.00    +0.000 C 
ATOM     19  O   UNL     1      -3.999  12.253  22.474  0.00  0.00    +0.000 OA
ATOM     20  C   UNL     1      -4.514  13.026  23.575  0.00  0.00    +0.000 C 
ATOM     21  C   UNL     1      -6.046  13.157  23.505  0.00  0.00    +0.000 C 
ATOM     22  C   UNL     1      -6.473  13.666  22.122  0.00  0.00    +0.000 C 
BRANCH  17  24
ATOM     23  C   UNL     1      -7.156  11.109  19.857  0.00  0.00    +0.000 C 
ATOM     24  O   UNL     1      -6.519  11.496  21.070  0.00  0.00    +0.000 OA
ENDBRANCH  17  24
BRANCH  21  25
ATOM     25  O   UNL     1      -6.671  11.883  23.755  0.00  0.00    +0.000 OA
ATOM     26  H   UNL     1      -7.465  11.833  23.181  0.00  0.00    +0.000 HD
ENDBRANCH  21  25
BRANCH  22  27
ATOM     27  O   UNL     1      -7.904  13.681  22.036  0.00  0.00    +0.000 OA
ATOM     28  H   UNL     1      -8.104  14.235  21.253  0.00  0.00    +0.000 HD
ENDBRANCH  22  27
BRANCH  20  29
ATOM     29  C   UNL     1      -3.795  14.383  23.686  0.00  0.00    +0.000 C 
BRANCH  29  30
ATOM     30  O   UNL     1      -3.976  14.988  24.957  0.00  0.00    +0.000 OA
ATOM     31  H   UNL     1      -3.103  15.278  25.276  0.00  0.00    +0.000 HD
ENDBRANCH  29  30
ENDBRANCH  20  29
ENDBRANCH  16  18
ENDBRANCH   1  16
BRANCH   2  32
ATOM     32  C   UNL     1      -3.548  11.560  17.273  0.00  0.00    +0.000 C 
BRANCH  32  33
ATOM     33  N   UNL     1      -3.221  11.647  15.865  0.00  0.00    +0.000 N 
ATOM     34  C   UNL     1      -3.073  10.529  15.086  0.00  0.00    +0.000 C 
ATOM     35  O   UNL     1      -3.078   9.377  15.496  0.00  0.00    +0.000 OA
ATOM     36  H   UNL     1      -3.280  12.550  15.407  0.00  0.00    +0.000 HD
ENDBRANCH  32  33
ENDBRANCH   2  32
TORSDOF 12
ENDMDL
MODEL 9
REMARK VINA RESULT:      -5.4      2.537      6.175
REMARK  Name = 
REMARK  15 active torsions:
REMARK  status: ('A' for Active; 'I' for Inactive)
REMARK    1  A    between atoms: C_1  and  O_2
REMARK    2  A    between atoms: O_2  and  C_3
REMARK    3  A    between atoms: C_4  and  O_5
REMARK    4  A    between atoms: O_5  and  C_6
REMARK    5  A    between atoms: C_7  and  C_8
REMARK    6  A    between atoms: C_8  and  N_9
REMARK    7  A    between atoms: C_13  and  O_14
REMARK    8  A    between atoms: O_14  and  C_15
REMARK    9  A    between atoms: C_16  and  N_17
REMARK   10  A    between atoms: C_18  and  C_19
REMARK   11  A    between atoms: C_21  and  O_22
REMARK   12  A    between atoms: C_24  and  C_25
REMARK   13  A    between atoms: C_25  and  O_26
REMARK   14  A    between atoms: C_27  and  O_28
REMARK   15  A    between atoms: C_29  and  O_30
REMARK                            x       y       z     vdW  Elec       q    Type
REMARK                         _______ _______ _______ _____ _____    ______ ____
ROOT
ATOM      1  C   UNL     1      -3.212  12.600  22.317  0.00  0.00    +0.000 C 
ATOM      2  C   UNL     1      -3.577  13.543  23.498  0.00  0.00    +0.000 C 
ATOM      3  O   UNL     1      -3.066  14.871  23.289  0.00  0.00    +0.000 OA
ATOM      4  C   UNL     1      -1.639  14.907  23.289  0.00  0.00    +0.000 C 
ATOM      5  C   UNL     1      -1.091  14.022  22.139  0.00  0.00    +0.000 C 
ATOM      6  C   UNL     1      -1.667  12.584  22.168  0.00  0.00    +0.000 C 
ENDROOT
BRANCH   5   7
ATOM      7  N   UNL     1       0.377  14.054  22.058  0.00  0.00    +0.000 N 
ATOM      8  C   UNL     1       0.999  14.016  20.834  0.00  0.00    +0.000 C 
ATOM      9  C   UNL     1       2.499  14.107  20.878  0.00  0.00    +0.000 C 
ATOM     10  O   UNL     1       0.394  13.948  19.772  0.00  0.00    +0.000 OA
ATOM     11  H   UNL     1       0.877  13.729  22.875  0.00  0.00    +0.000 HD
ENDBRANCH   5   7
BRANCH   4  12
ATOM     12  O   UNL     1      -1.108  14.555  24.572  0.00  0.00    +0.000 OA
ATOM     13  C   UNL     1      -1.256  15.624  25.507  0.00  0.00    +0.000 C 
ENDBRANCH   4  12
BRANCH   6  14
ATOM     14  O   UNL     1      -1.035  11.809  23.207  0.00  0.00    +0.000 OA
ATOM     15  H   UNL     1      -1.673  11.188  23.598  0.00  0.00    +0.000 HD
ENDBRANCH   6  14
BRANCH   1  16
ATOM     16  O   UNL     1      -3.905  13.044  21.137  0.00  0.00    +0.000 OA
BRANCH  16  18
ATOM     17  C   UNL     1      -5.489  11.964  19.601  0.00  0.00    +0.000 C 
ATOM     18  C   UNL     1      -4.005  12.095  20.061  0.00  0.00    +0.000 C 
ATOM     19  O   UNL     1      -3.176  12.489  18.969  0.00  0.00    +0.000 OA
ATOM     20  C   UNL     1      -3.185  11.616  17.824  0.00  0.00    +0.000 C 
ATOM     21  C   UNL     1      -4.611  11.417  17.277  0.00  0.00    +0.000 C 
ATOM     22  C   UNL     1      -5.556  10.986  18.406  0.00  0.00    +0.000 C 
BRANCH  17  24
ATOM     23  C   UNL     1      -7.100  13.694  20.013  0.00  0.00    +0.000 C 
ATOM     24  O   UNL     1      -6.062  13.221  19.162  0.00  0.00    +0.000 OA
ENDBRANCH  17  24
BRANCH  21  25
ATOM     25  O   UNL     1      -5.098  12.638  16.690  0.00  0.00    +0.000 OA
ATOM     26  H   UNL     1      -4.421  13.329  16.854  0.00  0.00    +0.000 HD
ENDBRANCH  21  25
BRANCH  22  27
ATOM     27  O   UNL     1      -6.897  10.909  17.906  0.00  0.00    +0.000 OA
ATOM     28  H   UNL     1      -6.799  10.754  16.942  0.00  0.00    +0.000 HD
ENDBRANCH  22  27
BRANCH  20  29
ATOM     29  C   UNL     1      -2.463  10.291  18.129  0.00  0.00    +0.000 C 
BRANCH  29  30
ATOM     30  O   UNL     1      -1.292  10.121  17.344  0.00  0.00    +0.000 OA
ATOM     31  H   UNL     1      -0.613   9.708  17.908  0.00  0.00    +0.000 HD
ENDBRANCH  29  30
ENDBRANCH  20  29
ENDBRANCH  16  18
ENDBRANCH   1  16
BRANCH   2  32
ATOM     32  C   UNL     1      -5.087  13.691  23.723  0.00  0.00    +0.000 C 
BRANCH  32  33
ATOM     33  N   UNL     1      -5.871  12.535  23.338  0.00  0.00    +0.000 N 
ATOM     34  C   UNL     1      -7.190  12.407  23.688  0.00  0.00    +0.000 C 
ATOM     35  O   UNL     1      -7.799  13.159  24.436  0.00  0.00    +0.000 OA
ATOM     36  H   UNL     1      -5.491  11.898  22.647  0.00  0.00    +0.000 HD
ENDBRANCH  32  33
ENDBRANCH   2  32
TORSDOF 12
ENDMDL
