MODEL 1
REMARK VINA RESULT:      -7.1      0.000      0.000
REMARK  Name = 
REMARK  3 active torsions:
REMARK  status: ('A' for Active; 'I' for Inactive)
REMARK    1  A    between atoms: C_2  and  C_3
REMARK    2  A    between atoms: C_3  and  C_4
REMARK    3  A    between atoms: C_7  and  N_8
REMARK                            x       y       z     vdW  Elec       q    Type
REMARK                         _______ _______ _______ _____ _____    ______ ____
ROOT
ATOM      1  C   UNL     1       3.933   5.085  18.336  0.00  0.00    +0.000 A 
ATOM      2  C   UNL     1       3.681   6.271  17.635  0.00  0.00    +0.000 A 
ATOM      3  C   UNL     1       2.901   7.283  18.201  0.00  0.00    +0.000 A 
ATOM      4  C   UNL     1       2.361   7.117  19.483  0.00  0.00    +0.000 A 
ATOM      5  C   UNL     1       2.595   5.922  20.180  0.00  0.00    +0.000 A 
ATOM      6  C   UNL     1       3.372   4.912  19.607  0.00  0.00    +0.000 A 
ENDROOT
BRANCH   4   7
ATOM      7  N   UNL     1       1.590   8.138  20.086  0.00  0.00    +0.000 N 
ATOM      8  C   UNL     1       1.075   8.211  21.357  0.00  0.00    +0.000 A 
ATOM      9  N   UNL     1       0.385   9.320  21.485  0.00  0.00    +0.000 NA
ATOM     10  N   UNL     1       0.479   9.957  20.276  0.00  0.00    +0.000 NA
ATOM     11  N   UNL     1       1.213   9.256  19.423  0.00  0.00    +0.000 NA
ENDBRANCH   4   7
BRANCH   1  12
ATOM     12  C   UNL     1       4.785   3.998  17.716  0.00  0.00    +0.000 C 
BRANCH  12  14
ATOM     13  O   UNL     1       6.791   5.201  17.240  0.00  0.00    +0.000 OA
ATOM     14  C   UNL     1       5.876   4.520  16.792  0.00  0.00    +0.000 C 
ATOM     15  N   UNL     1       5.690   4.166  15.473  0.00  0.00    +0.000 N 
ATOM     16  C   UNL     1       6.554   4.566  14.491  0.00  0.00    +0.000 A 
ATOM     17  N   UNL     1       7.567   5.396  14.536  0.00  0.00    +0.000 NA
ATOM     18  N   UNL     1       8.188   5.519  13.305  0.00  0.00    +0.000 NA
ATOM     19  C   UNL     1       7.612   4.765  12.394  0.00  0.00    +0.000 A 
ATOM     20  S   UNL     1       6.259   3.872  12.957  0.00  0.00    +0.000 S 
ATOM     21  H   UNL     1       4.960   3.520  15.210  0.00  0.00    +0.000 HD
ENDBRANCH  12  14
ENDBRANCH   1  12
TORSDOF 3
ENDMDL
MODEL 2
REMARK VINA RESULT:      -7.1      5.050      7.900
REMARK  Name = 
REMARK  3 active torsions:
REMARK  status: ('A' for Active; 'I' for Inactive)
REMARK    1  A    between atoms: C_2  and  C_3
REMARK    2  A    between atoms: C_3  and  C_4
REMARK    3  A    between atoms: C_7  and  N_8
REMARK                            x       y       z     vdW  Elec       q    Type
REMARK                         _______ _______ _______ _____ _____    ______ ____
ROOT
ATOM      1  C   UNL     1       2.244   8.119  18.596  0.00  0.00    +0.000 A 
ATOM      2  C   UNL     1       2.878   7.076  17.909  0.00  0.00    +0.000 A 
ATOM      3  C   UNL     1       3.055   5.828  18.511  0.00  0.00    +0.000 A 
ATOM      4  C   UNL     1       2.596   5.609  19.817  0.00  0.00    +0.000 A 
ATOM      5  C   UNL     1       1.978   6.658  20.515  0.00  0.00    +0.000 A 
ATOM      6  C   UNL     1       1.808   7.905  19.910  0.00  0.00    +0.000 A 
ENDROOT
BRANCH   4   7
ATOM      7  N   UNL     1       2.740   4.346  20.437  0.00  0.00    +0.000 N 
ATOM      8  C   UNL     1       2.127   3.848  21.560  0.00  0.00    +0.000 A 
ATOM      9  N   UNL     1       2.585   2.642  21.808  0.00  0.00    +0.000 NA
ATOM     10  N   UNL     1       3.491   2.378  20.816  0.00  0.00    +0.000 NA
ATOM     11  N   UNL     1       3.588   3.398  19.975  0.00  0.00    +0.000 NA
ENDBRANCH   4   7
BRANCH   1  12
ATOM     12  C   UNL     1       2.053   9.466  17.931  0.00  0.00    +0.000 C 
BRANCH  12  14
ATOM     13  O   UNL     1       0.804  10.923  19.353  0.00  0.00    +0.000 OA
ATOM     14  C   UNL     1       0.789  10.195  18.366  0.00  0.00    +0.000 C 
ATOM     15  N   UNL     1      -0.301   9.923  17.567  0.00  0.00    +0.000 N 
ATOM     16  C   UNL     1      -1.530  10.465  17.818  0.00  0.00    +0.000 A 
ATOM     17  N   UNL     1      -1.955  11.179  18.832  0.00  0.00    +0.000 NA
ATOM     18  N   UNL     1      -3.284  11.537  18.690  0.00  0.00    +0.000 NA
ATOM     19  C   UNL     1      -3.792  11.080  17.567  0.00  0.00    +0.000 A 
ATOM     20  S   UNL     1      -2.703  10.159  16.612  0.00  0.00    +0.000 S 
ATOM     21  H   UNL     1      -0.197   9.387  16.718  0.00  0.00    +0.000 HD
ENDBRANCH  12  14
ENDBRANCH   1  12
TORSDOF 3
ENDMDL
MODEL 3
REMARK VINA RESULT:      -7.0      3.615      8.021
REMARK  Name = 
REMARK  3 active torsions:
REMARK  status: ('A' for Active; 'I' for Inactive)
REMARK    1  A    between atoms: C_2  and  C_3
REMARK    2  A    between atoms: C_3  and  C_4
REMARK    3  A    between atoms: C_7  and  N_8
REMARK                            x       y       z     vdW  Elec       q    Type
REMARK                         _______ _______ _______ _____ _____    ______ ____
ROOT
ATOM      1  C   UNL     1       2.546   6.613  19.511  0.00  0.00    +0.000 A 
ATOM      2  C   UNL     1       2.815   7.293  18.316  0.00  0.00    +0.000 A 
ATOM      3  C   UNL     1       3.934   6.969  17.546  0.00  0.00    +0.000 A 
ATOM      4  C   UNL     1       4.803   5.954  17.967  0.00  0.00    +0.000 A 
ATOM      5  C   UNL     1       4.548   5.284  19.173  0.00  0.00    +0.000 A 
ATOM      6  C   UNL     1       3.429   5.616  19.941  0.00  0.00    +0.000 A 
ENDROOT
BRANCH   4   7
ATOM      7  N   UNL     1       5.928   5.590  17.190  0.00  0.00    +0.000 N 
ATOM      8  C   UNL     1       6.868   4.615  17.415  0.00  0.00    +0.000 A 
ATOM      9  N   UNL     1       7.767   4.647  16.458  0.00  0.00    +0.000 NA
ATOM     10  N   UNL     1       7.376   5.653  15.615  0.00  0.00    +0.000 NA
ATOM     11  N   UNL     1       6.260   6.226  16.042  0.00  0.00    +0.000 NA
ENDBRANCH   4   7
BRANCH   1  12
ATOM     12  C   UNL     1       1.326   6.969  20.334  0.00  0.00    +0.000 C 
BRANCH  12  14
ATOM     13  O   UNL     1       1.800   8.587  22.025  0.00  0.00    +0.000 OA
ATOM     14  C   UNL     1       1.354   8.381  20.902  0.00  0.00    +0.000 C 
ATOM     15  N   UNL     1       0.825   9.324  20.047  0.00  0.00    +0.000 N 
ATOM     16  C   UNL     1       0.740  10.644  20.394  0.00  0.00    +0.000 A 
ATOM     17  N   UNL     1       0.985  11.241  21.534  0.00  0.00    +0.000 NA
ATOM     18  N   UNL     1       0.778  12.607  21.456  0.00  0.00    +0.000 NA
ATOM     19  C   UNL     1       0.394  12.971  20.252  0.00  0.00    +0.000 A 
ATOM     20  S   UNL     1       0.231  11.680  19.133  0.00  0.00    +0.000 S 
ATOM     21  H   UNL     1       0.570   9.078  19.101  0.00  0.00    +0.000 HD
ENDBRANCH  12  14
ENDBRANCH   1  12
TORSDOF 3
ENDMDL
MODEL 4
REMARK VINA RESULT:      -7.0      1.052      1.260
REMARK  Name = 
REMARK  3 active torsions:
REMARK  status: ('A' for Active; 'I' for Inactive)
REMARK    1  A    between atoms: C_2  and  C_3
REMARK    2  A    between atoms: C_3  and  C_4
REMARK    3  A    between atoms: C_7  and  N_8
REMARK                            x       y       z     vdW  Elec       q    Type
REMARK                         _______ _______ _______ _____ _____    ______ ____
ROOT
ATOM      1  C   UNL     1       2.877   5.730  18.850  0.00  0.00    +0.000 A 
ATOM      2  C   UNL     1       2.762   6.964  18.198  0.00  0.00    +0.000 A 
ATOM      3  C   UNL     1       2.147   8.050  18.827  0.00  0.00    +0.000 A 
ATOM      4  C   UNL     1       1.639   7.911  20.124  0.00  0.00    +0.000 A 
ATOM      5  C   UNL     1       1.736   6.671  20.774  0.00  0.00    +0.000 A 
ATOM      6  C   UNL     1       2.347   5.587  20.138  0.00  0.00    +0.000 A 
ENDROOT
BRANCH   4   7
ATOM      7  N   UNL     1       1.037   9.004  20.792  0.00  0.00    +0.000 N 
ATOM      8  C   UNL     1       1.107   9.368  22.113  0.00  0.00    +0.000 A 
ATOM      9  N   UNL     1       0.359  10.429  22.313  0.00  0.00    +0.000 NA
ATOM     10  N   UNL     1      -0.180  10.739  21.093  0.00  0.00    +0.000 NA
ATOM     11  N   UNL     1       0.229   9.888  20.161  0.00  0.00    +0.000 NA
ENDBRANCH   4   7
BRANCH   1  12
ATOM     12  C   UNL     1       3.551   4.562  18.161  0.00  0.00    +0.000 C 
BRANCH  12  14
ATOM     13  O   UNL     1       5.732   5.527  18.055  0.00  0.00    +0.000 OA
ATOM     14  C   UNL     1       4.848   4.926  17.454  0.00  0.00    +0.000 C 
ATOM     15  N   UNL     1       4.878   4.537  16.132  0.00  0.00    +0.000 N 
ATOM     16  C   UNL     1       5.952   4.802  15.327  0.00  0.00    +0.000 A 
ATOM     17  N   UNL     1       7.024   5.522  15.549  0.00  0.00    +0.000 NA
ATOM     18  N   UNL     1       7.877   5.526  14.459  0.00  0.00    +0.000 NA
ATOM     19  C   UNL     1       7.405   4.798  13.471  0.00  0.00    +0.000 A 
ATOM     20  S   UNL     1       5.878   4.076  13.781  0.00  0.00    +0.000 S 
ATOM     21  H   UNL     1       4.144   3.961  15.747  0.00  0.00    +0.000 HD
ENDBRANCH  12  14
ENDBRANCH   1  12
TORSDOF 3
ENDMDL
MODEL 5
REMARK VINA RESULT:      -7.0      0.689      1.337
REMARK  Name = 
REMARK  3 active torsions:
REMARK  status: ('A' for Active; 'I' for Inactive)
REMARK    1  A    between atoms: C_2  and  C_3
REMARK    2  A    between atoms: C_3  and  C_4
REMARK    3  A    between atoms: C_7  and  N_8
REMARK                            x       y       z     vdW  Elec       q    Type
REMARK                         _______ _______ _______ _____ _____    ______ ____
ROOT
ATOM      1  C   UNL     1       3.910   5.707  18.318  0.00  0.00    +0.000 A 
ATOM      2  C   UNL     1       3.189   5.666  19.518  0.00  0.00    +0.000 A 
ATOM      3  C   UNL     1       2.343   6.717  19.880  0.00  0.00    +0.000 A 
ATOM      4  C   UNL     1       2.208   7.828  19.037  0.00  0.00    +0.000 A 
ATOM      5  C   UNL     1       2.943   7.882  17.843  0.00  0.00    +0.000 A 
ATOM      6  C   UNL     1       3.792   6.830  17.490  0.00  0.00    +0.000 A 
ENDROOT
BRANCH   4   7
ATOM      7  N   UNL     1       1.336   8.893  19.369  0.00  0.00    +0.000 N 
ATOM      8  C   UNL     1       0.733   9.189  20.567  0.00  0.00    +0.000 A 
ATOM      9  N   UNL     1      -0.031  10.246  20.420  0.00  0.00    +0.000 NA
ATOM     10  N   UNL     1       0.105  10.624  19.110  0.00  0.00    +0.000 NA
ATOM     11  N   UNL     1       0.936   9.817  18.466  0.00  0.00    +0.000 NA
ENDBRANCH   4   7
BRANCH   1  12
ATOM     12  C   UNL     1       4.820   4.559  17.934  0.00  0.00    +0.000 C 
BRANCH  12  14
ATOM     13  O   UNL     1       6.854   5.628  17.289  0.00  0.00    +0.000 OA
ATOM     14  C   UNL     1       5.904   4.939  16.936  0.00  0.00    +0.000 C 
ATOM     15  N   UNL     1       5.672   4.454  15.667  0.00  0.00    +0.000 N 
ATOM     16  C   UNL     1       6.525   4.715  14.630  0.00  0.00    +0.000 A 
ATOM     17  N   UNL     1       7.567   5.505  14.564  0.00  0.00    +0.000 NA
ATOM     18  N   UNL     1       8.161   5.473  13.314  0.00  0.00    +0.000 NA
ATOM     19  C   UNL     1       7.536   4.650  12.501  0.00  0.00    +0.000 A 
ATOM     20  S   UNL     1       6.166   3.873  13.185  0.00  0.00    +0.000 S 
ATOM     21  H   UNL     1       4.913   3.812  15.490  0.00  0.00    +0.000 HD
ENDBRANCH  12  14
ENDBRANCH   1  12
TORSDOF 3
ENDMDL
MODEL 6
REMARK VINA RESULT:      -7.0      5.100      7.997
REMARK  Name = 
REMARK  3 active torsions:
REMARK  status: ('A' for Active; 'I' for Inactive)
REMARK    1  A    between atoms: C_2  and  C_3
REMARK    2  A    between atoms: C_3  and  C_4
REMARK    3  A    between atoms: C_7  and  N_8
REMARK                            x       y       z     vdW  Elec       q    Type
REMARK                         _______ _______ _______ _____ _____    ______ ____
ROOT
ATOM      1  C   UNL     1       2.124   8.326  18.629  0.00  0.00    +0.000 A 
ATOM      2  C   UNL     1       1.652   8.067  19.922  0.00  0.00    +0.000 A 
ATOM      3  C   UNL     1       1.823   6.809  20.506  0.00  0.00    +0.000 A 
ATOM      4  C   UNL     1       2.473   5.791  19.797  0.00  0.00    +0.000 A 
ATOM      5  C   UNL     1       2.930   6.041  18.494  0.00  0.00    +0.000 A 
ATOM      6  C   UNL     1       2.752   7.299  17.913  0.00  0.00    +0.000 A 
ENDROOT
BRANCH   4   7
ATOM      7  N   UNL     1       2.682   4.517  20.378  0.00  0.00    +0.000 N 
ATOM      8  C   UNL     1       2.112   3.963  21.497  0.00  0.00    +0.000 A 
ATOM      9  N   UNL     1       2.624   2.771  21.701  0.00  0.00    +0.000 NA
ATOM     10  N   UNL     1       3.521   2.573  20.685  0.00  0.00    +0.000 NA
ATOM     11  N   UNL     1       3.560   3.620  19.873  0.00  0.00    +0.000 NA
ENDBRANCH   4   7
BRANCH   1  12
ATOM     12  C   UNL     1       1.939   9.695  18.008  0.00  0.00    +0.000 C 
BRANCH  12  14
ATOM     13  O   UNL     1       0.559  11.117  19.340  0.00  0.00    +0.000 OA
ATOM     14  C   UNL     1       0.622  10.365  18.374  0.00  0.00    +0.000 C 
ATOM     15  N   UNL     1      -0.419  10.014  17.541  0.00  0.00    +0.000 N 
ATOM     16  C   UNL     1      -1.685  10.496  17.730  0.00  0.00    +0.000 A 
ATOM     17  N   UNL     1      -2.187  11.210  18.706  0.00  0.00    +0.000 NA
ATOM     18  N   UNL     1      -3.526  11.493  18.504  0.00  0.00    +0.000 NA
ATOM     19  C   UNL     1      -3.964  10.981  17.374  0.00  0.00    +0.000 A 
ATOM     20  S   UNL     1      -2.790  10.097  16.488  0.00  0.00    +0.000 S 
ATOM     21  H   UNL     1      -0.253   9.464  16.711  0.00  0.00    +0.000 HD
ENDBRANCH  12  14
ENDBRANCH   1  12
TORSDOF 3
ENDMDL
MODEL 7
REMARK VINA RESULT:      -7.0      1.196      1.394
REMARK  Name = 
REMARK  3 active torsions:
REMARK  status: ('A' for Active; 'I' for Inactive)
REMARK    1  A    between atoms: C_2  and  C_3
REMARK    2  A    between atoms: C_3  and  C_4
REMARK    3  A    between atoms: C_7  and  N_8
REMARK                            x       y       z     vdW  Elec       q    Type
REMARK                         _______ _______ _______ _____ _____    ______ ____
ROOT
ATOM      1  C   UNL     1       2.849   5.253  18.847  0.00  0.00    +0.000 A 
ATOM      2  C   UNL     1       2.791   6.586  18.423  0.00  0.00    +0.000 A 
ATOM      3  C   UNL     1       2.191   7.564  19.220  0.00  0.00    +0.000 A 
ATOM      4  C   UNL     1       1.638   7.215  20.459  0.00  0.00    +0.000 A 
ATOM      5  C   UNL     1       1.677   5.877  20.879  0.00  0.00    +0.000 A 
ATOM      6  C   UNL     1       2.275   4.902  20.075  0.00  0.00    +0.000 A 
ENDROOT
BRANCH   4   7
ATOM      7  N   UNL     1       1.049   8.193  21.295  0.00  0.00    +0.000 N 
ATOM      8  C   UNL     1      -0.269   8.549  21.429  0.00  0.00    +0.000 A 
ATOM      9  N   UNL     1      -0.369   9.536  22.291  0.00  0.00    +0.000 NA
ATOM     10  N   UNL     1       0.910   9.792  22.710  0.00  0.00    +0.000 NA
ATOM     11  N   UNL     1       1.777   8.981  22.121  0.00  0.00    +0.000 NA
ENDBRANCH   4   7
BRANCH   1  12
ATOM     12  C   UNL     1       3.507   4.202  17.977  0.00  0.00    +0.000 C 
BRANCH  12  14
ATOM     13  O   UNL     1       5.628   5.299  17.970  0.00  0.00    +0.000 OA
ATOM     14  C   UNL     1       4.802   4.665  17.324  0.00  0.00    +0.000 C 
ATOM     15  N   UNL     1       4.896   4.317  15.993  0.00  0.00    +0.000 N 
ATOM     16  C   UNL     1       5.976   4.669  15.232  0.00  0.00    +0.000 A 
ATOM     17  N   UNL     1       6.995   5.445  15.509  0.00  0.00    +0.000 NA
ATOM     18  N   UNL     1       7.880   5.532  14.448  0.00  0.00    +0.000 NA
ATOM     19  C   UNL     1       7.484   4.807  13.425  0.00  0.00    +0.000 A 
ATOM     20  S   UNL     1       5.996   3.986  13.665  0.00  0.00    +0.000 S 
ATOM     21  H   UNL     1       4.211   3.709  15.569  0.00  0.00    +0.000 HD
ENDBRANCH  12  14
ENDBRANCH   1  12
TORSDOF 3
ENDMDL
MODEL 8
REMARK VINA RESULT:      -6.9      2.549      7.469
REMARK  Name = 
REMARK  3 active torsions:
REMARK  status: ('A' for Active; 'I' for Inactive)
REMARK    1  A    between atoms: C_2  and  C_3
REMARK    2  A    between atoms: C_3  and  C_4
REMARK    3  A    between atoms: C_7  and  N_8
REMARK                            x       y       z     vdW  Elec       q    Type
REMARK                         _______ _______ _______ _____ _____    ______ ____
ROOT
ATOM      1  C   UNL     1       4.392   3.989  18.402  0.00  0.00    +0.000 A 
ATOM      2  C   UNL     1       5.664   4.567  18.497  0.00  0.00    +0.000 A 
ATOM      3  C   UNL     1       6.427   4.807  17.352  0.00  0.00    +0.000 A 
ATOM      4  C   UNL     1       5.921   4.469  16.090  0.00  0.00    +0.000 A 
ATOM      5  C   UNL     1       4.655   3.872  15.993  0.00  0.00    +0.000 A 
ATOM      6  C   UNL     1       3.899   3.629  17.142  0.00  0.00    +0.000 A 
ENDROOT
BRANCH   4   7
ATOM      7  N   UNL     1       6.664   4.727  14.914  0.00  0.00    +0.000 N 
ATOM      8  C   UNL     1       6.532   4.186  13.660  0.00  0.00    +0.000 A 
ATOM      9  N   UNL     1       7.460   4.681  12.872  0.00  0.00    +0.000 NA
ATOM     10  N   UNL     1       8.177   5.554  13.646  0.00  0.00    +0.000 NA
ATOM     11  N   UNL     1       7.700   5.598  14.882  0.00  0.00    +0.000 NA
ENDBRANCH   4   7
BRANCH   1  12
ATOM     12  C   UNL     1       3.571   3.739  19.650  0.00  0.00    +0.000 C 
BRANCH  12  14
ATOM     13  O   UNL     1       2.509   5.018  21.363  0.00  0.00    +0.000 OA
ATOM     14  C   UNL     1       2.884   4.982  20.197  0.00  0.00    +0.000 C 
ATOM     15  N   UNL     1       2.730   5.978  19.256  0.00  0.00    +0.000 N 
ATOM     16  C   UNL     1       2.110   7.160  19.555  0.00  0.00    +0.000 A 
ATOM     17  N   UNL     1       1.468   7.535  20.633  0.00  0.00    +0.000 NA
ATOM     18  N   UNL     1       0.992   8.830  20.526  0.00  0.00    +0.000 NA
ATOM     19  C   UNL     1       1.309   9.369  19.369  0.00  0.00    +0.000 A 
ATOM     20  S   UNL     1       2.186   8.336  18.316  0.00  0.00    +0.000 S 
ATOM     21  H   UNL     1       3.157   5.898  18.345  0.00  0.00    +0.000 HD
ENDBRANCH  12  14
ENDBRANCH   1  12
TORSDOF 3
ENDMDL
MODEL 9
REMARK VINA RESULT:      -6.9      2.616      7.480
REMARK  Name = 
REMARK  3 active torsions:
REMARK  status: ('A' for Active; 'I' for Inactive)
REMARK    1  A    between atoms: C_2  and  C_3
REMARK    2  A    between atoms: C_3  and  C_4
REMARK    3  A    between atoms: C_7  and  N_8
REMARK                            x       y       z     vdW  Elec       q    Type
REMARK                         _______ _______ _______ _____ _____    ______ ____
ROOT
ATOM      1  C   UNL     1       4.342   3.926  18.471  0.00  0.00    +0.000 A 
ATOM      2  C   UNL     1       3.819   3.626  17.207  0.00  0.00    +0.000 A 
ATOM      3  C   UNL     1       4.548   3.904  16.048  0.00  0.00    +0.000 A 
ATOM      4  C   UNL     1       5.817   4.490  16.143  0.00  0.00    +0.000 A 
ATOM      5  C   UNL     1       6.336   4.811  17.407  0.00  0.00    +0.000 A 
ATOM      6  C   UNL     1       5.600   4.534  18.562  0.00  0.00    +0.000 A 
ENDROOT
BRANCH   4   7
ATOM      7  N   UNL     1       6.585   4.757  14.985  0.00  0.00    +0.000 N 
ATOM      8  C   UNL     1       6.472   4.235  13.721  0.00  0.00    +0.000 A 
ATOM      9  N   UNL     1       7.419   4.730  12.958  0.00  0.00    +0.000 NA
ATOM     10  N   UNL     1       8.130   5.585  13.757  0.00  0.00    +0.000 NA
ATOM     11  N   UNL     1       7.631   5.617  14.985  0.00  0.00    +0.000 NA
ENDBRANCH   4   7
BRANCH   1  12
ATOM     12  C   UNL     1       3.545   3.614  19.721  0.00  0.00    +0.000 C 
BRANCH  12  14
ATOM     13  O   UNL     1       2.437   4.793  21.476  0.00  0.00    +0.000 OA
ATOM     14  C   UNL     1       2.835   4.821  20.318  0.00  0.00    +0.000 C 
ATOM     15  N   UNL     1       2.693   5.865  19.429  0.00  0.00    +0.000 N 
ATOM     16  C   UNL     1       2.056   7.024  19.777  0.00  0.00    +0.000 A 
ATOM     17  N   UNL     1       1.389   7.336  20.860  0.00  0.00    +0.000 NA
ATOM     18  N   UNL     1       0.903   8.632  20.811  0.00  0.00    +0.000 NA
ATOM     19  C   UNL     1       1.239   9.234  19.692  0.00  0.00    +0.000 A 
ATOM     20  S   UNL     1       2.147   8.265  18.604  0.00  0.00    +0.000 S 
ATOM     21  H   UNL     1       3.138   5.837  18.523  0.00  0.00    +0.000 HD
ENDBRANCH  12  14
ENDBRANCH   1  12
TORSDOF 3
ENDMDL
