MODEL 1
REMARK VINA RESULT:      -7.9      0.000      0.000
REMARK  Name = 
REMARK  3 active torsions:
REMARK  status: ('A' for Active; 'I' for Inactive)
REMARK    1  A    between atoms: C_4  and  C_5
REMARK    2  A    between atoms: N_12  and  N_13
REMARK    3  A    between atoms: C_14  and  C_15
REMARK                            x       y       z     vdW  Elec       q    Type
REMARK                         _______ _______ _______ _____ _____    ______ ____
ROOT
ATOM      1  N   UNL     1       6.423   4.853  19.228  0.00  0.00    +0.000 N 
ATOM      2  C   UNL     1       6.098   5.006  17.930  0.00  0.00    +0.000 A 
ATOM      3  N   UNL     1       6.761   4.522  16.907  0.00  0.00    +0.000 NA
ATOM      4  C   UNL     1       6.082   4.968  15.796  0.00  0.00    +0.000 A 
ATOM      5  C   UNL     1       4.973   5.700  16.163  0.00  0.00    +0.000 A 
ATOM      6  N   UNL     1       4.972   5.734  17.532  0.00  0.00    +0.000 N 
ATOM      7  H   UNL     1       7.087   4.124  19.458  0.00  0.00    +0.000 HD
ATOM      8  H   UNL     1       5.713   5.041  19.929  0.00  0.00    +0.000 HD
ENDROOT
BRANCH   4   9
ATOM      9  C   UNL     1       6.501   4.717  14.426  0.00  0.00    +0.000 A 
ATOM     10  C   UNL     1       5.848   3.761  13.654  0.00  0.00    +0.000 A 
ATOM     11  C   UNL     1       6.297   3.524  12.358  0.00  0.00    +0.000 A 
ATOM     12  C   UNL     1       7.381   4.247  11.872  0.00  0.00    +0.000 A 
ATOM     13  C   UNL     1       7.971   5.183  12.705  0.00  0.00    +0.000 A 
ATOM     14  N   UNL     1       7.560   5.435  13.966  0.00  0.00    +0.000 NA
ENDBRANCH   4   9
BRANCH   6  15
ATOM     15  N   UNL     1       4.099   6.329  18.414  0.00  0.00    +0.000 NA
ATOM     16  C   UNL     1       3.298   7.228  17.946  0.00  0.00    +0.000 C 
BRANCH  16  17
ATOM     17  C   UNL     1       2.330   7.926  18.821  0.00  0.00    +0.000 A 
ATOM     18  C   UNL     1       1.682   9.088  18.390  0.00  0.00    +0.000 A 
ATOM     19  C   UNL     1       0.793   9.745  19.244  0.00  0.00    +0.000 A 
ATOM     20  C   UNL     1       0.557   9.239  20.522  0.00  0.00    +0.000 A 
ATOM     21 CL   UNL     1      -0.521  10.061  21.581  0.00  0.00    +0.000 Cl
ATOM     22  C   UNL     1       1.194   8.073  20.952  0.00  0.00    +0.000 A 
ATOM     23  C   UNL     1       2.081   7.412  20.098  0.00  0.00    +0.000 A 
ENDBRANCH  16  17
ENDBRANCH   6  15
TORSDOF 3
ENDMDL
MODEL 2
REMARK VINA RESULT:      -7.7      0.169      1.070
REMARK  Name = 
REMARK  3 active torsions:
REMARK  status: ('A' for Active; 'I' for Inactive)
REMARK    1  A    between atoms: C_4  and  C_5
REMARK    2  A    between atoms: N_12  and  N_13
REMARK    3  A    between atoms: C_14  and  C_15
REMARK                            x       y       z     vdW  Elec       q    Type
REMARK                         _______ _______ _______ _____ _____    ______ ____
ROOT
ATOM      1  N   UNL     1       6.325   4.782  19.221  0.00  0.00    +0.000 N 
ATOM      2  C   UNL     1       6.070   5.029  17.922  0.00  0.00    +0.000 A 
ATOM      3  N   UNL     1       6.656   4.454  16.899  0.00  0.00    +0.000 NA
ATOM      4  C   UNL     1       6.106   5.050  15.788  0.00  0.00    +0.000 A 
ATOM      5  C   UNL     1       5.147   5.972  16.153  0.00  0.00    +0.000 A 
ATOM      6  N   UNL     1       5.115   5.970  17.523  0.00  0.00    +0.000 N 
ATOM      7  H   UNL     1       6.832   3.934  19.443  0.00  0.00    +0.000 HD
ATOM      8  H   UNL     1       5.645   5.085  19.912  0.00  0.00    +0.000 HD
ENDROOT
BRANCH   4   9
ATOM      9  C   UNL     1       6.506   4.760  14.420  0.00  0.00    +0.000 A 
ATOM     10  C   UNL     1       5.854   3.770  13.691  0.00  0.00    +0.000 A 
ATOM     11  C   UNL     1       6.287   3.496  12.396  0.00  0.00    +0.000 A 
ATOM     12  C   UNL     1       7.351   4.218  11.869  0.00  0.00    +0.000 A 
ATOM     13  C   UNL     1       7.940   5.190  12.661  0.00  0.00    +0.000 A 
ATOM     14  N   UNL     1       7.546   5.478  13.919  0.00  0.00    +0.000 NA
ENDBRANCH   4   9
BRANCH   6  15
ATOM     15  N   UNL     1       4.348   6.697  18.403  0.00  0.00    +0.000 NA
ATOM     16  C   UNL     1       3.176   7.068  18.008  0.00  0.00    +0.000 C 
BRANCH  16  17
ATOM     17  C   UNL     1       2.284   7.860  18.885  0.00  0.00    +0.000 A 
ATOM     18  C   UNL     1       2.000   7.437  20.188  0.00  0.00    +0.000 A 
ATOM     19  C   UNL     1       1.134   8.186  20.987  0.00  0.00    +0.000 A 
ATOM     20  C   UNL     1       0.555   9.351  20.481  0.00  0.00    +0.000 A 
ATOM     21 CL   UNL     1      -0.529  10.260  21.459  0.00  0.00    +0.000 Cl
ATOM     22  C   UNL     1       0.845   9.781  19.185  0.00  0.00    +0.000 A 
ATOM     23  C   UNL     1       1.715   9.036  18.384  0.00  0.00    +0.000 A 
ENDBRANCH  16  17
ENDBRANCH   6  15
TORSDOF 3
ENDMDL
MODEL 3
REMARK VINA RESULT:      -7.7      5.313      5.847
REMARK  Name = 
REMARK  3 active torsions:
REMARK  status: ('A' for Active; 'I' for Inactive)
REMARK    1  A    between atoms: C_4  and  C_5
REMARK    2  A    between atoms: N_12  and  N_13
REMARK    3  A    between atoms: C_14  and  C_15
REMARK                            x       y       z     vdW  Elec       q    Type
REMARK                         _______ _______ _______ _____ _____    ______ ____
ROOT
ATOM      1  N   UNL     1       8.116   5.737  20.164  0.00  0.00    +0.000 N 
ATOM      2  C   UNL     1       7.817   5.939  18.866  0.00  0.00    +0.000 A 
ATOM      3  N   UNL     1       7.308   5.053  18.045  0.00  0.00    +0.000 NA
ATOM      4  C   UNL     1       7.218   5.696  16.832  0.00  0.00    +0.000 A 
ATOM      5  C   UNL     1       7.647   7.003  16.940  0.00  0.00    +0.000 A 
ATOM      6  N   UNL     1       8.036   7.172  18.242  0.00  0.00    +0.000 N 
ATOM      7  H   UNL     1       7.712   4.924  20.613  0.00  0.00    +0.000 HD
ATOM      8  H   UNL     1       8.256   6.547  20.759  0.00  0.00    +0.000 HD
ENDROOT
BRANCH   4   9
ATOM      9  C   UNL     1       6.757   5.068  15.604  0.00  0.00    +0.000 A 
ATOM     10  C   UNL     1       5.610   4.281  15.603  0.00  0.00    +0.000 A 
ATOM     11  C   UNL     1       5.218   3.668  14.417  0.00  0.00    +0.000 A 
ATOM     12  C   UNL     1       5.979   3.860  13.269  0.00  0.00    +0.000 A 
ATOM     13  C   UNL     1       7.104   4.663  13.356  0.00  0.00    +0.000 A 
ATOM     14  N   UNL     1       7.512   5.269  14.491  0.00  0.00    +0.000 NA
ENDBRANCH   4   9
BRANCH   6  15
ATOM     15  N   UNL     1       8.546   8.274  18.890  0.00  0.00    +0.000 NA
ATOM     16  C   UNL     1       8.495   9.406  18.271  0.00  0.00    +0.000 C 
BRANCH  16  17
ATOM     17  C   UNL     1       9.025  10.643  18.887  0.00  0.00    +0.000 A 
ATOM     18  C   UNL     1       9.163  11.816  18.137  0.00  0.00    +0.000 A 
ATOM     19  C   UNL     1       9.691  12.963  18.733  0.00  0.00    +0.000 A 
ATOM     20  C   UNL     1      10.079  12.934  20.072  0.00  0.00    +0.000 A 
ATOM     21 CL   UNL     1      10.750  14.341  20.798  0.00  0.00    +0.000 Cl
ATOM     22  C   UNL     1       9.932  11.769  20.827  0.00  0.00    +0.000 A 
ATOM     23  C   UNL     1       9.400  10.620  20.235  0.00  0.00    +0.000 A 
ENDBRANCH  16  17
ENDBRANCH   6  15
TORSDOF 3
ENDMDL
MODEL 4
REMARK VINA RESULT:      -7.7      5.333      5.962
REMARK  Name = 
REMARK  3 active torsions:
REMARK  status: ('A' for Active; 'I' for Inactive)
REMARK    1  A    between atoms: C_4  and  C_5
REMARK    2  A    between atoms: N_12  and  N_13
REMARK    3  A    between atoms: C_14  and  C_15
REMARK                            x       y       z     vdW  Elec       q    Type
REMARK                         _______ _______ _______ _____ _____    ______ ____
ROOT
ATOM      1  N   UNL     1       8.003   5.737  20.134  0.00  0.00    +0.000 N 
ATOM      2  C   UNL     1       7.758   5.953  18.828  0.00  0.00    +0.000 A 
ATOM      3  N   UNL     1       7.249   5.087  17.986  0.00  0.00    +0.000 NA
ATOM      4  C   UNL     1       7.224   5.737  16.773  0.00  0.00    +0.000 A 
ATOM      5  C   UNL     1       7.692   7.028  16.901  0.00  0.00    +0.000 A 
ATOM      6  N   UNL     1       8.041   7.179  18.218  0.00  0.00    +0.000 N 
ATOM      7  H   UNL     1       7.557   4.937  20.566  0.00  0.00    +0.000 HD
ATOM      8  H   UNL     1       8.149   6.540  20.738  0.00  0.00    +0.000 HD
ENDROOT
BRANCH   4   9
ATOM      9  C   UNL     1       6.786   5.128  15.526  0.00  0.00    +0.000 A 
ATOM     10  C   UNL     1       5.644   4.335  15.494  0.00  0.00    +0.000 A 
ATOM     11  C   UNL     1       5.274   3.742  14.290  0.00  0.00    +0.000 A 
ATOM     12  C   UNL     1       6.051   3.958  13.158  0.00  0.00    +0.000 A 
ATOM     13  C   UNL     1       7.171   4.765  13.277  0.00  0.00    +0.000 A 
ATOM     14  N   UNL     1       7.557   5.354  14.430  0.00  0.00    +0.000 NA
ENDBRANCH   4   9
BRANCH   6  15
ATOM     15  N   UNL     1       8.564   8.261  18.888  0.00  0.00    +0.000 NA
ATOM     16  C   UNL     1       8.593   9.392  18.265  0.00  0.00    +0.000 C 
BRANCH  16  17
ATOM     17  C   UNL     1       9.144  10.608  18.904  0.00  0.00    +0.000 A 
ATOM     18  C   UNL     1       9.288  10.685  20.293  0.00  0.00    +0.000 A 
ATOM     19  C   UNL     1       9.785  11.854  20.875  0.00  0.00    +0.000 A 
ATOM     20  C   UNL     1      10.132  12.938  20.069  0.00  0.00    +0.000 A 
ATOM     21 CL   UNL     1      10.722  14.384  20.790  0.00  0.00    +0.000 Cl
ATOM     22  C   UNL     1       9.999  12.860  18.682  0.00  0.00    +0.000 A 
ATOM     23  C   UNL     1       9.506  11.691  18.095  0.00  0.00    +0.000 A 
ENDBRANCH  16  17
ENDBRANCH   6  15
TORSDOF 3
ENDMDL
MODEL 5
REMARK VINA RESULT:      -7.4      2.130      3.631
REMARK  Name = 
REMARK  3 active torsions:
REMARK  status: ('A' for Active; 'I' for Inactive)
REMARK    1  A    between atoms: C_4  and  C_5
REMARK    2  A    between atoms: N_12  and  N_13
REMARK    3  A    between atoms: C_14  and  C_15
REMARK                            x       y       z     vdW  Elec       q    Type
REMARK                         _______ _______ _______ _____ _____    ______ ____
ROOT
ATOM      1  N   UNL     1       2.122   4.097  21.338  0.00  0.00    +0.000 N 
ATOM      2  C   UNL     1       2.760   4.685  20.308  0.00  0.00    +0.000 A 
ATOM      3  N   UNL     1       3.601   4.100  19.489  0.00  0.00    +0.000 NA
ATOM      4  C   UNL     1       4.023   5.095  18.637  0.00  0.00    +0.000 A 
ATOM      5  C   UNL     1       3.393   6.287  18.928  0.00  0.00    +0.000 A 
ATOM      6  N   UNL     1       2.579   6.037  20.002  0.00  0.00    +0.000 N 
ATOM      7  H   UNL     1       2.099   3.085  21.355  0.00  0.00    +0.000 HD
ATOM      8  H   UNL     1       1.313   4.565  21.735  0.00  0.00    +0.000 HD
ENDROOT
BRANCH   4   9
ATOM      9  C   UNL     1       5.017   4.911  17.591  0.00  0.00    +0.000 A 
ATOM     10  C   UNL     1       4.629   4.845  16.256  0.00  0.00    +0.000 A 
ATOM     11  C   UNL     1       5.604   4.634  15.285  0.00  0.00    +0.000 A 
ATOM     12  C   UNL     1       6.932   4.498  15.673  0.00  0.00    +0.000 A 
ATOM     13  C   UNL     1       7.232   4.582  17.023  0.00  0.00    +0.000 A 
ATOM     14  N   UNL     1       6.310   4.784  17.989  0.00  0.00    +0.000 NA
ENDBRANCH   4   9
BRANCH   6  15
ATOM     15  N   UNL     1       1.734   6.869  20.699  0.00  0.00    +0.000 NA
ATOM     16  C   UNL     1       1.685   8.108  20.338  0.00  0.00    +0.000 C 
BRANCH  16  17
ATOM     17  C   UNL     1       0.809   9.077  21.034  0.00  0.00    +0.000 A 
ATOM     18  C   UNL     1       0.483   8.909  22.384  0.00  0.00    +0.000 A 
ATOM     19  C   UNL     1      -0.367   9.822  23.012  0.00  0.00    +0.000 A 
ATOM     20  C   UNL     1      -0.889  10.895  22.289  0.00  0.00    +0.000 A 
ATOM     21 CL   UNL     1      -1.954  12.005  23.058  0.00  0.00    +0.000 Cl
ATOM     22  C   UNL     1      -0.557  11.072  20.945  0.00  0.00    +0.000 A 
ATOM     23  C   UNL     1       0.297  10.163  20.315  0.00  0.00    +0.000 A 
ENDBRANCH  16  17
ENDBRANCH   6  15
TORSDOF 3
ENDMDL
MODEL 6
REMARK VINA RESULT:      -7.3      2.376      3.850
REMARK  Name = 
REMARK  3 active torsions:
REMARK  status: ('A' for Active; 'I' for Inactive)
REMARK    1  A    between atoms: C_4  and  C_5
REMARK    2  A    between atoms: N_12  and  N_13
REMARK    3  A    between atoms: C_14  and  C_15
REMARK                            x       y       z     vdW  Elec       q    Type
REMARK                         _______ _______ _______ _____ _____    ______ ____
ROOT
ATOM      1  N   UNL     1       1.306   3.963  20.895  0.00  0.00    +0.000 N 
ATOM      2  C   UNL     1       2.236   4.560  20.124  0.00  0.00    +0.000 A 
ATOM      3  N   UNL     1       3.128   3.950  19.381  0.00  0.00    +0.000 NA
ATOM      4  C   UNL     1       3.876   4.958  18.818  0.00  0.00    +0.000 A 
ATOM      5  C   UNL     1       3.398   6.194  19.202  0.00  0.00    +0.000 A 
ATOM      6  N   UNL     1       2.344   5.952  20.044  0.00  0.00    +0.000 N 
ATOM      7  H   UNL     1       1.118   2.983  20.721  0.00  0.00    +0.000 HD
ATOM      8  H   UNL     1       0.517   4.515  21.214  0.00  0.00    +0.000 HD
ENDROOT
BRANCH   4   9
ATOM      9  C   UNL     1       5.028   4.741  17.956  0.00  0.00    +0.000 A 
ATOM     10  C   UNL     1       6.315   4.978  18.428  0.00  0.00    +0.000 A 
ATOM     11  C   UNL     1       7.391   4.791  17.565  0.00  0.00    +0.000 A 
ATOM     12  C   UNL     1       7.151   4.373  16.261  0.00  0.00    +0.000 A 
ATOM     13  C   UNL     1       5.839   4.156  15.874  0.00  0.00    +0.000 A 
ATOM     14  N   UNL     1       4.774   4.329  16.686  0.00  0.00    +0.000 NA
ENDBRANCH   4   9
BRANCH   6  15
ATOM     15  N   UNL     1       1.514   6.821  20.714  0.00  0.00    +0.000 NA
ATOM     16  C   UNL     1       1.555   8.066  20.375  0.00  0.00    +0.000 C 
BRANCH  16  17
ATOM     17  C   UNL     1       0.703   9.074  21.045  0.00  0.00    +0.000 A 
ATOM     18  C   UNL     1       0.140  10.131  20.323  0.00  0.00    +0.000 A 
ATOM     19  C   UNL     1      -0.638  11.085  20.982  0.00  0.00    +0.000 A 
ATOM     20  C   UNL     1      -0.849  10.979  22.357  0.00  0.00    +0.000 A 
ATOM     21 CL   UNL     1      -1.789  12.168  23.171  0.00  0.00    +0.000 Cl
ATOM     22  C   UNL     1      -0.298   9.919  23.079  0.00  0.00    +0.000 A 
ATOM     23  C   UNL     1       0.478   8.960  22.421  0.00  0.00    +0.000 A 
ENDBRANCH  16  17
ENDBRANCH   6  15
TORSDOF 3
ENDMDL
MODEL 7
REMARK VINA RESULT:      -7.3      5.291      5.980
REMARK  Name = 
REMARK  3 active torsions:
REMARK  status: ('A' for Active; 'I' for Inactive)
REMARK    1  A    between atoms: C_4  and  C_5
REMARK    2  A    between atoms: N_12  and  N_13
REMARK    3  A    between atoms: C_14  and  C_15
REMARK                            x       y       z     vdW  Elec       q    Type
REMARK                         _______ _______ _______ _____ _____    ______ ____
ROOT
ATOM      1  N   UNL     1       8.271   5.569  20.191  0.00  0.00    +0.000 N 
ATOM      2  C   UNL     1       7.852   5.777  18.929  0.00  0.00    +0.000 A 
ATOM      3  N   UNL     1       7.287   4.887  18.147  0.00  0.00    +0.000 NA
ATOM      4  C   UNL     1       7.076   5.540  16.955  0.00  0.00    +0.000 A 
ATOM      5  C   UNL     1       7.486   6.854  17.037  0.00  0.00    +0.000 A 
ATOM      6  N   UNL     1       7.989   7.019  18.301  0.00  0.00    +0.000 N 
ATOM      7  H   UNL     1       7.926   4.744  20.666  0.00  0.00    +0.000 HD
ATOM      8  H   UNL     1       8.448   6.376  20.781  0.00  0.00    +0.000 HD
ENDROOT
BRANCH   4   9
ATOM      9  C   UNL     1       6.517   4.914  15.766  0.00  0.00    +0.000 A 
ATOM     10  C   UNL     1       7.263   4.839  14.594  0.00  0.00    +0.000 A 
ATOM     11  C   UNL     1       6.684   4.263  13.467  0.00  0.00    +0.000 A 
ATOM     12  C   UNL     1       5.383   3.779  13.543  0.00  0.00    +0.000 A 
ATOM     13  C   UNL     1       4.712   3.889  14.751  0.00  0.00    +0.000 A 
ATOM     14  N   UNL     1       5.245   4.443  15.861  0.00  0.00    +0.000 NA
ENDBRANCH   4   9
BRANCH   6  15
ATOM     15  N   UNL     1       8.534   8.125  18.912  0.00  0.00    +0.000 NA
ATOM     16  C   UNL     1       8.549   9.230  18.243  0.00  0.00    +0.000 C 
BRANCH  16  17
ATOM     17  C   UNL     1       9.120  10.468  18.816  0.00  0.00    +0.000 A 
ATOM     18  C   UNL     1       9.461  11.548  17.995  0.00  0.00    +0.000 A 
ATOM     19  C   UNL     1      10.024  12.696  18.556  0.00  0.00    +0.000 A 
ATOM     20  C   UNL     1      10.245  12.760  19.932  0.00  0.00    +0.000 A 
ATOM     21 CL   UNL     1      10.960  14.166  20.618  0.00  0.00    +0.000 Cl
ATOM     22  C   UNL     1       9.897  11.688  20.756  0.00  0.00    +0.000 A 
ATOM     23  C   UNL     1       9.329  10.540  20.198  0.00  0.00    +0.000 A 
ENDBRANCH  16  17
ENDBRANCH   6  15
TORSDOF 3
ENDMDL
MODEL 8
REMARK VINA RESULT:      -7.2      2.201      3.616
REMARK  Name = 
REMARK  3 active torsions:
REMARK  status: ('A' for Active; 'I' for Inactive)
REMARK    1  A    between atoms: C_4  and  C_5
REMARK    2  A    between atoms: N_12  and  N_13
REMARK    3  A    between atoms: C_14  and  C_15
REMARK                            x       y       z     vdW  Elec       q    Type
REMARK                         _______ _______ _______ _____ _____    ______ ____
ROOT
ATOM      1  N   UNL     1       1.417   4.199  20.829  0.00  0.00    +0.000 N 
ATOM      2  C   UNL     1       2.263   4.814  19.981  0.00  0.00    +0.000 A 
ATOM      3  N   UNL     1       3.098   4.223  19.161  0.00  0.00    +0.000 NA
ATOM      4  C   UNL     1       3.773   5.246  18.536  0.00  0.00    +0.000 A 
ATOM      5  C   UNL     1       3.307   6.472  18.964  0.00  0.00    +0.000 A 
ATOM      6  N   UNL     1       2.337   6.208  19.895  0.00  0.00    +0.000 N 
ATOM      7  H   UNL     1       1.234   3.215  20.672  0.00  0.00    +0.000 HD
ATOM      8  H   UNL     1       0.648   4.735  21.219  0.00  0.00    +0.000 HD
ENDROOT
BRANCH   4   9
ATOM      9  C   UNL     1       4.849   5.052  17.576  0.00  0.00    +0.000 A 
ATOM     10  C   UNL     1       4.733   4.094  16.574  0.00  0.00    +0.000 A 
ATOM     11  C   UNL     1       5.796   3.912  15.694  0.00  0.00    +0.000 A 
ATOM     12  C   UNL     1       6.938   4.691  15.838  0.00  0.00    +0.000 A 
ATOM     13  C   UNL     1       6.969   5.626  16.861  0.00  0.00    +0.000 A 
ATOM     14  N   UNL     1       5.956   5.825  17.731  0.00  0.00    +0.000 NA
ENDBRANCH   4   9
BRANCH   6  15
ATOM     15  N   UNL     1       1.551   7.060  20.637  0.00  0.00    +0.000 NA
ATOM     16  C   UNL     1       1.434   8.278  20.222  0.00  0.00    +0.000 C 
BRANCH  16  17
ATOM     17  C   UNL     1       0.616   9.265  20.960  0.00  0.00    +0.000 A 
ATOM     18  C   UNL     1       0.118  10.406  20.320  0.00  0.00    +0.000 A 
ATOM     19  C   UNL     1      -0.628  11.338  21.043  0.00  0.00    +0.000 A 
ATOM     20  C   UNL     1      -0.874  11.128  22.400  0.00  0.00    +0.000 A 
ATOM     21 CL   UNL     1      -1.774  12.288  23.295  0.00  0.00    +0.000 Cl
ATOM     22  C   UNL     1      -0.388   9.986  23.040  0.00  0.00    +0.000 A 
ATOM     23  C   UNL     1       0.356   9.049  22.317  0.00  0.00    +0.000 A 
ENDBRANCH  16  17
ENDBRANCH   6  15
TORSDOF 3
ENDMDL
MODEL 9
REMARK VINA RESULT:      -7.2      0.672      1.078
REMARK  Name = 
REMARK  3 active torsions:
REMARK  status: ('A' for Active; 'I' for Inactive)
REMARK    1  A    between atoms: C_4  and  C_5
REMARK    2  A    between atoms: N_12  and  N_13
REMARK    3  A    between atoms: C_14  and  C_15
REMARK                            x       y       z     vdW  Elec       q    Type
REMARK                         _______ _______ _______ _____ _____    ______ ____
ROOT
ATOM      1  N   UNL     1       6.048   4.621  19.264  0.00  0.00    +0.000 N 
ATOM      2  C   UNL     1       5.830   4.859  17.956  0.00  0.00    +0.000 A 
ATOM      3  N   UNL     1       6.479   4.313  16.956  0.00  0.00    +0.000 NA
ATOM      4  C   UNL     1       5.942   4.887  15.826  0.00  0.00    +0.000 A 
ATOM      5  C   UNL     1       4.929   5.762  16.156  0.00  0.00    +0.000 A 
ATOM      6  N   UNL     1       4.847   5.755  17.523  0.00  0.00    +0.000 N 
ATOM      7  H   UNL     1       6.585   3.797  19.504  0.00  0.00    +0.000 HD
ATOM      8  H   UNL     1       5.330   4.890  19.930  0.00  0.00    +0.000 HD
ENDROOT
BRANCH   4   9
ATOM      9  C   UNL     1       6.405   4.618  14.473  0.00  0.00    +0.000 A 
ATOM     10  C   UNL     1       7.474   5.332  13.940  0.00  0.00    +0.000 A 
ATOM     11  C   UNL     1       7.867   5.072  12.630  0.00  0.00    +0.000 A 
ATOM     12  C   UNL     1       7.186   4.109  11.894  0.00  0.00    +0.000 A 
ATOM     13  C   UNL     1       6.135   3.442  12.503  0.00  0.00    +0.000 A 
ATOM     14  N   UNL     1       5.729   3.672  13.769  0.00  0.00    +0.000 NA
ENDBRANCH   4   9
BRANCH   6  15
ATOM     15  N   UNL     1       4.016   6.445  18.376  0.00  0.00    +0.000 NA
ATOM     16  C   UNL     1       3.153   7.248  17.848  0.00  0.00    +0.000 C 
BRANCH  16  17
ATOM     17  C   UNL     1       2.223   8.035  18.686  0.00  0.00    +0.000 A 
ATOM     18  C   UNL     1       1.554   9.148  18.165  0.00  0.00    +0.000 A 
ATOM     19  C   UNL     1       0.702   9.892  18.983  0.00  0.00    +0.000 A 
ATOM     20  C   UNL     1       0.522   9.523  20.317  0.00  0.00    +0.000 A 
ATOM     21 CL   UNL     1      -0.510  10.455  21.329  0.00  0.00    +0.000 Cl
ATOM     22  C   UNL     1       1.180   8.407  20.837  0.00  0.00    +0.000 A 
ATOM     23  C   UNL     1       2.030   7.658  20.020  0.00  0.00    +0.000 A 
ENDBRANCH  16  17
ENDBRANCH   6  15
TORSDOF 3
ENDMDL
