MODEL 1
REMARK VINA RESULT:      -7.1      0.000      0.000
REMARK  Name = 
REMARK  15 active torsions:
REMARK  status: ('A' for Active; 'I' for Inactive)
REMARK    1  A    between atoms: C_2  and  O_3
REMARK    2  A    between atoms: C_2  and  C_4
REMARK    3  A    between atoms: C_4  and  C_5
REMARK    4  A    between atoms: C_5  and  O_6
REMARK    5  A    between atoms: C_5  and  C_7
REMARK    6  A    between atoms: C_5  and  C_25
REMARK    7  A    between atoms: C_7  and  S_8
REMARK    8  A    between atoms: S_8  and  C_9
REMARK    9  A    between atoms: C_9  and  C_10
REMARK   10  A    between atoms: C_10  and  C_11
REMARK   11  A    between atoms: C_11  and  C_12
REMARK   12  A    between atoms: C_12  and  C_13
REMARK   13  A    between atoms: C_13  and  C_14
REMARK   14  A    between atoms: C_14  and  C_15
REMARK   15  A    between atoms: C_25  and  O_27
REMARK                            x       y       z     vdW  Elec       q    Type
REMARK                         _______ _______ _______ _____ _____    ______ ____
ROOT
ATOM      1  C   UNL     1       2.774   3.844  17.435  0.00  0.00    +0.000 C 
ENDROOT
BRANCH   1   2
ATOM      2  S   UNL     1       4.344   3.213  18.119  0.00  0.00    +0.000 S 
BRANCH   2   3
ATOM      3  C   UNL     1       5.052   4.688  18.895  0.00  0.00    +0.000 C 
BRANCH   3   4
ATOM      4  C   UNL     1       6.082   5.315  17.926  0.00  0.00    +0.000 C 
BRANCH   4   5
ATOM      5  O   UNL     1       5.473   6.490  17.310  0.00  0.00    +0.000 OA
ATOM      6  H   UNL     1       5.669   6.464  16.353  0.00  0.00    +0.000 HD
ENDBRANCH   4   5
BRANCH   4   7
ATOM      7  C   UNL     1       7.228   5.906  18.745  0.00  0.00    +0.000 C 
ATOM      8  O   UNL     1       8.008   6.767  18.328  0.00  0.00    +0.000 OA
BRANCH   7   9
ATOM      9  O   UNL     1       7.328   5.381  19.985  0.00  0.00    +0.000 OA
ATOM     10  H   UNL     1       6.610   5.767  20.541  0.00  0.00    +0.000 HD
ENDBRANCH   7   9
ENDBRANCH   4   7
BRANCH   4  11
ATOM     11  C   UNL     1       6.674   4.377  16.848  0.00  0.00    +0.000 C 
BRANCH  11  13
ATOM     12  O   UNL     1       7.735   5.387  14.929  0.00  0.00    +0.000 OA
ATOM     13  C   UNL     1       6.734   4.913  15.435  0.00  0.00    +0.000 C 
BRANCH  13  14
ATOM     14  O   UNL     1       5.583   4.812  14.744  0.00  0.00    +0.000 OA
ATOM     15  H   UNL     1       5.263   5.728  14.568  0.00  0.00    +0.000 HD
ENDBRANCH  13  14
ENDBRANCH  11  13
ENDBRANCH   4  11
ENDBRANCH   3   4
ENDBRANCH   2   3
ENDBRANCH   1   2
BRANCH   1  16
ATOM     16  C   UNL     1       1.655   3.255  18.304  0.00  0.00    +0.000 C 
BRANCH  16  17
ATOM     17  C   UNL     1       2.170   2.696  19.633  0.00  0.00    +0.000 C 
BRANCH  17  18
ATOM     18  C   UNL     1       1.685   3.532  20.816  0.00  0.00    +0.000 C 
BRANCH  18  19
ATOM     19  C   UNL     1       1.207   4.890  20.331  0.00  0.00    +0.000 C 
BRANCH  19  20
ATOM     20  C   UNL     1       2.136   6.004  20.804  0.00  0.00    +0.000 C 
BRANCH  20  21
ATOM     21  C   UNL     1       1.922   7.254  19.979  0.00  0.00    +0.000 A 
ATOM     22  C   UNL     1       2.334   7.223  18.635  0.00  0.00    +0.000 A 
ATOM     23  C   UNL     1       2.134   8.320  17.809  0.00  0.00    +0.000 A 
ATOM     24  C   UNL     1       1.511   9.465  18.309  0.00  0.00    +0.000 A 
ATOM     25  C   UNL     1       1.077   9.521  19.643  0.00  0.00    +0.000 A 
ATOM     26  C   UNL     1       0.437  10.676  20.125  0.00  0.00    +0.000 A 
ATOM     27  C   UNL     1      -0.023  10.749  21.439  0.00  0.00    +0.000 A 
ATOM     28  C   UNL     1       0.156   9.668  22.290  0.00  0.00    +0.000 A 
ATOM     29  C   UNL     1       0.800   8.518  21.828  0.00  0.00    +0.000 A 
ATOM     30  C   UNL     1       1.275   8.410  20.499  0.00  0.00    +0.000 A 
ENDBRANCH  20  21
ENDBRANCH  19  20
ENDBRANCH  18  19
ENDBRANCH  17  18
ENDBRANCH  16  17
ENDBRANCH   1  16
TORSDOF 15
ENDMDL
MODEL 2
REMARK VINA RESULT:      -6.7      1.050      2.393
REMARK  Name = 
REMARK  15 active torsions:
REMARK  status: ('A' for Active; 'I' for Inactive)
REMARK    1  A    between atoms: C_2  and  O_3
REMARK    2  A    between atoms: C_2  and  C_4
REMARK    3  A    between atoms: C_4  and  C_5
REMARK    4  A    between atoms: C_5  and  O_6
REMARK    5  A    between atoms: C_5  and  C_7
REMARK    6  A    between atoms: C_5  and  C_25
REMARK    7  A    between atoms: C_7  and  S_8
REMARK    8  A    between atoms: S_8  and  C_9
REMARK    9  A    between atoms: C_9  and  C_10
REMARK   10  A    between atoms: C_10  and  C_11
REMARK   11  A    between atoms: C_11  and  C_12
REMARK   12  A    between atoms: C_12  and  C_13
REMARK   13  A    between atoms: C_13  and  C_14
REMARK   14  A    between atoms: C_14  and  C_15
REMARK   15  A    between atoms: C_25  and  O_27
REMARK                            x       y       z     vdW  Elec       q    Type
REMARK                         _______ _______ _______ _____ _____    ______ ____
ROOT
ATOM      1  C   UNL     1       2.794   3.280  17.463  0.00  0.00    +0.000 C 
ENDROOT
BRANCH   1   2
ATOM      2  S   UNL     1       4.448   3.906  17.915  0.00  0.00    +0.000 S 
BRANCH   2   3
ATOM      3  C   UNL     1       4.953   4.790  16.418  0.00  0.00    +0.000 C 
BRANCH   3   4
ATOM      4  C   UNL     1       6.320   4.238  15.950  0.00  0.00    +0.000 C 
BRANCH   4   5
ATOM      5  O   UNL     1       6.191   2.796  15.763  0.00  0.00    +0.000 OA
ATOM      6  H   UNL     1       6.868   2.515  15.117  0.00  0.00    +0.000 HD
ENDBRANCH   4   5
BRANCH   4   7
ATOM      7  C   UNL     1       6.597   4.749  14.538  0.00  0.00    +0.000 C 
ATOM      8  O   UNL     1       7.529   5.501  14.240  0.00  0.00    +0.000 OA
BRANCH   7   9
ATOM      9  O   UNL     1       5.702   4.312  13.624  0.00  0.00    +0.000 OA
ATOM     10  H   UNL     1       5.262   3.507  13.986  0.00  0.00    +0.000 HD
ENDBRANCH   7   9
ENDBRANCH   4   7
BRANCH   4  11
ATOM     11  C   UNL     1       7.538   4.567  16.844  0.00  0.00    +0.000 C 
BRANCH  11  13
ATOM     12  O   UNL     1       7.352   5.980  18.793  0.00  0.00    +0.000 OA
ATOM     13  C   UNL     1       7.503   5.884  17.589  0.00  0.00    +0.000 C 
BRANCH  13  14
ATOM     14  O   UNL     1       7.674   6.973  16.817  0.00  0.00    +0.000 OA
ATOM     15  H   UNL     1       6.781   7.268  16.520  0.00  0.00    +0.000 HD
ENDBRANCH  13  14
ENDBRANCH  11  13
ENDBRANCH   4  11
ENDBRANCH   3   4
ENDBRANCH   2   3
ENDBRANCH   1   2
BRANCH   1  16
ATOM     16  C   UNL     1       2.430   2.222  18.512  0.00  0.00    +0.000 C 
BRANCH  16  17
ATOM     17  C   UNL     1       1.310   2.679  19.450  0.00  0.00    +0.000 C 
BRANCH  17  18
ATOM     18  C   UNL     1       1.017   4.170  19.286  0.00  0.00    +0.000 C 
BRANCH  18  19
ATOM     19  C   UNL     1       1.348   4.908  20.572  0.00  0.00    +0.000 C 
BRANCH  19  20
ATOM     20  C   UNL     1       2.587   5.783  20.404  0.00  0.00    +0.000 C 
BRANCH  20  21
ATOM     21  C   UNL     1       2.237   7.057  19.668  0.00  0.00    +0.000 A 
ATOM     22  C   UNL     1       2.599   7.144  18.312  0.00  0.00    +0.000 A 
ATOM     23  C   UNL     1       2.276   8.268  17.564  0.00  0.00    +0.000 A 
ATOM     24  C   UNL     1       1.578   9.322  18.156  0.00  0.00    +0.000 A 
ATOM     25  C   UNL     1       1.192   9.259  19.505  0.00  0.00    +0.000 A 
ATOM     26  C   UNL     1       0.475  10.323  20.079  0.00  0.00    +0.000 A 
ATOM     27  C   UNL     1       0.061  10.276  21.410  0.00  0.00    +0.000 A 
ATOM     28  C   UNL     1       0.362   9.165  22.183  0.00  0.00    +0.000 A 
ATOM     29  C   UNL     1       1.083   8.105  21.629  0.00  0.00    +0.000 A 
ATOM     30  C   UNL     1       1.514   8.119  20.282  0.00  0.00    +0.000 A 
ENDBRANCH  20  21
ENDBRANCH  19  20
ENDBRANCH  18  19
ENDBRANCH  17  18
ENDBRANCH  16  17
ENDBRANCH   1  16
TORSDOF 15
ENDMDL
MODEL 3
REMARK VINA RESULT:      -6.5      5.125      7.515
REMARK  Name = 
REMARK  15 active torsions:
REMARK  status: ('A' for Active; 'I' for Inactive)
REMARK    1  A    between atoms: C_2  and  O_3
REMARK    2  A    between atoms: C_2  and  C_4
REMARK    3  A    between atoms: C_4  and  C_5
REMARK    4  A    between atoms: C_5  and  O_6
REMARK    5  A    between atoms: C_5  and  C_7
REMARK    6  A    between atoms: C_5  and  C_25
REMARK    7  A    between atoms: C_7  and  S_8
REMARK    8  A    between atoms: S_8  and  C_9
REMARK    9  A    between atoms: C_9  and  C_10
REMARK   10  A    between atoms: C_10  and  C_11
REMARK   11  A    between atoms: C_11  and  C_12
REMARK   12  A    between atoms: C_12  and  C_13
REMARK   13  A    between atoms: C_13  and  C_14
REMARK   14  A    between atoms: C_14  and  C_15
REMARK   15  A    between atoms: C_25  and  O_27
REMARK                            x       y       z     vdW  Elec       q    Type
REMARK                         _______ _______ _______ _____ _____    ______ ____
ROOT
ATOM      1  C   UNL     1       6.811   4.790  17.872  0.00  0.00    +0.000 C 
ENDROOT
BRANCH   1   2
ATOM      2  S   UNL     1       5.377   5.093  16.784  0.00  0.00    +0.000 S 
BRANCH   2   3
ATOM      3  C   UNL     1       4.373   3.608  17.041  0.00  0.00    +0.000 C 
BRANCH   3   4
ATOM      4  C   UNL     1       3.270   3.925  18.078  0.00  0.00    +0.000 C 
BRANCH   4   5
ATOM      5  O   UNL     1       2.595   5.153  17.666  0.00  0.00    +0.000 OA
ATOM      6  H   UNL     1       2.643   5.786  18.409  0.00  0.00    +0.000 HD
ENDBRANCH   4   5
BRANCH   4   7
ATOM      7  C   UNL     1       2.172   2.870  17.963  0.00  0.00    +0.000 C 
ATOM      8  O   UNL     1       0.972   3.090  18.155  0.00  0.00    +0.000 OA
BRANCH   7   9
ATOM      9  O   UNL     1       2.638   1.643  17.643  0.00  0.00    +0.000 OA
ATOM     10  H   UNL     1       3.622   1.664  17.702  0.00  0.00    +0.000 HD
ENDBRANCH   7   9
ENDBRANCH   4   7
BRANCH   4  11
ATOM     11  C   UNL     1       3.719   4.016  19.555  0.00  0.00    +0.000 C 
BRANCH  11  13
ATOM     12  O   UNL     1       3.260   2.306  21.196  0.00  0.00    +0.000 OA
ATOM     13  C   UNL     1       3.952   2.709  20.279  0.00  0.00    +0.000 C 
BRANCH  13  14
ATOM     14  O   UNL     1       4.991   1.987  19.819  0.00  0.00    +0.000 OA
ATOM     15  H   UNL     1       5.051   1.171  20.369  0.00  0.00    +0.000 HD
ENDBRANCH  13  14
ENDBRANCH  11  13
ENDBRANCH   4  11
ENDBRANCH   3   4
ENDBRANCH   2   3
ENDBRANCH   1   2
BRANCH   1  16
ATOM     16  C   UNL     1       6.890   5.987  18.828  0.00  0.00    +0.000 C 
BRANCH  16  17
ATOM     17  C   UNL     1       8.078   6.905  18.531  0.00  0.00    +0.000 C 
BRANCH  17  18
ATOM     18  C   UNL     1       7.746   7.910  17.429  0.00  0.00    +0.000 C 
BRANCH  18  19
ATOM     19  C   UNL     1       7.931   9.327  17.944  0.00  0.00    +0.000 C 
BRANCH  19  20
ATOM     20  C   UNL     1       9.038   9.394  18.992  0.00  0.00    +0.000 C 
BRANCH  20  21
ATOM     21  C   UNL     1       9.709  10.749  18.963  0.00  0.00    +0.000 A 
ATOM     22  C   UNL     1      10.385  11.114  17.786  0.00  0.00    +0.000 A 
ATOM     23  C   UNL     1      10.991  12.358  17.674  0.00  0.00    +0.000 A 
ATOM     24  C   UNL     1      10.927  13.263  18.736  0.00  0.00    +0.000 A 
ATOM     25  C   UNL     1      10.248  12.931  19.920  0.00  0.00    +0.000 A 
ATOM     26  C   UNL     1      10.179  13.862  20.972  0.00  0.00    +0.000 A 
ATOM     27  C   UNL     1       9.493  13.566  22.149  0.00  0.00    +0.000 A 
ATOM     28  C   UNL     1       8.872  12.334  22.291  0.00  0.00    +0.000 A 
ATOM     29  C   UNL     1       8.941  11.397  21.258  0.00  0.00    +0.000 A 
ATOM     30  C   UNL     1       9.625  11.666  20.049  0.00  0.00    +0.000 A 
ENDBRANCH  20  21
ENDBRANCH  19  20
ENDBRANCH  18  19
ENDBRANCH  17  18
ENDBRANCH  16  17
ENDBRANCH   1  16
TORSDOF 15
ENDMDL
MODEL 4
REMARK VINA RESULT:      -6.5      3.255      4.684
REMARK  Name = 
REMARK  15 active torsions:
REMARK  status: ('A' for Active; 'I' for Inactive)
REMARK    1  A    between atoms: C_2  and  O_3
REMARK    2  A    between atoms: C_2  and  C_4
REMARK    3  A    between atoms: C_4  and  C_5
REMARK    4  A    between atoms: C_5  and  O_6
REMARK    5  A    between atoms: C_5  and  C_7
REMARK    6  A    between atoms: C_5  and  C_25
REMARK    7  A    between atoms: C_7  and  S_8
REMARK    8  A    between atoms: S_8  and  C_9
REMARK    9  A    between atoms: C_9  and  C_10
REMARK   10  A    between atoms: C_10  and  C_11
REMARK   11  A    between atoms: C_11  and  C_12
REMARK   12  A    between atoms: C_12  and  C_13
REMARK   13  A    between atoms: C_13  and  C_14
REMARK   14  A    between atoms: C_14  and  C_15
REMARK   15  A    between atoms: C_25  and  O_27
REMARK                            x       y       z     vdW  Elec       q    Type
REMARK                         _______ _______ _______ _____ _____    ______ ____
ROOT
ATOM      1  C   UNL     1       2.205   6.473  19.529  0.00  0.00    +0.000 C 
ENDROOT
BRANCH   1   2
ATOM      2  S   UNL     1       3.488   5.213  19.841  0.00  0.00    +0.000 S 
BRANCH   2   3
ATOM      3  C   UNL     1       4.647   5.490  18.478  0.00  0.00    +0.000 C 
BRANCH   3   4
ATOM      4  C   UNL     1       5.048   4.121  17.879  0.00  0.00    +0.000 C 
BRANCH   4   5
ATOM      5  O   UNL     1       5.819   3.392  18.882  0.00  0.00    +0.000 OA
ATOM      6  H   UNL     1       5.290   3.359  19.703  0.00  0.00    +0.000 HD
ENDBRANCH   4   5
BRANCH   4   7
ATOM      7  C   UNL     1       3.791   3.268  17.722  0.00  0.00    +0.000 C 
ATOM      8  O   UNL     1       2.870   3.524  16.939  0.00  0.00    +0.000 OA
BRANCH   7   9
ATOM      9  O   UNL     1       3.761   2.197  18.544  0.00  0.00    +0.000 OA
ATOM     10  H   UNL     1       3.134   2.393  19.280  0.00  0.00    +0.000 HD
ENDBRANCH   7   9
ENDBRANCH   4   7
BRANCH   4  11
ATOM     11  C   UNL     1       5.799   4.153  16.528  0.00  0.00    +0.000 C 
BRANCH  11  13
ATOM     12  O   UNL     1       7.433   5.848  15.997  0.00  0.00    +0.000 OA
ATOM     13  C   UNL     1       7.174   4.784  16.526  0.00  0.00    +0.000 C 
BRANCH  13  14
ATOM     14  O   UNL     1       8.117   4.082  17.184  0.00  0.00    +0.000 OA
ATOM     15  H   UNL     1       8.990   4.482  16.963  0.00  0.00    +0.000 HD
ENDBRANCH  13  14
ENDBRANCH  11  13
ENDBRANCH   4  11
ENDBRANCH   3   4
ENDBRANCH   2   3
ENDBRANCH   1   2
BRANCH   1  16
ATOM     16  C   UNL     1       2.363   6.897  18.063  0.00  0.00    +0.000 C 
BRANCH  16  17
ATOM     17  C   UNL     1       2.337   8.417  17.880  0.00  0.00    +0.000 C 
BRANCH  17  18
ATOM     18  C   UNL     1       1.524   9.098  18.979  0.00  0.00    +0.000 C 
BRANCH  18  19
ATOM     19  C   UNL     1       0.859  10.350  18.433  0.00  0.00    +0.000 C 
BRANCH  19  20
ATOM     20  C   UNL     1      -0.387  10.710  19.236  0.00  0.00    +0.000 C 
BRANCH  20  21
ATOM     21  C   UNL     1      -1.607  10.715  18.343  0.00  0.00    +0.000 A 
ATOM     22  C   UNL     1      -1.550   9.955  17.161  0.00  0.00    +0.000 A 
ATOM     23  C   UNL     1      -2.647   9.882  16.314  0.00  0.00    +0.000 A 
ATOM     24  C   UNL     1      -3.823  10.562  16.636  0.00  0.00    +0.000 A 
ATOM     25  C   UNL     1      -3.914  11.319  17.815  0.00  0.00    +0.000 A 
ATOM     26  C   UNL     1      -5.113  11.982  18.131  0.00  0.00    +0.000 A 
ATOM     27  C   UNL     1      -5.237  12.723  19.306  0.00  0.00    +0.000 A 
ATOM     28  C   UNL     1      -4.162  12.812  20.178  0.00  0.00    +0.000 A 
ATOM     29  C   UNL     1      -2.962  12.166  19.872  0.00  0.00    +0.000 A 
ATOM     30  C   UNL     1      -2.804  11.403  18.690  0.00  0.00    +0.000 A 
ENDBRANCH  20  21
ENDBRANCH  19  20
ENDBRANCH  18  19
ENDBRANCH  17  18
ENDBRANCH  16  17
ENDBRANCH   1  16
TORSDOF 15
ENDMDL
MODEL 5
REMARK VINA RESULT:      -6.4      5.616      7.705
REMARK  Name = 
REMARK  15 active torsions:
REMARK  status: ('A' for Active; 'I' for Inactive)
REMARK    1  A    between atoms: C_2  and  O_3
REMARK    2  A    between atoms: C_2  and  C_4
REMARK    3  A    between atoms: C_4  and  C_5
REMARK    4  A    between atoms: C_5  and  O_6
REMARK    5  A    between atoms: C_5  and  C_7
REMARK    6  A    between atoms: C_5  and  C_25
REMARK    7  A    between atoms: C_7  and  S_8
REMARK    8  A    between atoms: S_8  and  C_9
REMARK    9  A    between atoms: C_9  and  C_10
REMARK   10  A    between atoms: C_10  and  C_11
REMARK   11  A    between atoms: C_11  and  C_12
REMARK   12  A    between atoms: C_12  and  C_13
REMARK   13  A    between atoms: C_13  and  C_14
REMARK   14  A    between atoms: C_14  and  C_15
REMARK   15  A    between atoms: C_25  and  O_27
REMARK                            x       y       z     vdW  Elec       q    Type
REMARK                         _______ _______ _______ _____ _____    ______ ____
ROOT
ATOM      1  C   UNL     1       6.309   6.842  16.884  0.00  0.00    +0.000 C 
ENDROOT
BRANCH   1   2
ATOM      2  S   UNL     1       5.028   5.543  16.828  0.00  0.00    +0.000 S 
BRANCH   2   3
ATOM      3  C   UNL     1       3.651   6.315  17.716  0.00  0.00    +0.000 C 
BRANCH   3   4
ATOM      4  C   UNL     1       3.065   5.290  18.715  0.00  0.00    +0.000 C 
BRANCH   4   5
ATOM      5  O   UNL     1       4.173   4.552  19.314  0.00  0.00    +0.000 OA
ATOM      6  H   UNL     1       3.926   3.606  19.338  0.00  0.00    +0.000 HD
ENDBRANCH   4   5
BRANCH   4   7
ATOM      7  C   UNL     1       2.471   6.047  19.900  0.00  0.00    +0.000 C 
ATOM      8  O   UNL     1       2.102   7.225  19.859  0.00  0.00    +0.000 OA
BRANCH   7   9
ATOM      9  O   UNL     1       2.398   5.308  21.029  0.00  0.00    +0.000 OA
ATOM     10  H   UNL     1       2.729   5.858  21.778  0.00  0.00    +0.000 HD
ENDBRANCH   7   9
ENDBRANCH   4   7
BRANCH   4  11
ATOM     11  C   UNL     1       1.997   4.319  18.159  0.00  0.00    +0.000 C 
BRANCH  11  13
ATOM     12  O   UNL     1       2.257   2.485  19.707  0.00  0.00    +0.000 OA
ATOM     13  C   UNL     1       2.122   2.865  18.559  0.00  0.00    +0.000 C 
BRANCH  13  14
ATOM     14  O   UNL     1       2.052   1.991  17.537  0.00  0.00    +0.000 OA
ATOM     15  H   UNL     1       2.257   2.487  16.710  0.00  0.00    +0.000 HD
ENDBRANCH  13  14
ENDBRANCH  11  13
ENDBRANCH   4  11
ENDBRANCH   3   4
ENDBRANCH   2   3
ENDBRANCH   1   2
BRANCH   1  16
ATOM     16  C   UNL     1       7.268   6.456  18.018  0.00  0.00    +0.000 C 
BRANCH  16  17
ATOM     17  C   UNL     1       8.244   7.579  18.376  0.00  0.00    +0.000 C 
BRANCH  17  18
ATOM     18  C   UNL     1       7.791   8.919  17.799  0.00  0.00    +0.000 C 
BRANCH  18  19
ATOM     19  C   UNL     1       8.886   9.957  17.974  0.00  0.00    +0.000 C 
BRANCH  19  20
ATOM     20  C   UNL     1       9.256  10.129  19.444  0.00  0.00    +0.000 C 
BRANCH  20  21
ATOM     21  C   UNL     1      10.043  11.404  19.645  0.00  0.00    +0.000 A 
ATOM     22  C   UNL     1      11.091  11.669  18.746  0.00  0.00    +0.000 A 
ATOM     23  C   UNL     1      11.831  12.839  18.846  0.00  0.00    +0.000 A 
ATOM     24  C   UNL     1      11.531  13.770  19.842  0.00  0.00    +0.000 A 
ATOM     25  C   UNL     1      10.481  13.540  20.747  0.00  0.00    +0.000 A 
ATOM     26  C   UNL     1      10.183  14.497  21.733  0.00  0.00    +0.000 A 
ATOM     27  C   UNL     1       9.133  14.302  22.629  0.00  0.00    +0.000 A 
ATOM     28  C   UNL     1       8.370  13.146  22.553  0.00  0.00    +0.000 A 
ATOM     29  C   UNL     1       8.662  12.182  21.585  0.00  0.00    +0.000 A 
ATOM     30  C   UNL     1       9.717  12.350  20.658  0.00  0.00    +0.000 A 
ENDBRANCH  20  21
ENDBRANCH  19  20
ENDBRANCH  18  19
ENDBRANCH  17  18
ENDBRANCH  16  17
ENDBRANCH   1  16
TORSDOF 15
ENDMDL
MODEL 6
REMARK VINA RESULT:      -6.4      1.823      3.774
REMARK  Name = 
REMARK  15 active torsions:
REMARK  status: ('A' for Active; 'I' for Inactive)
REMARK    1  A    between atoms: C_2  and  O_3
REMARK    2  A    between atoms: C_2  and  C_4
REMARK    3  A    between atoms: C_4  and  C_5
REMARK    4  A    between atoms: C_5  and  O_6
REMARK    5  A    between atoms: C_5  and  C_7
REMARK    6  A    between atoms: C_5  and  C_25
REMARK    7  A    between atoms: C_7  and  S_8
REMARK    8  A    between atoms: S_8  and  C_9
REMARK    9  A    between atoms: C_9  and  C_10
REMARK   10  A    between atoms: C_10  and  C_11
REMARK   11  A    between atoms: C_11  and  C_12
REMARK   12  A    between atoms: C_12  and  C_13
REMARK   13  A    between atoms: C_13  and  C_14
REMARK   14  A    between atoms: C_14  and  C_15
REMARK   15  A    between atoms: C_25  and  O_27
REMARK                            x       y       z     vdW  Elec       q    Type
REMARK                         _______ _______ _______ _____ _____    ______ ____
ROOT
ATOM      1  C   UNL     1       3.486   4.761  19.130  0.00  0.00    +0.000 C 
ENDROOT
BRANCH   1   2
ATOM      2  S   UNL     1       3.789   4.661  17.333  0.00  0.00    +0.000 S 
BRANCH   2   3
ATOM      3  C   UNL     1       5.379   3.798  17.254  0.00  0.00    +0.000 C 
BRANCH   3   4
ATOM      4  C   UNL     1       6.463   4.793  16.777  0.00  0.00    +0.000 C 
BRANCH   4   5
ATOM      5  O   UNL     1       7.754   4.339  17.285  0.00  0.00    +0.000 OA
ATOM      6  H   UNL     1       7.599   3.873  18.129  0.00  0.00    +0.000 HD
ENDBRANCH   4   5
BRANCH   4   7
ATOM      7  C   UNL     1       6.618   4.660  15.264  0.00  0.00    +0.000 C 
ATOM      8  O   UNL     1       5.866   3.996  14.544  0.00  0.00    +0.000 OA
BRANCH   7   9
ATOM      9  O   UNL     1       7.683   5.329  14.772  0.00  0.00    +0.000 OA
ATOM     10  H   UNL     1       7.891   4.963  13.880  0.00  0.00    +0.000 HD
ENDBRANCH   7   9
ENDBRANCH   4   7
BRANCH   4  11
ATOM     11  C   UNL     1       6.231   6.283  17.124  0.00  0.00    +0.000 C 
BRANCH  11  13
ATOM     12  O   UNL     1       7.891   8.034  17.073  0.00  0.00    +0.000 OA
ATOM     13  C   UNL     1       7.426   7.059  17.633  0.00  0.00    +0.000 C 
BRANCH  13  14
ATOM     14  O   UNL     1       7.945   6.602  18.788  0.00  0.00    +0.000 OA
ATOM     15  H   UNL     1       7.997   5.620  18.721  0.00  0.00    +0.000 HD
ENDBRANCH  13  14
ENDBRANCH  11  13
ENDBRANCH   4  11
ENDBRANCH   3   4
ENDBRANCH   2   3
ENDBRANCH   1   2
BRANCH   1  16
ATOM     16  C   UNL     1       3.087   6.213  19.422  0.00  0.00    +0.000 C 
BRANCH  16  17
ATOM     17  C   UNL     1       2.290   6.849  18.280  0.00  0.00    +0.000 C 
BRANCH  17  18
ATOM     18  C   UNL     1       2.876   8.200  17.873  0.00  0.00    +0.000 C 
BRANCH  18  19
ATOM     19  C   UNL     1       1.773   9.242  17.791  0.00  0.00    +0.000 C 
BRANCH  19  20
ATOM     20  C   UNL     1       1.067   9.406  19.133  0.00  0.00    +0.000 C 
BRANCH  20  21
ATOM     21  C   UNL     1      -0.203  10.210  18.966  0.00  0.00    +0.000 A 
ATOM     22  C   UNL     1      -0.924  10.044  17.770  0.00  0.00    +0.000 A 
ATOM     23  C   UNL     1      -2.119  10.720  17.565  0.00  0.00    +0.000 A 
ATOM     24  C   UNL     1      -2.619  11.569  18.554  0.00  0.00    +0.000 A 
ATOM     25  C   UNL     1      -1.928  11.746  19.764  0.00  0.00    +0.000 A 
ATOM     26  C   UNL     1      -2.455  12.591  20.756  0.00  0.00    +0.000 A 
ATOM     27  C   UNL     1      -1.799  12.767  21.974  0.00  0.00    +0.000 A 
ATOM     28  C   UNL     1      -0.606  12.101  22.214  0.00  0.00    +0.000 A 
ATOM     29  C   UNL     1      -0.066  11.266  21.233  0.00  0.00    +0.000 A 
ATOM     30  C   UNL     1      -0.707  11.063  19.989  0.00  0.00    +0.000 A 
ENDBRANCH  20  21
ENDBRANCH  19  20
ENDBRANCH  18  19
ENDBRANCH  17  18
ENDBRANCH  16  17
ENDBRANCH   1  16
TORSDOF 15
ENDMDL
MODEL 7
REMARK VINA RESULT:      -6.3      1.314      1.698
REMARK  Name = 
REMARK  15 active torsions:
REMARK  status: ('A' for Active; 'I' for Inactive)
REMARK    1  A    between atoms: C_2  and  O_3
REMARK    2  A    between atoms: C_2  and  C_4
REMARK    3  A    between atoms: C_4  and  C_5
REMARK    4  A    between atoms: C_5  and  O_6
REMARK    5  A    between atoms: C_5  and  C_7
REMARK    6  A    between atoms: C_5  and  C_25
REMARK    7  A    between atoms: C_7  and  S_8
REMARK    8  A    between atoms: S_8  and  C_9
REMARK    9  A    between atoms: C_9  and  C_10
REMARK   10  A    between atoms: C_10  and  C_11
REMARK   11  A    between atoms: C_11  and  C_12
REMARK   12  A    between atoms: C_12  and  C_13
REMARK   13  A    between atoms: C_13  and  C_14
REMARK   14  A    between atoms: C_14  and  C_15
REMARK   15  A    between atoms: C_25  and  O_27
REMARK                            x       y       z     vdW  Elec       q    Type
REMARK                         _______ _______ _______ _____ _____    ______ ____
ROOT
ATOM      1  C   UNL     1       3.227   3.241  18.080  0.00  0.00    +0.000 C 
ENDROOT
BRANCH   1   2
ATOM      2  S   UNL     1       4.894   3.984  18.134  0.00  0.00    +0.000 S 
BRANCH   2   3
ATOM      3  C   UNL     1       4.729   5.391  17.005  0.00  0.00    +0.000 C 
BRANCH   3   4
ATOM      4  C   UNL     1       5.706   5.196  15.821  0.00  0.00    +0.000 C 
BRANCH   4   5
ATOM      5  O   UNL     1       5.441   6.239  14.835  0.00  0.00    +0.000 OA
ATOM      6  H   UNL     1       4.580   6.045  14.415  0.00  0.00    +0.000 HD
ENDBRANCH   4   5
BRANCH   4   7
ATOM      7  C   UNL     1       7.121   5.518  16.296  0.00  0.00    +0.000 C 
ATOM      8  O   UNL     1       7.475   6.618  16.731  0.00  0.00    +0.000 OA
BRANCH   7   9
ATOM      9  O   UNL     1       7.976   4.479  16.178  0.00  0.00    +0.000 OA
ATOM     10  H   UNL     1       7.680   3.767  16.792  0.00  0.00    +0.000 HD
ENDBRANCH   7   9
ENDBRANCH   4   7
BRANCH   4  11
ATOM     11  C   UNL     1       5.710   3.801  15.154  0.00  0.00    +0.000 C 
BRANCH  11  13
ATOM     12  O   UNL     1       4.971   3.993  12.864  0.00  0.00    +0.000 OA
ATOM     13  C   UNL     1       5.871   3.763  13.650  0.00  0.00    +0.000 C 
BRANCH  13  14
ATOM     14  O   UNL     1       7.115   3.472  13.223  0.00  0.00    +0.000 OA
ATOM     15  H   UNL     1       7.715   3.527  14.003  0.00  0.00    +0.000 HD
ENDBRANCH  13  14
ENDBRANCH  11  13
ENDBRANCH   4  11
ENDBRANCH   3   4
ENDBRANCH   2   3
ENDBRANCH   1   2
BRANCH   1  16
ATOM     16  C   UNL     1       3.070   2.436  19.377  0.00  0.00    +0.000 C 
BRANCH  16  17
ATOM     17  C   UNL     1       2.664   3.307  20.569  0.00  0.00    +0.000 C 
BRANCH  17  18
ATOM     18  C   UNL     1       1.157   3.553  20.593  0.00  0.00    +0.000 C 
BRANCH  18  19
ATOM     19  C   UNL     1       0.871   5.039  20.453  0.00  0.00    +0.000 C 
BRANCH  19  20
ATOM     20  C   UNL     1       2.160   5.855  20.474  0.00  0.00    +0.000 C 
BRANCH  20  21
ATOM     21  C   UNL     1       1.961   7.173  19.761  0.00  0.00    +0.000 A 
ATOM     22  C   UNL     1       2.278   7.226  18.392  0.00  0.00    +0.000 A 
ATOM     23  C   UNL     1       2.083   8.392  17.665  0.00  0.00    +0.000 A 
ATOM     24  C   UNL     1       1.561   9.525  18.292  0.00  0.00    +0.000 A 
ATOM     25  C   UNL     1       1.224   9.500  19.655  0.00  0.00    +0.000 A 
ATOM     26  C   UNL     1       0.684  10.646  20.265  0.00  0.00    +0.000 A 
ATOM     27  C   UNL     1       0.320  10.640  21.611  0.00  0.00    +0.000 A 
ATOM     28  C   UNL     1       0.496   9.489  22.364  0.00  0.00    +0.000 A 
ATOM     29  C   UNL     1       1.041   8.347  21.774  0.00  0.00    +0.000 A 
ATOM     30  C   UNL     1       1.416   8.317  20.410  0.00  0.00    +0.000 A 
ENDBRANCH  20  21
ENDBRANCH  19  20
ENDBRANCH  18  19
ENDBRANCH  17  18
ENDBRANCH  16  17
ENDBRANCH   1  16
TORSDOF 15
ENDMDL
MODEL 8
REMARK VINA RESULT:      -6.3      1.336      2.240
REMARK  Name = 
REMARK  15 active torsions:
REMARK  status: ('A' for Active; 'I' for Inactive)
REMARK    1  A    between atoms: C_2  and  O_3
REMARK    2  A    between atoms: C_2  and  C_4
REMARK    3  A    between atoms: C_4  and  C_5
REMARK    4  A    between atoms: C_5  and  O_6
REMARK    5  A    between atoms: C_5  and  C_7
REMARK    6  A    between atoms: C_5  and  C_25
REMARK    7  A    between atoms: C_7  and  S_8
REMARK    8  A    between atoms: S_8  and  C_9
REMARK    9  A    between atoms: C_9  and  C_10
REMARK   10  A    between atoms: C_10  and  C_11
REMARK   11  A    between atoms: C_11  and  C_12
REMARK   12  A    between atoms: C_12  and  C_13
REMARK   13  A    between atoms: C_13  and  C_14
REMARK   14  A    between atoms: C_14  and  C_15
REMARK   15  A    between atoms: C_25  and  O_27
REMARK                            x       y       z     vdW  Elec       q    Type
REMARK                         _______ _______ _______ _____ _____    ______ ____
ROOT
ATOM      1  C   UNL     1       1.945   3.409  18.025  0.00  0.00    +0.000 C 
ENDROOT
BRANCH   1   2
ATOM      2  S   UNL     1       3.614   2.704  17.809  0.00  0.00    +0.000 S 
BRANCH   2   3
ATOM      3  C   UNL     1       4.426   3.939  16.762  0.00  0.00    +0.000 C 
BRANCH   3   4
ATOM      4  C   UNL     1       5.647   4.510  17.521  0.00  0.00    +0.000 C 
BRANCH   4   5
ATOM      5  O   UNL     1       5.862   3.700  18.716  0.00  0.00    +0.000 OA
ATOM      6  H   UNL     1       5.729   4.274  19.497  0.00  0.00    +0.000 HD
ENDBRANCH   4   5
BRANCH   4   7
ATOM      7  C   UNL     1       6.904   4.247  16.694  0.00  0.00    +0.000 C 
ATOM      8  O   UNL     1       8.055   4.332  17.131  0.00  0.00    +0.000 OA
BRANCH   7   9
ATOM      9  O   UNL     1       6.643   3.925  15.408  0.00  0.00    +0.000 OA
ATOM     10  H   UNL     1       5.664   3.906  15.289  0.00  0.00    +0.000 HD
ENDBRANCH   7   9
ENDBRANCH   4   7
BRANCH   4  11
ATOM     11  C   UNL     1       5.594   6.013  17.880  0.00  0.00    +0.000 C 
BRANCH  11  13
ATOM     12  O   UNL     1       5.576   6.981  15.668  0.00  0.00    +0.000 OA
ATOM     13  C   UNL     1       6.017   6.988  16.802  0.00  0.00    +0.000 C 
BRANCH  13  14
ATOM     14  O   UNL     1       6.924   7.903  17.194  0.00  0.00    +0.000 OA
ATOM     15  H   UNL     1       6.482   8.496  17.846  0.00  0.00    +0.000 HD
ENDBRANCH  13  14
ENDBRANCH  11  13
ENDBRANCH   4  11
ENDBRANCH   3   4
ENDBRANCH   2   3
ENDBRANCH   1   2
BRANCH   1  16
ATOM     16  C   UNL     1       1.508   3.058  19.453  0.00  0.00    +0.000 C 
BRANCH  16  17
ATOM     17  C   UNL     1       2.283   3.839  20.518  0.00  0.00    +0.000 C 
BRANCH  17  18
ATOM     18  C   UNL     1       2.537   5.280  20.080  0.00  0.00    +0.000 C 
BRANCH  18  19
ATOM     19  C   UNL     1       1.385   6.167  20.518  0.00  0.00    +0.000 C 
BRANCH  19  20
ATOM     20  C   UNL     1       1.891   7.479  21.110  0.00  0.00    +0.000 C 
BRANCH  20  21
ATOM     21  C   UNL     1       1.252   8.656  20.407  0.00  0.00    +0.000 A 
ATOM     22  C   UNL     1       1.476   8.788  19.025  0.00  0.00    +0.000 A 
ATOM     23  C   UNL     1       0.889   9.822  18.309  0.00  0.00    +0.000 A 
ATOM     24  C   UNL     1       0.061  10.739  18.959  0.00  0.00    +0.000 A 
ATOM     25  C   UNL     1      -0.192  10.626  20.336  0.00  0.00    +0.000 A 
ATOM     26  C   UNL     1      -1.042  11.548  20.971  0.00  0.00    +0.000 A 
ATOM     27  C   UNL     1      -1.326  11.446  22.332  0.00  0.00    +0.000 A 
ATOM     28  C   UNL     1      -0.761  10.422  23.076  0.00  0.00    +0.000 A 
ATOM     29  C   UNL     1       0.094   9.504  22.461  0.00  0.00    +0.000 A 
ATOM     30  C   UNL     1       0.400   9.577  21.081  0.00  0.00    +0.000 A 
ENDBRANCH  20  21
ENDBRANCH  19  20
ENDBRANCH  18  19
ENDBRANCH  17  18
ENDBRANCH  16  17
ENDBRANCH   1  16
TORSDOF 15
ENDMDL
MODEL 9
REMARK VINA RESULT:      -6.3      3.072      5.031
REMARK  Name = 
REMARK  15 active torsions:
REMARK  status: ('A' for Active; 'I' for Inactive)
REMARK    1  A    between atoms: C_2  and  O_3
REMARK    2  A    between atoms: C_2  and  C_4
REMARK    3  A    between atoms: C_4  and  C_5
REMARK    4  A    between atoms: C_5  and  O_6
REMARK    5  A    between atoms: C_5  and  C_7
REMARK    6  A    between atoms: C_5  and  C_25
REMARK    7  A    between atoms: C_7  and  S_8
REMARK    8  A    between atoms: S_8  and  C_9
REMARK    9  A    between atoms: C_9  and  C_10
REMARK   10  A    between atoms: C_10  and  C_11
REMARK   11  A    between atoms: C_11  and  C_12
REMARK   12  A    between atoms: C_12  and  C_13
REMARK   13  A    between atoms: C_13  and  C_14
REMARK   14  A    between atoms: C_14  and  C_15
REMARK   15  A    between atoms: C_25  and  O_27
REMARK                            x       y       z     vdW  Elec       q    Type
REMARK                         _______ _______ _______ _____ _____    ______ ____
ROOT
ATOM      1  C   UNL     1       2.483   7.465  19.478  0.00  0.00    +0.000 C 
ENDROOT
BRANCH   1   2
ATOM      2  S   UNL     1       2.309   5.663  19.709  0.00  0.00    +0.000 S 
BRANCH   2   3
ATOM      3  C   UNL     1       2.763   5.016  18.080  0.00  0.00    +0.000 C 
BRANCH   3   4
ATOM      4  C   UNL     1       4.211   4.476  18.144  0.00  0.00    +0.000 C 
BRANCH   4   5
ATOM      5  O   UNL     1       4.861   5.051  19.318  0.00  0.00    +0.000 OA
ATOM      6  H   UNL     1       5.552   4.426  19.616  0.00  0.00    +0.000 HD
ENDBRANCH   4   5
BRANCH   4   7
ATOM      7  C   UNL     1       4.163   2.984  18.470  0.00  0.00    +0.000 C 
ATOM      8  O   UNL     1       3.342   2.194  17.992  0.00  0.00    +0.000 OA
BRANCH   7   9
ATOM      9  O   UNL     1       5.103   2.598  19.360  0.00  0.00    +0.000 OA
ATOM     10  H   UNL     1       5.871   3.211  19.280  0.00  0.00    +0.000 HD
ENDBRANCH   7   9
ENDBRANCH   4   7
BRANCH   4  11
ATOM     11  C   UNL     1       5.080   4.681  16.881  0.00  0.00    +0.000 C 
BRANCH  11  13
ATOM     12  O   UNL     1       5.151   6.488  15.282  0.00  0.00    +0.000 OA
ATOM     13  C   UNL     1       5.300   6.108  16.429  0.00  0.00    +0.000 C 
BRANCH  13  14
ATOM     14  O   UNL     1       5.662   6.960  17.406  0.00  0.00    +0.000 OA
ATOM     15  H   UNL     1       6.236   7.650  16.999  0.00  0.00    +0.000 HD
ENDBRANCH  13  14
ENDBRANCH  11  13
ENDBRANCH   4  11
ENDBRANCH   3   4
ENDBRANCH   2   3
ENDBRANCH   1   2
BRANCH   1  16
ATOM     16  C   UNL     1       2.344   7.724  17.973  0.00  0.00    +0.000 C 
BRANCH  16  17
ATOM     17  C   UNL     1       1.451   8.928  17.659  0.00  0.00    +0.000 C 
BRANCH  17  18
ATOM     18  C   UNL     1       2.089  10.234  18.127  0.00  0.00    +0.000 C 
BRANCH  18  19
ATOM     19  C   UNL     1       1.114  11.005  19.000  0.00  0.00    +0.000 C 
BRANCH  19  20
ATOM     20  C   UNL     1      -0.049  10.123  19.443  0.00  0.00    +0.000 C 
BRANCH  20  21
ATOM     21  C   UNL     1      -1.357  10.872  19.318  0.00  0.00    +0.000 A 
ATOM     22  C   UNL     1      -1.708  11.745  20.362  0.00  0.00    +0.000 A 
ATOM     23  C   UNL     1      -2.875  12.494  20.296  0.00  0.00    +0.000 A 
ATOM     24  C   UNL     1      -3.709  12.390  19.182  0.00  0.00    +0.000 A 
ATOM     25  C   UNL     1      -3.379  11.535  18.117  0.00  0.00    +0.000 A 
ATOM     26  C   UNL     1      -4.222  11.455  16.995  0.00  0.00    +0.000 A 
ATOM     27  C   UNL     1      -3.906  10.631  15.915  0.00  0.00    +0.000 A 
ATOM     28  C   UNL     1      -2.745   9.874  15.947  0.00  0.00    +0.000 A 
ATOM     29  C   UNL     1      -1.903   9.935  17.059  0.00  0.00    +0.000 A 
ATOM     30  C   UNL     1      -2.191  10.764  18.169  0.00  0.00    +0.000 A 
ENDBRANCH  20  21
ENDBRANCH  19  20
ENDBRANCH  18  19
ENDBRANCH  17  18
ENDBRANCH  16  17
ENDBRANCH   1  16
TORSDOF 15
ENDMDL
