MODEL 1
REMARK VINA RESULT:      -7.9      0.000      0.000
REMARK  Name = 
REMARK  7 active torsions:
REMARK  status: ('A' for Active; 'I' for Inactive)
REMARK    1  A    between atoms: C_1  and  C_2
REMARK    2  A    between atoms: C_7  and  N_8
REMARK    3  A    between atoms: N_8  and  C_9
REMARK    4  A    between atoms: C_9  and  N_11
REMARK    5  A    between atoms: C_12  and  C_14
REMARK    6  A    between atoms: C_14  and  C_15
REMARK    7  A    between atoms: C_15  and  C_16
REMARK                            x       y       z     vdW  Elec       q    Type
REMARK                         _______ _______ _______ _____ _____    ______ ____
ROOT
ATOM      1  N   UNL     1       7.223   7.305  16.871  0.00  0.00    +0.000 N 
ATOM      2  C   UNL     1       7.970   7.814  17.919  0.00  0.00    +0.000 C 
ATOM      3  O   UNL     1       8.401   7.123  18.841  0.00  0.00    +0.000 OA
ATOM      4  H   UNL     1       7.087   7.888  16.054  0.00  0.00    +0.000 HD
ENDROOT
BRANCH   1   5
ATOM      5  C   UNL     1       6.492   6.133  16.833  0.00  0.00    +0.000 C 
ATOM      6  S   UNL     1       6.713   5.140  15.501  0.00  0.00    +0.000 S 
BRANCH   5   7
ATOM      7  N   UNL     1       5.658   5.908  17.903  0.00  0.00    +0.000 N 
ATOM      8  H   UNL     1       5.878   6.444  18.741  0.00  0.00    +0.000 HD
BRANCH   7  15
ATOM      9  C   UNL     1       3.036   7.295  18.044  0.00  0.00    +0.000 C 
ATOM     10  C   UNL     1       3.202   5.805  17.909  0.00  0.00    +0.000 A 
ATOM     11  C   UNL     1       2.030   5.024  17.855  0.00  0.00    +0.000 A 
ATOM     12  C   UNL     1       2.090   3.634  17.794  0.00  0.00    +0.000 A 
ATOM     13  C   UNL     1       3.323   3.000  17.809  0.00  0.00    +0.000 A 
ATOM     14  C   UNL     1       4.493   3.757  17.887  0.00  0.00    +0.000 A 
ATOM     15  C   UNL     1       4.455   5.158  17.943  0.00  0.00    +0.000 A 
ENDBRANCH   7  15
ENDBRANCH   5   7
ENDBRANCH   1   5
BRANCH   2  16
ATOM     16  C   UNL     1       8.247   9.306  17.843  0.00  0.00    +0.000 C 
BRANCH  16  17
ATOM     17  C   UNL     1       8.878   9.796  19.146  0.00  0.00    +0.000 C 
BRANCH  17  18
ATOM     18  C   UNL     1       9.980  10.821  18.985  0.00  0.00    +0.000 A 
ATOM     19  C   UNL     1      10.261  11.376  17.728  0.00  0.00    +0.000 A 
ATOM     20  C   UNL     1      11.182  12.421  17.595  0.00  0.00    +0.000 A 
ATOM     21  C   UNL     1      11.838  12.921  18.717  0.00  0.00    +0.000 A 
ATOM     22  C   UNL     1      11.589  12.364  19.969  0.00  0.00    +0.000 A 
ATOM     23  C   UNL     1      10.667  11.319  20.103  0.00  0.00    +0.000 A 
ENDBRANCH  17  18
ENDBRANCH  16  17
ENDBRANCH   2  16
TORSDOF 6
ENDMDL
MODEL 2
REMARK VINA RESULT:      -7.6      5.311      6.703
REMARK  Name = 
REMARK  7 active torsions:
REMARK  status: ('A' for Active; 'I' for Inactive)
REMARK    1  A    between atoms: C_1  and  C_2
REMARK    2  A    between atoms: C_7  and  N_8
REMARK    3  A    between atoms: N_8  and  C_9
REMARK    4  A    between atoms: C_9  and  N_11
REMARK    5  A    between atoms: C_12  and  C_14
REMARK    6  A    between atoms: C_14  and  C_15
REMARK    7  A    between atoms: C_15  and  C_16
REMARK                            x       y       z     vdW  Elec       q    Type
REMARK                         _______ _______ _______ _____ _____    ______ ____
ROOT
ATOM      1  N   UNL     1       4.721   3.407  17.334  0.00  0.00    +0.000 N 
ATOM      2  C   UNL     1       5.744   4.138  17.914  0.00  0.00    +0.000 C 
ATOM      3  O   UNL     1       5.947   4.173  19.126  0.00  0.00    +0.000 OA
ATOM      4  H   UNL     1       4.747   3.260  16.332  0.00  0.00    +0.000 HD
ENDROOT
BRANCH   1   5
ATOM      5  C   UNL     1       3.556   2.953  17.923  0.00  0.00    +0.000 C 
ATOM      6  S   UNL     1       3.602   1.437  18.636  0.00  0.00    +0.000 S 
BRANCH   5   7
ATOM      7  N   UNL     1       2.477   3.804  17.858  0.00  0.00    +0.000 N 
ATOM      8  H   UNL     1       1.690   3.461  17.309  0.00  0.00    +0.000 HD
BRANCH   7  15
ATOM      9  C   UNL     1       1.244   3.734  20.558  0.00  0.00    +0.000 C 
ATOM     10  C   UNL     1       1.767   4.980  19.896  0.00  0.00    +0.000 A 
ATOM     11  C   UNL     1       1.651   6.191  20.608  0.00  0.00    +0.000 A 
ATOM     12  C   UNL     1       2.049   7.402  20.046  0.00  0.00    +0.000 A 
ATOM     13  C   UNL     1       2.551   7.425  18.753  0.00  0.00    +0.000 A 
ATOM     14  C   UNL     1       2.649   6.239  18.024  0.00  0.00    +0.000 A 
ATOM     15  C   UNL     1       2.258   5.008  18.573  0.00  0.00    +0.000 A 
ENDBRANCH   7  15
ENDBRANCH   5   7
ENDBRANCH   1   5
BRANCH   2  16
ATOM     16  C   UNL     1       6.629   4.889  16.935  0.00  0.00    +0.000 C 
BRANCH  16  17
ATOM     17  C   UNL     1       5.792   5.445  15.782  0.00  0.00    +0.000 C 
BRANCH  17  18
ATOM     18  C   UNL     1       6.180   4.951  14.405  0.00  0.00    +0.000 A 
ATOM     19  C   UNL     1       7.379   5.370  13.808  0.00  0.00    +0.000 A 
ATOM     20  C   UNL     1       7.810   4.814  12.598  0.00  0.00    +0.000 A 
ATOM     21  C   UNL     1       7.045   3.835  11.968  0.00  0.00    +0.000 A 
ATOM     22  C   UNL     1       5.841   3.427  12.535  0.00  0.00    +0.000 A 
ATOM     23  C   UNL     1       5.409   3.982  13.745  0.00  0.00    +0.000 A 
ENDBRANCH  17  18
ENDBRANCH  16  17
ENDBRANCH   2  16
TORSDOF 6
ENDMDL
MODEL 3
REMARK VINA RESULT:      -7.6      6.668      9.443
REMARK  Name = 
REMARK  7 active torsions:
REMARK  status: ('A' for Active; 'I' for Inactive)
REMARK    1  A    between atoms: C_1  and  C_2
REMARK    2  A    between atoms: C_7  and  N_8
REMARK    3  A    between atoms: N_8  and  C_9
REMARK    4  A    between atoms: C_9  and  N_11
REMARK    5  A    between atoms: C_12  and  C_14
REMARK    6  A    between atoms: C_14  and  C_15
REMARK    7  A    between atoms: C_15  and  C_16
REMARK                            x       y       z     vdW  Elec       q    Type
REMARK                         _______ _______ _______ _____ _____    ______ ____
ROOT
ATOM      1  N   UNL     1       1.289   9.019  19.480  0.00  0.00    +0.000 N 
ATOM      2  C   UNL     1       1.938   8.939  18.259  0.00  0.00    +0.000 C 
ATOM      3  O   UNL     1       2.113   9.908  17.523  0.00  0.00    +0.000 OA
ATOM      4  H   UNL     1       1.369   8.234  20.115  0.00  0.00    +0.000 HD
ENDROOT
BRANCH   1   5
ATOM      5  C   UNL     1       0.402   9.985  19.914  0.00  0.00    +0.000 C 
ATOM      6  S   UNL     1       0.096  10.053  21.560  0.00  0.00    +0.000 S 
BRANCH   5   7
ATOM      7  N   UNL     1      -0.136  10.792  18.939  0.00  0.00    +0.000 N 
ATOM      8  H   UNL     1       0.517  11.452  18.518  0.00  0.00    +0.000 HD
BRANCH   7  15
ATOM      9  C   UNL     1      -2.352  12.492  19.948  0.00  0.00    +0.000 C 
ATOM     10  C   UNL     1      -2.451  11.593  18.745  0.00  0.00    +0.000 A 
ATOM     11  C   UNL     1      -3.685  11.556  18.063  0.00  0.00    +0.000 A 
ATOM     12  C   UNL     1      -3.886  10.706  16.979  0.00  0.00    +0.000 A 
ATOM     13  C   UNL     1      -2.863   9.862  16.570  0.00  0.00    +0.000 A 
ATOM     14  C   UNL     1      -1.645   9.868  17.250  0.00  0.00    +0.000 A 
ATOM     15  C   UNL     1      -1.419  10.720  18.341  0.00  0.00    +0.000 A 
ENDBRANCH   7  15
ENDBRANCH   5   7
ENDBRANCH   1   5
BRANCH   2  16
ATOM     16  C   UNL     1       2.448   7.556  17.894  0.00  0.00    +0.000 C 
BRANCH  16  17
ATOM     17  C   UNL     1       2.757   6.753  19.158  0.00  0.00    +0.000 C 
BRANCH  17  18
ATOM     18  C   UNL     1       2.051   5.418  19.263  0.00  0.00    +0.000 A 
ATOM     19  C   UNL     1       1.897   4.601  18.133  0.00  0.00    +0.000 A 
ATOM     20  C   UNL     1       1.369   3.310  18.249  0.00  0.00    +0.000 A 
ATOM     21  C   UNL     1       0.986   2.821  19.496  0.00  0.00    +0.000 A 
ATOM     22  C   UNL     1       1.111   3.629  20.623  0.00  0.00    +0.000 A 
ATOM     23  C   UNL     1       1.639   4.920  20.509  0.00  0.00    +0.000 A 
ENDBRANCH  17  18
ENDBRANCH  16  17
ENDBRANCH   2  16
TORSDOF 6
ENDMDL
MODEL 4
REMARK VINA RESULT:      -7.6      1.052      1.484
REMARK  Name = 
REMARK  7 active torsions:
REMARK  status: ('A' for Active; 'I' for Inactive)
REMARK    1  A    between atoms: C_1  and  C_2
REMARK    2  A    between atoms: C_7  and  N_8
REMARK    3  A    between atoms: N_8  and  C_9
REMARK    4  A    between atoms: C_9  and  N_11
REMARK    5  A    between atoms: C_12  and  C_14
REMARK    6  A    between atoms: C_14  and  C_15
REMARK    7  A    between atoms: C_15  and  C_16
REMARK                            x       y       z     vdW  Elec       q    Type
REMARK                         _______ _______ _______ _____ _____    ______ ____
ROOT
ATOM      1  N   UNL     1       6.991   6.967  16.782  0.00  0.00    +0.000 N 
ATOM      2  C   UNL     1       7.696   7.455  17.869  0.00  0.00    +0.000 C 
ATOM      3  O   UNL     1       8.134   6.739  18.768  0.00  0.00    +0.000 OA
ATOM      4  H   UNL     1       6.849   7.581  15.990  0.00  0.00    +0.000 HD
ENDROOT
BRANCH   1   5
ATOM      5  C   UNL     1       6.309   5.770  16.675  0.00  0.00    +0.000 C 
ATOM      6  S   UNL     1       6.456   4.936  15.228  0.00  0.00    +0.000 S 
BRANCH   5   7
ATOM      7  N   UNL     1       5.578   5.391  17.777  0.00  0.00    +0.000 N 
ATOM      8  H   UNL     1       5.969   5.681  18.673  0.00  0.00    +0.000 HD
BRANCH   7  15
ATOM      9  C   UNL     1       3.170   7.074  18.207  0.00  0.00    +0.000 C 
ATOM     10  C   UNL     1       3.134   5.596  17.926  0.00  0.00    +0.000 A 
ATOM     11  C   UNL     1       1.868   4.977  17.873  0.00  0.00    +0.000 A 
ATOM     12  C   UNL     1       1.744   3.603  17.682  0.00  0.00    +0.000 A 
ATOM     13  C   UNL     1       2.883   2.821  17.561  0.00  0.00    +0.000 A 
ATOM     14  C   UNL     1       4.144   3.415  17.636  0.00  0.00    +0.000 A 
ATOM     15  C   UNL     1       4.292   4.797  17.823  0.00  0.00    +0.000 A 
ENDBRANCH   7  15
ENDBRANCH   5   7
ENDBRANCH   1   5
BRANCH   2  16
ATOM     16  C   UNL     1       7.915   8.958  17.867  0.00  0.00    +0.000 C 
BRANCH  16  17
ATOM     17  C   UNL     1       9.130   9.319  18.721  0.00  0.00    +0.000 C 
BRANCH  17  18
ATOM     18  C   UNL     1       9.195  10.762  19.177  0.00  0.00    +0.000 A 
ATOM     19  C   UNL     1       9.414  11.075  20.526  0.00  0.00    +0.000 A 
ATOM     20  C   UNL     1       9.610  12.399  20.932  0.00  0.00    +0.000 A 
ATOM     21  C   UNL     1       9.587  13.428  19.994  0.00  0.00    +0.000 A 
ATOM     22  C   UNL     1       9.346  13.136  18.653  0.00  0.00    +0.000 A 
ATOM     23  C   UNL     1       9.150  11.811  18.246  0.00  0.00    +0.000 A 
ENDBRANCH  17  18
ENDBRANCH  16  17
ENDBRANCH   2  16
TORSDOF 6
ENDMDL
MODEL 5
REMARK VINA RESULT:      -7.6      4.436      6.361
REMARK  Name = 
REMARK  7 active torsions:
REMARK  status: ('A' for Active; 'I' for Inactive)
REMARK    1  A    between atoms: C_1  and  C_2
REMARK    2  A    between atoms: C_7  and  N_8
REMARK    3  A    between atoms: N_8  and  C_9
REMARK    4  A    between atoms: C_9  and  N_11
REMARK    5  A    between atoms: C_12  and  C_14
REMARK    6  A    between atoms: C_14  and  C_15
REMARK    7  A    between atoms: C_15  and  C_16
REMARK                            x       y       z     vdW  Elec       q    Type
REMARK                         _______ _______ _______ _____ _____    ______ ____
ROOT
ATOM      1  N   UNL     1       3.194   4.567  19.142  0.00  0.00    +0.000 N 
ATOM      2  C   UNL     1       2.858   4.004  17.923  0.00  0.00    +0.000 C 
ATOM      3  O   UNL     1       1.742   4.105  17.417  0.00  0.00    +0.000 OA
ATOM      4  H   UNL     1       4.175   4.620  19.390  0.00  0.00    +0.000 HD
ENDROOT
BRANCH   1   5
ATOM      5  C   UNL     1       2.351   4.951  20.167  0.00  0.00    +0.000 C 
ATOM      6  S   UNL     1       1.403   3.757  20.862  0.00  0.00    +0.000 S 
BRANCH   5   7
ATOM      7  N   UNL     1       2.384   6.284  20.508  0.00  0.00    +0.000 N 
ATOM      8  H   UNL     1       2.814   6.487  21.409  0.00  0.00    +0.000 HD
BRANCH   7  15
ATOM      9  C   UNL     1       0.650   8.428  21.608  0.00  0.00    +0.000 C 
ATOM     10  C   UNL     1       1.308   8.479  20.256  0.00  0.00    +0.000 A 
ATOM     11  C   UNL     1       1.073   9.620  19.463  0.00  0.00    +0.000 A 
ATOM     12  C   UNL     1       1.590   9.724  18.173  0.00  0.00    +0.000 A 
ATOM     13  C   UNL     1       2.334   8.677  17.647  0.00  0.00    +0.000 A 
ATOM     14  C   UNL     1       2.554   7.530  18.409  0.00  0.00    +0.000 A 
ATOM     15  C   UNL     1       2.047   7.407  19.712  0.00  0.00    +0.000 A 
ENDBRANCH   7  15
ENDBRANCH   5   7
ENDBRANCH   1   5
BRANCH   2  16
ATOM     16  C   UNL     1       3.985   3.258  17.230  0.00  0.00    +0.000 C 
BRANCH  16  17
ATOM     17  C   UNL     1       4.767   4.205  16.319  0.00  0.00    +0.000 C 
BRANCH  17  18
ATOM     18  C   UNL     1       5.734   5.131  17.028  0.00  0.00    +0.000 A 
ATOM     19  C   UNL     1       6.699   4.618  17.906  0.00  0.00    +0.000 A 
ATOM     20  C   UNL     1       7.680   5.450  18.457  0.00  0.00    +0.000 A 
ATOM     21  C   UNL     1       7.706   6.806  18.140  0.00  0.00    +0.000 A 
ATOM     22  C   UNL     1       6.739   7.335  17.288  0.00  0.00    +0.000 A 
ATOM     23  C   UNL     1       5.757   6.503  16.736  0.00  0.00    +0.000 A 
ENDBRANCH  17  18
ENDBRANCH  16  17
ENDBRANCH   2  16
TORSDOF 6
ENDMDL
MODEL 6
REMARK VINA RESULT:      -7.5      0.862      1.769
REMARK  Name = 
REMARK  7 active torsions:
REMARK  status: ('A' for Active; 'I' for Inactive)
REMARK    1  A    between atoms: C_1  and  C_2
REMARK    2  A    between atoms: C_7  and  N_8
REMARK    3  A    between atoms: N_8  and  C_9
REMARK    4  A    between atoms: C_9  and  N_11
REMARK    5  A    between atoms: C_12  and  C_14
REMARK    6  A    between atoms: C_14  and  C_15
REMARK    7  A    between atoms: C_15  and  C_16
REMARK                            x       y       z     vdW  Elec       q    Type
REMARK                         _______ _______ _______ _____ _____    ______ ____
ROOT
ATOM      1  N   UNL     1       7.415   6.836  16.583  0.00  0.00    +0.000 N 
ATOM      2  C   UNL     1       7.829   7.354  17.798  0.00  0.00    +0.000 C 
ATOM      3  O   UNL     1       7.973   6.671  18.811  0.00  0.00    +0.000 OA
ATOM      4  H   UNL     1       7.521   7.411  15.757  0.00  0.00    +0.000 HD
ENDROOT
BRANCH   1   5
ATOM      5  C   UNL     1       6.723   5.663  16.346  0.00  0.00    +0.000 C 
ATOM      6  S   UNL     1       6.972   4.918  14.866  0.00  0.00    +0.000 S 
BRANCH   5   7
ATOM      7  N   UNL     1       5.901   5.232  17.361  0.00  0.00    +0.000 N 
ATOM      8  H   UNL     1       6.374   4.738  18.117  0.00  0.00    +0.000 HD
BRANCH   7  15
ATOM      9  C   UNL     1       3.932   3.021  17.585  0.00  0.00    +0.000 C 
ATOM     10  C   UNL     1       3.600   4.476  17.775  0.00  0.00    +0.000 A 
ATOM     11  C   UNL     1       2.260   4.802  18.071  0.00  0.00    +0.000 A 
ATOM     12  C   UNL     1       1.851   6.128  18.200  0.00  0.00    +0.000 A 
ATOM     13  C   UNL     1       2.770   7.150  18.015  0.00  0.00    +0.000 A 
ATOM     14  C   UNL     1       4.093   6.845  17.697  0.00  0.00    +0.000 A 
ATOM     15  C   UNL     1       4.528   5.518  17.567  0.00  0.00    +0.000 A 
ENDBRANCH   7  15
ENDBRANCH   5   7
ENDBRANCH   1   5
BRANCH   2  16
ATOM     16  C   UNL     1       8.119   8.845  17.793  0.00  0.00    +0.000 C 
BRANCH  16  17
ATOM     17  C   UNL     1       8.894   9.240  19.049  0.00  0.00    +0.000 C 
BRANCH  17  18
ATOM     18  C   UNL     1       9.520  10.618  19.016  0.00  0.00    +0.000 A 
ATOM     19  C   UNL     1       9.954  11.176  17.804  0.00  0.00    +0.000 A 
ATOM     20  C   UNL     1      10.407  12.499  17.745  0.00  0.00    +0.000 A 
ATOM     21  C   UNL     1      10.434  13.280  18.898  0.00  0.00    +0.000 A 
ATOM     22  C   UNL     1      10.029  12.733  20.113  0.00  0.00    +0.000 A 
ATOM     23  C   UNL     1       9.576  11.410  20.173  0.00  0.00    +0.000 A 
ENDBRANCH  17  18
ENDBRANCH  16  17
ENDBRANCH   2  16
TORSDOF 6
ENDMDL
MODEL 7
REMARK VINA RESULT:      -7.5      1.324      2.298
REMARK  Name = 
REMARK  7 active torsions:
REMARK  status: ('A' for Active; 'I' for Inactive)
REMARK    1  A    between atoms: C_1  and  C_2
REMARK    2  A    between atoms: C_7  and  N_8
REMARK    3  A    between atoms: N_8  and  C_9
REMARK    4  A    between atoms: C_9  and  N_11
REMARK    5  A    between atoms: C_12  and  C_14
REMARK    6  A    between atoms: C_14  and  C_15
REMARK    7  A    between atoms: C_15  and  C_16
REMARK                            x       y       z     vdW  Elec       q    Type
REMARK                         _______ _______ _______ _____ _____    ______ ____
ROOT
ATOM      1  N   UNL     1       7.230   6.116  18.610  0.00  0.00    +0.000 N 
ATOM      2  C   UNL     1       7.443   7.318  17.958  0.00  0.00    +0.000 C 
ATOM      3  O   UNL     1       6.815   7.665  16.958  0.00  0.00    +0.000 OA
ATOM      4  H   UNL     1       7.630   5.996  19.533  0.00  0.00    +0.000 HD
ENDROOT
BRANCH   1   5
ATOM      5  C   UNL     1       6.652   4.964  18.112  0.00  0.00    +0.000 C 
ATOM      6  S   UNL     1       7.140   4.465  16.588  0.00  0.00    +0.000 S 
BRANCH   5   7
ATOM      7  N   UNL     1       5.733   4.348  18.929  0.00  0.00    +0.000 N 
ATOM      8  H   UNL     1       6.084   4.083  19.849  0.00  0.00    +0.000 HD
BRANCH   7  15
ATOM      9  C   UNL     1       4.347   1.946  19.990  0.00  0.00    +0.000 C 
ATOM     10  C   UNL     1       3.654   3.093  19.307  0.00  0.00    +0.000 A 
ATOM     11  C   UNL     1       2.255   3.009  19.157  0.00  0.00    +0.000 A 
ATOM     12  C   UNL     1       1.539   3.996  18.482  0.00  0.00    +0.000 A 
ATOM     13  C   UNL     1       2.215   5.072  17.925  0.00  0.00    +0.000 A 
ATOM     14  C   UNL     1       3.602   5.157  18.042  0.00  0.00    +0.000 A 
ATOM     15  C   UNL     1       4.341   4.178  18.723  0.00  0.00    +0.000 A 
ENDBRANCH   7  15
ENDBRANCH   5   7
ENDBRANCH   1   5
BRANCH   2  16
ATOM     16  C   UNL     1       8.505   8.206  18.581  0.00  0.00    +0.000 C 
BRANCH  16  17
ATOM     17  C   UNL     1       8.482   9.593  17.938  0.00  0.00    +0.000 C 
BRANCH  17  18
ATOM     18  C   UNL     1       9.353  10.633  18.614  0.00  0.00    +0.000 A 
ATOM     19  C   UNL     1       9.381  10.741  20.012  0.00  0.00    +0.000 A 
ATOM     20  C   UNL     1      10.282  11.604  20.646  0.00  0.00    +0.000 A 
ATOM     21  C   UNL     1      11.164  12.372  19.889  0.00  0.00    +0.000 A 
ATOM     22  C   UNL     1      11.131  12.293  18.499  0.00  0.00    +0.000 A 
ATOM     23  C   UNL     1      10.230  11.431  17.864  0.00  0.00    +0.000 A 
ENDBRANCH  17  18
ENDBRANCH  16  17
ENDBRANCH   2  16
TORSDOF 6
ENDMDL
MODEL 8
REMARK VINA RESULT:      -7.5      4.415      6.288
REMARK  Name = 
REMARK  7 active torsions:
REMARK  status: ('A' for Active; 'I' for Inactive)
REMARK    1  A    between atoms: C_1  and  C_2
REMARK    2  A    between atoms: C_7  and  N_8
REMARK    3  A    between atoms: N_8  and  C_9
REMARK    4  A    between atoms: C_9  and  N_11
REMARK    5  A    between atoms: C_12  and  C_14
REMARK    6  A    between atoms: C_14  and  C_15
REMARK    7  A    between atoms: C_15  and  C_16
REMARK                            x       y       z     vdW  Elec       q    Type
REMARK                         _______ _______ _______ _____ _____    ______ ____
ROOT
ATOM      1  N   UNL     1       3.280   4.702  19.092  0.00  0.00    +0.000 N 
ATOM      2  C   UNL     1       2.910   4.067  17.919  0.00  0.00    +0.000 C 
ATOM      3  O   UNL     1       1.761   4.070  17.483  0.00  0.00    +0.000 OA
ATOM      4  H   UNL     1       4.268   4.832  19.274  0.00  0.00    +0.000 HD
ENDROOT
BRANCH   1   5
ATOM      5  C   UNL     1       2.477   5.069  20.155  0.00  0.00    +0.000 C 
ATOM      6  S   UNL     1       1.593   3.855  20.898  0.00  0.00    +0.000 S 
BRANCH   5   7
ATOM      7  N   UNL     1       2.493   6.404  20.489  0.00  0.00    +0.000 N 
ATOM      8  H   UNL     1       2.973   6.623  21.361  0.00  0.00    +0.000 HD
BRANCH   7  15
ATOM      9  C   UNL     1       0.584   8.380  21.616  0.00  0.00    +0.000 C 
ATOM     10  C   UNL     1       1.248   8.511  20.272  0.00  0.00    +0.000 A 
ATOM     11  C   UNL     1       0.929   9.647  19.500  0.00  0.00    +0.000 A 
ATOM     12  C   UNL     1       1.447   9.818  18.218  0.00  0.00    +0.000 A 
ATOM     13  C   UNL     1       2.275   8.846  17.678  0.00  0.00    +0.000 A 
ATOM     14  C   UNL     1       2.580   7.703  18.418  0.00  0.00    +0.000 A 
ATOM     15  C   UNL     1       2.074   7.514  19.713  0.00  0.00    +0.000 A 
ENDBRANCH   7  15
ENDBRANCH   5   7
ENDBRANCH   1   5
BRANCH   2  16
ATOM     16  C   UNL     1       4.042   3.372  17.183  0.00  0.00    +0.000 C 
BRANCH  16  17
ATOM     17  C   UNL     1       4.750   4.354  16.249  0.00  0.00    +0.000 C 
BRANCH  17  18
ATOM     18  C   UNL     1       5.857   5.168  16.887  0.00  0.00    +0.000 A 
ATOM     19  C   UNL     1       6.011   6.528  16.580  0.00  0.00    +0.000 A 
ATOM     20  C   UNL     1       6.942   7.316  17.265  0.00  0.00    +0.000 A 
ATOM     21  C   UNL     1       7.733   6.754  18.264  0.00  0.00    +0.000 A 
ATOM     22  C   UNL     1       7.609   5.400  18.564  0.00  0.00    +0.000 A 
ATOM     23  C   UNL     1       6.678   4.610  17.879  0.00  0.00    +0.000 A 
ENDBRANCH  17  18
ENDBRANCH  16  17
ENDBRANCH   2  16
TORSDOF 6
ENDMDL
MODEL 9
REMARK VINA RESULT:      -7.4      1.407      1.637
REMARK  Name = 
REMARK  7 active torsions:
REMARK  status: ('A' for Active; 'I' for Inactive)
REMARK    1  A    between atoms: C_1  and  C_2
REMARK    2  A    between atoms: C_7  and  N_8
REMARK    3  A    between atoms: N_8  and  C_9
REMARK    4  A    between atoms: C_9  and  N_11
REMARK    5  A    between atoms: C_12  and  C_14
REMARK    6  A    between atoms: C_14  and  C_15
REMARK    7  A    between atoms: C_15  and  C_16
REMARK                            x       y       z     vdW  Elec       q    Type
REMARK                         _______ _______ _______ _____ _____    ______ ____
ROOT
ATOM      1  N   UNL     1       7.093   5.833  18.289  0.00  0.00    +0.000 N 
ATOM      2  C   UNL     1       7.187   7.089  17.715  0.00  0.00    +0.000 C 
ATOM      3  O   UNL     1       6.441   7.480  16.819  0.00  0.00    +0.000 OA
ATOM      4  H   UNL     1       7.596   5.663  19.152  0.00  0.00    +0.000 HD
ENDROOT
BRANCH   1   5
ATOM      5  C   UNL     1       6.507   4.696  17.766  0.00  0.00    +0.000 C 
ATOM      6  S   UNL     1       6.866   4.317  16.174  0.00  0.00    +0.000 S 
BRANCH   5   7
ATOM      7  N   UNL     1       5.686   3.994  18.618  0.00  0.00    +0.000 N 
ATOM      8  H   UNL     1       6.109   3.739  19.510  0.00  0.00    +0.000 HD
BRANCH   7  15
ATOM      9  C   UNL     1       3.678   6.057  19.345  0.00  0.00    +0.000 C 
ATOM     10  C   UNL     1       3.343   4.725  18.731  0.00  0.00    +0.000 A 
ATOM     11  C   UNL     1       1.981   4.443  18.498  0.00  0.00    +0.000 A 
ATOM     12  C   UNL     1       1.574   3.210  17.992  0.00  0.00    +0.000 A 
ATOM     13  C   UNL     1       2.521   2.230  17.732  0.00  0.00    +0.000 A 
ATOM     14  C   UNL     1       3.870   2.483  17.982  0.00  0.00    +0.000 A 
ATOM     15  C   UNL     1       4.302   3.720  18.485  0.00  0.00    +0.000 A 
ENDBRANCH   7  15
ENDBRANCH   5   7
ENDBRANCH   1   5
BRANCH   2  16
ATOM     16  C   UNL     1       8.279   7.975  18.289  0.00  0.00    +0.000 C 
BRANCH  16  17
ATOM     17  C   UNL     1       8.177   9.386  17.710  0.00  0.00    +0.000 C 
BRANCH  17  18
ATOM     18  C   UNL     1       8.955  10.449  18.457  0.00  0.00    +0.000 A 
ATOM     19  C   UNL     1       9.169  11.712  17.885  0.00  0.00    +0.000 A 
ATOM     20  C   UNL     1       9.766  12.740  18.621  0.00  0.00    +0.000 A 
ATOM     21  C   UNL     1      10.160  12.519  19.939  0.00  0.00    +0.000 A 
ATOM     22  C   UNL     1       9.977  11.263  20.513  0.00  0.00    +0.000 A 
ATOM     23  C   UNL     1       9.379  10.233  19.777  0.00  0.00    +0.000 A 
ENDBRANCH  17  18
ENDBRANCH  16  17
ENDBRANCH   2  16
TORSDOF 6
ENDMDL
