MODEL 1
REMARK VINA RESULT:      -8.6      0.000      0.000
REMARK  Name = 
REMARK  2 active torsions:
REMARK  status: ('A' for Active; 'I' for Inactive)
REMARK    1  A    between atoms: C_8  and  C_9
REMARK    2  A    between atoms: C_10  and  C_11
REMARK                            x       y       z     vdW  Elec       q    Type
REMARK                         _______ _______ _______ _____ _____    ______ ____
ROOT
ATOM      1  N   UNL     1       4.463   2.757  17.451  0.00  0.00    +0.000 N 
ATOM      2  C   UNL     1       5.112   3.968  17.342  0.00  0.00    +0.000 A 
ATOM      3  N   UNL     1       4.768   4.766  16.334  0.00  0.00    +0.000 NA
ATOM      4  C   UNL     1       5.403   5.952  16.264  0.00  0.00    +0.000 A 
ATOM      5  N   UNL     1       5.076   6.746  15.149  0.00  0.00    +0.000 N 
ATOM      6  C   UNL     1       6.383   6.376  17.161  0.00  0.00    +0.000 A 
ATOM      7  N   UNL     1       6.978   7.603  17.104  0.00  0.00    +0.000 NA
ATOM      8  C   UNL     1       7.918   7.905  18.022  0.00  0.00    +0.000 A 
ATOM      9  C   UNL     1       8.304   7.000  18.999  0.00  0.00    +0.000 A 
ATOM     10  C   UNL     1       7.666   5.759  19.047  0.00  0.00    +0.000 A 
ATOM     11  C   UNL     1       6.677   5.424  18.137  0.00  0.00    +0.000 A 
ATOM     12  N   UNL     1       6.064   4.235  18.236  0.00  0.00    +0.000 NA
ATOM     13  H   UNL     1       4.110   2.468  16.550  0.00  0.00    +0.000 HD
ATOM     14  H   UNL     1       5.040   2.099  17.957  0.00  0.00    +0.000 HD
ATOM     15  H   UNL     1       4.256   6.364  14.692  0.00  0.00    +0.000 HD
ATOM     16  H   UNL     1       5.009   7.725  15.407  0.00  0.00    +0.000 HD
ENDROOT
BRANCH   8  17
ATOM     17  C   UNL     1       8.521   9.243  17.964  0.00  0.00    +0.000 C 
ATOM     18  C   UNL     1       9.114   9.832  19.015  0.00  0.00    +0.000 C 
BRANCH  18  19
ATOM     19  C   UNL     1       9.692  11.172  18.925  0.00  0.00    +0.000 A 
ATOM     20  C   UNL     1       9.214  12.071  17.965  0.00  0.00    +0.000 A 
ATOM     21  C   UNL     1       9.752  13.356  17.873  0.00  0.00    +0.000 A 
ATOM     22  C   UNL     1      10.772  13.740  18.742  0.00  0.00    +0.000 A 
ATOM     23 BR   UNL     1      11.498  15.482  18.624  0.00  0.00    +0.000 Br
ATOM     24  C   UNL     1      11.260  12.851  19.699  0.00  0.00    +0.000 A 
ATOM     25  C   UNL     1      10.719  11.566  19.789  0.00  0.00    +0.000 A 
ENDBRANCH  18  19
ENDBRANCH   8  17
TORSDOF 2
ENDMDL
MODEL 2
REMARK VINA RESULT:      -8.3      0.271      1.090
REMARK  Name = 
REMARK  2 active torsions:
REMARK  status: ('A' for Active; 'I' for Inactive)
REMARK    1  A    between atoms: C_8  and  C_9
REMARK    2  A    between atoms: C_10  and  C_11
REMARK                            x       y       z     vdW  Elec       q    Type
REMARK                         _______ _______ _______ _____ _____    ______ ____
ROOT
ATOM      1  N   UNL     1       4.143   2.757  17.635  0.00  0.00    +0.000 N 
ATOM      2  C   UNL     1       4.883   3.911  17.486  0.00  0.00    +0.000 A 
ATOM      3  N   UNL     1       4.638   4.671  16.422  0.00  0.00    +0.000 NA
ATOM      4  C   UNL     1       5.359   5.802  16.314  0.00  0.00    +0.000 A 
ATOM      5  N   UNL     1       5.136   6.552  15.144  0.00  0.00    +0.000 N 
ATOM      6  C   UNL     1       6.332   6.208  17.228  0.00  0.00    +0.000 A 
ATOM      7  N   UNL     1       7.017   7.384  17.129  0.00  0.00    +0.000 NA
ATOM      8  C   UNL     1       7.940   7.673  18.069  0.00  0.00    +0.000 A 
ATOM      9  C   UNL     1       8.220   6.801  19.110  0.00  0.00    +0.000 A 
ATOM     10  C   UNL     1       7.492   5.613  19.199  0.00  0.00    +0.000 A 
ATOM     11  C   UNL     1       6.517   5.297  18.267  0.00  0.00    +0.000 A 
ATOM     12  N   UNL     1       5.816   4.161  18.404  0.00  0.00    +0.000 NA
ATOM     13  H   UNL     1       3.806   2.442  16.737  0.00  0.00    +0.000 HD
ATOM     14  H   UNL     1       4.650   2.091  18.201  0.00  0.00    +0.000 HD
ATOM     15  H   UNL     1       4.308   6.202  14.673  0.00  0.00    +0.000 HD
ATOM     16  H   UNL     1       5.131   7.546  15.344  0.00  0.00    +0.000 HD
ENDROOT
BRANCH   8  17
ATOM     17  C   UNL     1       8.641   8.959  17.963  0.00  0.00    +0.000 C 
ATOM     18  C   UNL     1       8.871   9.763  19.013  0.00  0.00    +0.000 C 
BRANCH  18  19
ATOM     19  C   UNL     1       9.561  11.044  18.869  0.00  0.00    +0.000 A 
ATOM     20  C   UNL     1      10.649  11.343  19.698  0.00  0.00    +0.000 A 
ATOM     21  C   UNL     1      11.321  12.559  19.566  0.00  0.00    +0.000 A 
ATOM     22  C   UNL     1      10.904  13.478  18.604  0.00  0.00    +0.000 A 
ATOM     23 BR   UNL     1      11.818  15.122  18.419  0.00  0.00    +0.000 Br
ATOM     24  C   UNL     1       9.819  13.192  17.777  0.00  0.00    +0.000 A 
ATOM     25  C   UNL     1       9.147  11.974  17.910  0.00  0.00    +0.000 A 
ENDBRANCH  18  19
ENDBRANCH   8  17
TORSDOF 2
ENDMDL
MODEL 3
REMARK VINA RESULT:      -8.2      6.645      8.030
REMARK  Name = 
REMARK  2 active torsions:
REMARK  status: ('A' for Active; 'I' for Inactive)
REMARK    1  A    between atoms: C_8  and  C_9
REMARK    2  A    between atoms: C_10  and  C_11
REMARK                            x       y       z     vdW  Elec       q    Type
REMARK                         _______ _______ _______ _____ _____    ______ ____
ROOT
ATOM      1  N   UNL     1       3.972   0.925  18.209  0.00  0.00    +0.000 N 
ATOM      2  C   UNL     1       3.394   2.103  18.630  0.00  0.00    +0.000 A 
ATOM      3  N   UNL     1       2.374   2.022  19.481  0.00  0.00    +0.000 NA
ATOM      4  C   UNL     1       1.842   3.188  19.893  0.00  0.00    +0.000 A 
ATOM      5  N   UNL     1       0.718   3.076  20.733  0.00  0.00    +0.000 N 
ATOM      6  C   UNL     1       2.283   4.446  19.480  0.00  0.00    +0.000 A 
ATOM      7  N   UNL     1       1.765   5.619  19.949  0.00  0.00    +0.000 NA
ATOM      8  C   UNL     1       2.267   6.778  19.476  0.00  0.00    +0.000 A 
ATOM      9  C   UNL     1       3.271   6.804  18.520  0.00  0.00    +0.000 A 
ATOM     10  C   UNL     1       3.797   5.591  18.072  0.00  0.00    +0.000 A 
ATOM     11  C   UNL     1       3.325   4.381  18.555  0.00  0.00    +0.000 A 
ATOM     12  N   UNL     1       3.877   3.237  18.124  0.00  0.00    +0.000 NA
ATOM     13  H   UNL     1       3.310   0.166  18.282  0.00  0.00    +0.000 HD
ATOM     14  H   UNL     1       4.426   1.062  17.316  0.00  0.00    +0.000 HD
ATOM     15  H   UNL     1       0.627   2.117  21.047  0.00  0.00    +0.000 HD
ATOM     16  H   UNL     1       0.746   3.772  21.472  0.00  0.00    +0.000 HD
ENDROOT
BRANCH   8  17
ATOM     17  C   UNL     1       1.720   8.028  20.019  0.00  0.00    +0.000 C 
ATOM     18  C   UNL     1       0.884   8.074  21.068  0.00  0.00    +0.000 C 
BRANCH  18  19
ATOM     19  C   UNL     1       0.348   9.337  21.574  0.00  0.00    +0.000 A 
ATOM     20  C   UNL     1       0.632  10.531  20.900  0.00  0.00    +0.000 A 
ATOM     21  C   UNL     1       0.121  11.743  21.369  0.00  0.00    +0.000 A 
ATOM     22  C   UNL     1      -0.674  11.760  22.513  0.00  0.00    +0.000 A 
ATOM     23 BR   UNL     1      -1.373  13.399  23.144  0.00  0.00    +0.000 Br
ATOM     24  C   UNL     1      -0.960  10.577  23.195  0.00  0.00    +0.000 A 
ATOM     25  C   UNL     1      -0.448   9.365  22.724  0.00  0.00    +0.000 A 
ENDBRANCH  18  19
ENDBRANCH   8  17
TORSDOF 2
ENDMDL
MODEL 4
REMARK VINA RESULT:      -8.0      6.676      8.140
REMARK  Name = 
REMARK  2 active torsions:
REMARK  status: ('A' for Active; 'I' for Inactive)
REMARK    1  A    between atoms: C_8  and  C_9
REMARK    2  A    between atoms: C_10  and  C_11
REMARK                            x       y       z     vdW  Elec       q    Type
REMARK                         _______ _______ _______ _____ _____    ______ ____
ROOT
ATOM      1  N   UNL     1       3.927   0.856  18.208  0.00  0.00    +0.000 N 
ATOM      2  C   UNL     1       3.385   2.029  18.686  0.00  0.00    +0.000 A 
ATOM      3  N   UNL     1       2.433   1.939  19.612  0.00  0.00    +0.000 NA
ATOM      4  C   UNL     1       1.937   3.101  20.077  0.00  0.00    +0.000 A 
ATOM      5  N   UNL     1       0.881   2.980  21.000  0.00  0.00    +0.000 N 
ATOM      6  C   UNL     1       2.349   4.363  19.647  0.00  0.00    +0.000 A 
ATOM      7  N   UNL     1       1.870   5.531  20.168  0.00  0.00    +0.000 NA
ATOM      8  C   UNL     1       2.337   6.695  19.672  0.00  0.00    +0.000 A 
ATOM      9  C   UNL     1       3.266   6.731  18.642  0.00  0.00    +0.000 A 
ATOM     10  C   UNL     1       3.752   5.523  18.141  0.00  0.00    +0.000 A 
ATOM     11  C   UNL     1       3.316   4.308  18.644  0.00  0.00    +0.000 A 
ATOM     12  N   UNL     1       3.832   3.169  18.159  0.00  0.00    +0.000 NA
ATOM     13  H   UNL     1       3.271   0.097  18.323  0.00  0.00    +0.000 HD
ATOM     14  H   UNL     1       4.312   1.003  17.285  0.00  0.00    +0.000 HD
ATOM     15  H   UNL     1       0.812   2.017  21.308  0.00  0.00    +0.000 HD
ATOM     16  H   UNL     1       0.967   3.667  21.742  0.00  0.00    +0.000 HD
ENDROOT
BRANCH   8  17
ATOM     17  C   UNL     1       1.836   7.939  20.270  0.00  0.00    +0.000 C 
ATOM     18  C   UNL     1       0.606   8.065  20.792  0.00  0.00    +0.000 C 
BRANCH  18  19
ATOM     19  C   UNL     1       0.136   9.323  21.368  0.00  0.00    +0.000 A 
ATOM     20  C   UNL     1      -0.505   9.320  22.613  0.00  0.00    +0.000 A 
ATOM     21  C   UNL     1      -0.952  10.516  23.178  0.00  0.00    +0.000 A 
ATOM     22  C   UNL     1      -0.759  11.716  22.496  0.00  0.00    +0.000 A 
ATOM     23 BR   UNL     1      -1.357  13.337  23.263  0.00  0.00    +0.000 Br
ATOM     24  C   UNL     1      -0.127  11.730  21.253  0.00  0.00    +0.000 A 
ATOM     25  C   UNL     1       0.321  10.532  20.690  0.00  0.00    +0.000 A 
ENDBRANCH  18  19
ENDBRANCH   8  17
TORSDOF 2
ENDMDL
MODEL 5
REMARK VINA RESULT:      -7.9      6.067      7.127
REMARK  Name = 
REMARK  2 active torsions:
REMARK  status: ('A' for Active; 'I' for Inactive)
REMARK    1  A    between atoms: C_8  and  C_9
REMARK    2  A    between atoms: C_10  and  C_11
REMARK                            x       y       z     vdW  Elec       q    Type
REMARK                         _______ _______ _______ _____ _____    ______ ____
ROOT
ATOM      1  N   UNL     1       4.012   0.666  18.413  0.00  0.00    +0.000 N 
ATOM      2  C   UNL     1       3.500   1.934  18.585  0.00  0.00    +0.000 A 
ATOM      3  N   UNL     1       2.424   2.066  19.357  0.00  0.00    +0.000 NA
ATOM      4  C   UNL     1       1.957   3.318  19.526  0.00  0.00    +0.000 A 
ATOM      5  N   UNL     1       0.777   3.425  20.284  0.00  0.00    +0.000 N 
ATOM      6  C   UNL     1       2.520   4.454  18.944  0.00  0.00    +0.000 A 
ATOM      7  N   UNL     1       2.064   5.721  19.168  0.00  0.00    +0.000 NA
ATOM      8  C   UNL     1       2.682   6.747  18.548  0.00  0.00    +0.000 A 
ATOM      9  C   UNL     1       3.746   6.543  17.681  0.00  0.00    +0.000 A 
ATOM     10  C   UNL     1       4.204   5.239  17.484  0.00  0.00    +0.000 A 
ATOM     11  C   UNL     1       3.611   4.164  18.125  0.00  0.00    +0.000 A 
ATOM     12  N   UNL     1       4.101   2.930  17.936  0.00  0.00    +0.000 NA
ATOM     13  H   UNL     1       3.291  -0.025  18.561  0.00  0.00    +0.000 HD
ATOM     14  H   UNL     1       4.532   0.617  17.547  0.00  0.00    +0.000 HD
ATOM     15  H   UNL     1       0.592   2.542  20.746  0.00  0.00    +0.000 HD
ATOM     16  H   UNL     1       0.810   4.234  20.896  0.00  0.00    +0.000 HD
ENDROOT
BRANCH   8  17
ATOM     17  C   UNL     1       2.199   8.105  18.830  0.00  0.00    +0.000 C 
ATOM     18  C   UNL     1       1.612   8.886  17.909  0.00  0.00    +0.000 C 
BRANCH  18  19
ATOM     19  C   UNL     1       1.154  10.239  18.223  0.00  0.00    +0.000 A 
ATOM     20  C   UNL     1       2.084  11.282  18.317  0.00  0.00    +0.000 A 
ATOM     21  C   UNL     1       1.659  12.579  18.608  0.00  0.00    +0.000 A 
ATOM     22  C   UNL     1       0.302  12.833  18.806  0.00  0.00    +0.000 A 
ATOM     23 BR   UNL     1      -0.275  14.591  19.193  0.00  0.00    +0.000 Br
ATOM     24  C   UNL     1      -0.631  11.801  18.720  0.00  0.00    +0.000 A 
ATOM     25  C   UNL     1      -0.204  10.503  18.427  0.00  0.00    +0.000 A 
ENDBRANCH  18  19
ENDBRANCH   8  17
TORSDOF 2
ENDMDL
MODEL 6
REMARK VINA RESULT:      -7.8      6.062      7.074
REMARK  Name = 
REMARK  2 active torsions:
REMARK  status: ('A' for Active; 'I' for Inactive)
REMARK    1  A    between atoms: C_8  and  C_9
REMARK    2  A    between atoms: C_10  and  C_11
REMARK                            x       y       z     vdW  Elec       q    Type
REMARK                         _______ _______ _______ _____ _____    ______ ____
ROOT
ATOM      1  N   UNL     1       3.979   0.650  18.388  0.00  0.00    +0.000 N 
ATOM      2  C   UNL     1       3.501   1.933  18.543  0.00  0.00    +0.000 A 
ATOM      3  N   UNL     1       2.434   2.106  19.319  0.00  0.00    +0.000 NA
ATOM      4  C   UNL     1       2.001   3.372  19.471  0.00  0.00    +0.000 A 
ATOM      5  N   UNL     1       0.829   3.522  20.235  0.00  0.00    +0.000 N 
ATOM      6  C   UNL     1       2.588   4.484  18.867  0.00  0.00    +0.000 A 
ATOM      7  N   UNL     1       2.167   5.766  19.073  0.00  0.00    +0.000 NA
ATOM      8  C   UNL     1       2.807   6.765  18.432  0.00  0.00    +0.000 A 
ATOM      9  C   UNL     1       3.859   6.519  17.563  0.00  0.00    +0.000 A 
ATOM     10  C   UNL     1       4.282   5.202  17.383  0.00  0.00    +0.000 A 
ATOM     11  C   UNL     1       3.666   4.153  18.046  0.00  0.00    +0.000 A 
ATOM     12  N   UNL     1       4.123   2.903  17.874  0.00  0.00    +0.000 NA
ATOM     13  H   UNL     1       3.241  -0.019  18.552  0.00  0.00    +0.000 HD
ATOM     14  H   UNL     1       4.492   0.574  17.520  0.00  0.00    +0.000 HD
ATOM     15  H   UNL     1       0.625   2.652  20.713  0.00  0.00    +0.000 HD
ATOM     16  H   UNL     1       0.887   4.340  20.833  0.00  0.00    +0.000 HD
ENDROOT
BRANCH   8  17
ATOM     17  C   UNL     1       2.361   8.139  18.696  0.00  0.00    +0.000 C 
ATOM     18  C   UNL     1       1.513   8.806  17.897  0.00  0.00    +0.000 C 
BRANCH  18  19
ATOM     19  C   UNL     1       1.099  10.179  18.184  0.00  0.00    +0.000 A 
ATOM     20  C   UNL     1      -0.258  10.472  18.359  0.00  0.00    +0.000 A 
ATOM     21  C   UNL     1      -0.666  11.778  18.641  0.00  0.00    +0.000 A 
ATOM     22  C   UNL     1       0.286  12.790  18.745  0.00  0.00    +0.000 A 
ATOM     23 BR   UNL     1      -0.264  14.557  19.134  0.00  0.00    +0.000 Br
ATOM     24  C   UNL     1       1.641  12.510  18.568  0.00  0.00    +0.000 A 
ATOM     25  C   UNL     1       2.046  11.203  18.287  0.00  0.00    +0.000 A 
ENDBRANCH  18  19
ENDBRANCH   8  17
TORSDOF 2
ENDMDL
MODEL 7
REMARK VINA RESULT:      -7.6      1.559      1.810
REMARK  Name = 
REMARK  2 active torsions:
REMARK  status: ('A' for Active; 'I' for Inactive)
REMARK    1  A    between atoms: C_8  and  C_9
REMARK    2  A    between atoms: C_10  and  C_11
REMARK                            x       y       z     vdW  Elec       q    Type
REMARK                         _______ _______ _______ _____ _____    ______ ____
ROOT
ATOM      1  N   UNL     1       2.787   2.724  17.428  0.00  0.00    +0.000 N 
ATOM      2  C   UNL     1       3.507   3.899  17.474  0.00  0.00    +0.000 A 
ATOM      3  N   UNL     1       2.844   5.021  17.739  0.00  0.00    +0.000 NA
ATOM      4  C   UNL     1       3.576   6.150  17.800  0.00  0.00    +0.000 A 
ATOM      5  N   UNL     1       2.844   7.334  18.008  0.00  0.00    +0.000 N 
ATOM      6  C   UNL     1       4.955   6.208  17.597  0.00  0.00    +0.000 A 
ATOM      7  N   UNL     1       5.687   7.354  17.714  0.00  0.00    +0.000 NA
ATOM      8  C   UNL     1       7.016   7.294  17.490  0.00  0.00    +0.000 A 
ATOM      9  C   UNL     1       7.643   6.111  17.128  0.00  0.00    +0.000 A 
ATOM     10  C   UNL     1       6.875   4.950  17.033  0.00  0.00    +0.000 A 
ATOM     11  C   UNL     1       5.512   4.969  17.283  0.00  0.00    +0.000 A 
ATOM     12  N   UNL     1       4.812   3.826  17.214  0.00  0.00    +0.000 NA
ATOM     13  H   UNL     1       1.820   2.917  17.208  0.00  0.00    +0.000 HD
ATOM     14  H   UNL     1       3.268   2.045  16.854  0.00  0.00    +0.000 HD
ATOM     15  H   UNL     1       1.895   7.099  18.280  0.00  0.00    +0.000 HD
ATOM     16  H   UNL     1       3.333   7.957  18.642  0.00  0.00    +0.000 HD
ENDROOT
BRANCH   8  17
ATOM     17  C   UNL     1       7.791   8.530  17.655  0.00  0.00    +0.000 C 
ATOM     18  C   UNL     1       8.503   8.814  18.757  0.00  0.00    +0.000 C 
BRANCH  18  19
ATOM     19  C   UNL     1       9.253  10.061  18.893  0.00  0.00    +0.000 A 
ATOM     20  C   UNL     1       9.649  10.761  17.747  0.00  0.00    +0.000 A 
ATOM     21  C   UNL     1      10.359  11.957  17.863  0.00  0.00    +0.000 A 
ATOM     22  C   UNL     1      10.674  12.453  19.126  0.00  0.00    +0.000 A 
ATOM     23 BR   UNL     1      11.630  14.077  19.284  0.00  0.00    +0.000 Br
ATOM     24  C   UNL     1      10.288  11.763  20.274  0.00  0.00    +0.000 A 
ATOM     25  C   UNL     1       9.577  10.566  20.157  0.00  0.00    +0.000 A 
ENDBRANCH  18  19
ENDBRANCH   8  17
TORSDOF 2
ENDMDL
MODEL 8
REMARK VINA RESULT:      -7.5      1.551      2.419
REMARK  Name = 
REMARK  2 active torsions:
REMARK  status: ('A' for Active; 'I' for Inactive)
REMARK    1  A    between atoms: C_8  and  C_9
REMARK    2  A    between atoms: C_10  and  C_11
REMARK                            x       y       z     vdW  Elec       q    Type
REMARK                         _______ _______ _______ _____ _____    ______ ____
ROOT
ATOM      1  N   UNL     1       2.743   1.994  17.454  0.00  0.00    +0.000 N 
ATOM      2  C   UNL     1       3.528   3.097  17.712  0.00  0.00    +0.000 A 
ATOM      3  N   UNL     1       3.186   3.873  18.738  0.00  0.00    +0.000 NA
ATOM      4  C   UNL     1       3.983   4.931  18.981  0.00  0.00    +0.000 A 
ATOM      5  N   UNL     1       3.560   5.778  20.022  0.00  0.00    +0.000 N 
ATOM      6  C   UNL     1       5.113   5.257  18.230  0.00  0.00    +0.000 A 
ATOM      7  N   UNL     1       5.937   6.304  18.524  0.00  0.00    +0.000 NA
ATOM      8  C   UNL     1       7.001   6.529  17.725  0.00  0.00    +0.000 A 
ATOM      9  C   UNL     1       7.261   5.740  16.615  0.00  0.00    +0.000 A 
ATOM     10  C   UNL     1       6.413   4.665  16.348  0.00  0.00    +0.000 A 
ATOM     11  C   UNL     1       5.326   4.388  17.161  0.00  0.00    +0.000 A 
ATOM     12  N   UNL     1       4.553   3.325  16.891  0.00  0.00    +0.000 NA
ATOM     13  H   UNL     1       1.811   2.138  17.813  0.00  0.00    +0.000 HD
ATOM     14  H   UNL     1       2.831   1.726  16.483  0.00  0.00    +0.000 HD
ATOM     15  H   UNL     1       2.822   5.323  20.548  0.00  0.00    +0.000 HD
ATOM     16  H   UNL     1       4.350   6.097  20.575  0.00  0.00    +0.000 HD
ENDROOT
BRANCH   8  17
ATOM     17  C   UNL     1       7.896   7.639  18.079  0.00  0.00    +0.000 C 
ATOM     18  C   UNL     1       7.589   8.929  17.871  0.00  0.00    +0.000 C 
BRANCH  18  19
ATOM     19  C   UNL     1       8.509  10.009  18.224  0.00  0.00    +0.000 A 
ATOM     20  C   UNL     1       8.480  11.209  17.504  0.00  0.00    +0.000 A 
ATOM     21  C   UNL     1       9.349  12.251  17.836  0.00  0.00    +0.000 A 
ATOM     22  C   UNL     1      10.248  12.090  18.888  0.00  0.00    +0.000 A 
ATOM     23 BR   UNL     1      11.420  13.503  19.343  0.00  0.00    +0.000 Br
ATOM     24  C   UNL     1      10.289  10.897  19.609  0.00  0.00    +0.000 A 
ATOM     25  C   UNL     1       9.419   9.856  19.276  0.00  0.00    +0.000 A 
ENDBRANCH  18  19
ENDBRANCH   8  17
TORSDOF 2
ENDMDL
MODEL 9
REMARK VINA RESULT:      -7.5      6.091      7.402
REMARK  Name = 
REMARK  2 active torsions:
REMARK  status: ('A' for Active; 'I' for Inactive)
REMARK    1  A    between atoms: C_8  and  C_9
REMARK    2  A    between atoms: C_10  and  C_11
REMARK                            x       y       z     vdW  Elec       q    Type
REMARK                         _______ _______ _______ _____ _____    ______ ____
ROOT
ATOM      1  N   UNL     1       6.423   3.234  15.353  0.00  0.00    +0.000 N 
ATOM      2  C   UNL     1       5.795   4.237  16.059  0.00  0.00    +0.000 A 
ATOM      3  N   UNL     1       6.437   5.394  16.195  0.00  0.00    +0.000 NA
ATOM      4  C   UNL     1       5.790   6.363  16.870  0.00  0.00    +0.000 A 
ATOM      5  N   UNL     1       6.518   7.552  17.065  0.00  0.00    +0.000 N 
ATOM      6  C   UNL     1       4.520   6.222  17.430  0.00  0.00    +0.000 A 
ATOM      7  N   UNL     1       3.859   7.232  18.067  0.00  0.00    +0.000 NA
ATOM      8  C   UNL     1       2.635   6.981  18.574  0.00  0.00    +0.000 A 
ATOM      9  C   UNL     1       2.049   5.727  18.482  0.00  0.00    +0.000 A 
ATOM     10  C   UNL     1       2.738   4.717  17.810  0.00  0.00    +0.000 A 
ATOM     11  C   UNL     1       3.986   4.946  17.252  0.00  0.00    +0.000 A 
ATOM     12  N   UNL     1       4.602   3.959  16.585  0.00  0.00    +0.000 NA
ATOM     13  H   UNL     1       7.424   3.367  15.376  0.00  0.00    +0.000 HD
ATOM     14  H   UNL     1       6.067   2.333  15.639  0.00  0.00    +0.000 HD
ATOM     15  H   UNL     1       7.344   7.541  16.478  0.00  0.00    +0.000 HD
ATOM     16  H   UNL     1       5.921   8.366  16.956  0.00  0.00    +0.000 HD
ENDROOT
BRANCH   8  17
ATOM     17  C   UNL     1       1.926   8.091  19.224  0.00  0.00    +0.000 C 
ATOM     18  C   UNL     1       1.541   8.069  20.510  0.00  0.00    +0.000 C 
BRANCH  18  19
ATOM     19  C   UNL     1       0.825   9.188  21.121  0.00  0.00    +0.000 A 
ATOM     20  C   UNL     1       0.781  10.424  20.466  0.00  0.00    +0.000 A 
ATOM     21  C   UNL     1       0.094  11.498  21.035  0.00  0.00    +0.000 A 
ATOM     22  C   UNL     1      -0.546  11.335  22.262  0.00  0.00    +0.000 A 
ATOM     23 BR   UNL     1      -1.482  12.788  23.030  0.00  0.00    +0.000 Br
ATOM     24  C   UNL     1      -0.504  10.110  22.926  0.00  0.00    +0.000 A 
ATOM     25  C   UNL     1       0.182   9.036  22.354  0.00  0.00    +0.000 A 
ENDBRANCH  18  19
ENDBRANCH   8  17
TORSDOF 2
ENDMDL
