MODEL 1
REMARK VINA RESULT:      -7.2      0.000      0.000
REMARK  Name = 
REMARK  9 active torsions:
REMARK  status: ('A' for Active; 'I' for Inactive)
REMARK    1  A    between atoms: C_1  and  N_2
REMARK    2  A    between atoms: N_2  and  C_3
REMARK    3  A    between atoms: N_2  and  C_11
REMARK    4  A    between atoms: C_3  and  C_4
REMARK    5  A    between atoms: C_4  and  C_5
REMARK    6  A    between atoms: N_8  and  C_9
REMARK    7  A    between atoms: C_11  and  C_12
REMARK    8  A    between atoms: C_14  and  C_15
REMARK    9  A    between atoms: C_15  and  C_16
REMARK                            x       y       z     vdW  Elec       q    Type
REMARK                         _______ _______ _______ _____ _____    ______ ____
ROOT
ATOM      1  C   UNL     1       5.881   5.339  19.161  0.00  0.00    +0.000 C 
ATOM      2  N   UNL     1       5.819   4.407  18.024  0.00  0.00    +0.000 NA
ENDROOT
BRANCH   2   3
ATOM      3  C   UNL     1       4.715   4.826  17.125  0.00  0.00    +0.000 C 
BRANCH   3   4
ATOM      4  C   UNL     1       3.562   5.581  17.819  0.00  0.00    +0.000 C 
BRANCH   4   5
ATOM      5  C   UNL     1       2.617   4.656  18.511  0.00  0.00    +0.000 A 
ATOM      6  C   UNL     1       1.530   3.949  17.949  0.00  0.00    +0.000 A 
ATOM      7  N   UNL     1       0.892   3.193  18.846  0.00  0.00    +0.000 NA
ATOM      8  N   UNL     1       1.561   3.420  19.988  0.00  0.00    +0.000 N 
ATOM      9  C   UNL     1       1.184   2.731  21.198  0.00  0.00    +0.000 C 
ATOM     10  C   UNL     1       2.596   4.299  19.843  0.00  0.00    +0.000 A 
ENDBRANCH   4   5
ENDBRANCH   3   4
ENDBRANCH   2   3
BRANCH   2  11
ATOM     11  C   UNL     1       7.109   4.378  17.295  0.00  0.00    +0.000 C 
BRANCH  11  12
ATOM     12  C   UNL     1       7.041   4.597  15.820  0.00  0.00    +0.000 A 
ATOM     13  N   UNL     1       6.509   3.822  14.902  0.00  0.00    +0.000 NA
ATOM     14  C   UNL     1       6.899   4.446  13.741  0.00  0.00    +0.000 A 
ATOM     15  N   UNL     1       7.609   5.567  13.911  0.00  0.00    +0.000 NA
ATOM     16  O   UNL     1       7.712   5.669  15.305  0.00  0.00    +0.000 OA
BRANCH  14  17
ATOM     17  C   UNL     1       6.574   3.877  12.405  0.00  0.00    +0.000 C 
BRANCH  17  18
ATOM     18  C   UNL     1       5.294   3.081  12.344  0.00  0.00    +0.000 C 
ATOM     19  C   UNL     1       4.283   3.277  11.238  0.00  0.00    +0.000 C 
ATOM     20  C   UNL     1       5.115   2.028  11.276  0.00  0.00    +0.000 C 
ENDBRANCH  17  18
ENDBRANCH  14  17
ENDBRANCH  11  12
ENDBRANCH   2  11
TORSDOF 7
ENDMDL
MODEL 2
REMARK VINA RESULT:      -7.2      1.578      1.959
REMARK  Name = 
REMARK  9 active torsions:
REMARK  status: ('A' for Active; 'I' for Inactive)
REMARK    1  A    between atoms: C_1  and  N_2
REMARK    2  A    between atoms: N_2  and  C_3
REMARK    3  A    between atoms: N_2  and  C_11
REMARK    4  A    between atoms: C_3  and  C_4
REMARK    5  A    between atoms: C_4  and  C_5
REMARK    6  A    between atoms: N_8  and  C_9
REMARK    7  A    between atoms: C_11  and  C_12
REMARK    8  A    between atoms: C_14  and  C_15
REMARK    9  A    between atoms: C_15  and  C_16
REMARK                            x       y       z     vdW  Elec       q    Type
REMARK                         _______ _______ _______ _____ _____    ______ ____
ROOT
ATOM      1  C   UNL     1       6.500   5.419  19.360  0.00  0.00    +0.000 C 
ATOM      2  N   UNL     1       5.981   4.724  18.172  0.00  0.00    +0.000 NA
ENDROOT
BRANCH   2   3
ATOM      3  C   UNL     1       4.800   3.917  18.571  0.00  0.00    +0.000 C 
BRANCH   3   4
ATOM      4  C   UNL     1       3.447   4.444  18.049  0.00  0.00    +0.000 C 
BRANCH   4   5
ATOM      5  C   UNL     1       2.707   5.224  19.083  0.00  0.00    +0.000 A 
ATOM      6  C   UNL     1       1.979   4.727  20.187  0.00  0.00    +0.000 A 
ATOM      7  N   UNL     1       1.446   5.700  20.930  0.00  0.00    +0.000 NA
ATOM      8  N   UNL     1       1.821   6.825  20.299  0.00  0.00    +0.000 N 
ATOM      9  C   UNL     1       1.463   8.113  20.840  0.00  0.00    +0.000 C 
ATOM     10  C   UNL     1       2.567   6.594  19.180  0.00  0.00    +0.000 A 
ENDBRANCH   4   5
ENDBRANCH   3   4
ENDBRANCH   2   3
BRANCH   2  11
ATOM     11  C   UNL     1       5.621   5.693  17.110  0.00  0.00    +0.000 C 
BRANCH  11  12
ATOM     12  C   UNL     1       6.214   5.448  15.762  0.00  0.00    +0.000 A 
ATOM     13  N   UNL     1       5.686   4.809  14.742  0.00  0.00    +0.000 NA
ATOM     14  C   UNL     1       6.741   4.756  13.862  0.00  0.00    +0.000 A 
ATOM     15  N   UNL     1       7.861   5.353  14.285  0.00  0.00    +0.000 NA
ATOM     16  O   UNL     1       7.514   5.813  15.561  0.00  0.00    +0.000 OA
BRANCH  14  17
ATOM     17  C   UNL     1       6.631   4.050  12.557  0.00  0.00    +0.000 C 
BRANCH  17  18
ATOM     18  C   UNL     1       5.475   3.087  12.446  0.00  0.00    +0.000 C 
ATOM     19  C   UNL     1       4.457   3.185  11.334  0.00  0.00    +0.000 C 
ATOM     20  C   UNL     1       5.455   2.063  11.336  0.00  0.00    +0.000 C 
ENDBRANCH  17  18
ENDBRANCH  14  17
ENDBRANCH  11  12
ENDBRANCH   2  11
TORSDOF 7
ENDMDL
MODEL 3
REMARK VINA RESULT:      -7.1      0.986      1.266
REMARK  Name = 
REMARK  9 active torsions:
REMARK  status: ('A' for Active; 'I' for Inactive)
REMARK    1  A    between atoms: C_1  and  N_2
REMARK    2  A    between atoms: N_2  and  C_3
REMARK    3  A    between atoms: N_2  and  C_11
REMARK    4  A    between atoms: C_3  and  C_4
REMARK    5  A    between atoms: C_4  and  C_5
REMARK    6  A    between atoms: N_8  and  C_9
REMARK    7  A    between atoms: C_11  and  C_12
REMARK    8  A    between atoms: C_14  and  C_15
REMARK    9  A    between atoms: C_15  and  C_16
REMARK                            x       y       z     vdW  Elec       q    Type
REMARK                         _______ _______ _______ _____ _____    ______ ____
ROOT
ATOM      1  C   UNL     1       6.302   5.379  19.371  0.00  0.00    +0.000 C 
ATOM      2  N   UNL     1       5.902   5.122  17.979  0.00  0.00    +0.000 NA
ENDROOT
BRANCH   2   3
ATOM      3  C   UNL     1       5.520   6.411  17.349  0.00  0.00    +0.000 C 
BRANCH   3   4
ATOM      4  C   UNL     1       4.019   6.557  17.025  0.00  0.00    +0.000 C 
BRANCH   4   5
ATOM      5  C   UNL     1       3.166   5.706  17.905  0.00  0.00    +0.000 A 
ATOM      6  C   UNL     1       2.656   6.022  19.185  0.00  0.00    +0.000 A 
ATOM      7  N   UNL     1       1.913   5.039  19.698  0.00  0.00    +0.000 NA
ATOM      8  N   UNL     1       1.952   4.084  18.754  0.00  0.00    +0.000 N 
ATOM      9  C   UNL     1       1.215   2.858  18.933  0.00  0.00    +0.000 C 
ATOM     10  C   UNL     1       2.701   4.430  17.666  0.00  0.00    +0.000 A 
ENDBRANCH   4   5
ENDBRANCH   3   4
ENDBRANCH   2   3
BRANCH   2  11
ATOM     11  C   UNL     1       7.000   4.474  17.226  0.00  0.00    +0.000 C 
BRANCH  11  12
ATOM     12  C   UNL     1       7.008   4.688  15.748  0.00  0.00    +0.000 A 
ATOM     13  N   UNL     1       6.370   4.009  14.821  0.00  0.00    +0.000 NA
ATOM     14  C   UNL     1       6.890   4.544  13.667  0.00  0.00    +0.000 A 
ATOM     15  N   UNL     1       7.781   5.525  13.849  0.00  0.00    +0.000 NA
ATOM     16  O   UNL     1       7.867   5.621  15.244  0.00  0.00    +0.000 OA
BRANCH  14  17
ATOM     17  C   UNL     1       6.502   4.028  12.326  0.00  0.00    +0.000 C 
BRANCH  17  18
ATOM     18  C   UNL     1       5.288   3.132  12.313  0.00  0.00    +0.000 C 
ATOM     19  C   UNL     1       4.290   3.156  11.178  0.00  0.00    +0.000 C 
ATOM     20  C   UNL     1       5.214   1.983  11.335  0.00  0.00    +0.000 C 
ENDBRANCH  17  18
ENDBRANCH  14  17
ENDBRANCH  11  12
ENDBRANCH   2  11
TORSDOF 7
ENDMDL
MODEL 4
REMARK VINA RESULT:      -6.9      1.385      1.582
REMARK  Name = 
REMARK  9 active torsions:
REMARK  status: ('A' for Active; 'I' for Inactive)
REMARK    1  A    between atoms: C_1  and  N_2
REMARK    2  A    between atoms: N_2  and  C_3
REMARK    3  A    between atoms: N_2  and  C_11
REMARK    4  A    between atoms: C_3  and  C_4
REMARK    5  A    between atoms: C_4  and  C_5
REMARK    6  A    between atoms: N_8  and  C_9
REMARK    7  A    between atoms: C_11  and  C_12
REMARK    8  A    between atoms: C_14  and  C_15
REMARK    9  A    between atoms: C_15  and  C_16
REMARK                            x       y       z     vdW  Elec       q    Type
REMARK                         _______ _______ _______ _____ _____    ______ ____
ROOT
ATOM      1  C   UNL     1       7.717   5.731  19.896  0.00  0.00    +0.000 C 
ATOM      2  N   UNL     1       7.489   5.050  18.612  0.00  0.00    +0.000 NA
ENDROOT
BRANCH   2   3
ATOM      3  C   UNL     1       6.155   4.401  18.648  0.00  0.00    +0.000 C 
BRANCH   3   4
ATOM      4  C   UNL     1       4.997   5.318  19.092  0.00  0.00    +0.000 C 
BRANCH   4   5
ATOM      5  C   UNL     1       3.662   4.751  18.742  0.00  0.00    +0.000 A 
ATOM      6  C   UNL     1       2.665   5.326  17.921  0.00  0.00    +0.000 A 
ATOM      7  N   UNL     1       1.587   4.547  17.802  0.00  0.00    +0.000 NA
ATOM      8  N   UNL     1       1.883   3.475  18.556  0.00  0.00    +0.000 N 
ATOM      9  C   UNL     1       0.958   2.372  18.643  0.00  0.00    +0.000 C 
ATOM     10  C   UNL     1       3.109   3.555  19.152  0.00  0.00    +0.000 A 
ENDBRANCH   4   5
ENDBRANCH   3   4
ENDBRANCH   2   3
BRANCH   2  11
ATOM     11  C   UNL     1       7.578   6.008  17.485  0.00  0.00    +0.000 C 
BRANCH  11  12
ATOM     12  C   UNL     1       6.941   5.584  16.202  0.00  0.00    +0.000 A 
ATOM     13  N   UNL     1       7.362   4.687  15.339  0.00  0.00    +0.000 NA
ATOM     14  C   UNL     1       6.479   4.855  14.300  0.00  0.00    +0.000 A 
ATOM     15  N   UNL     1       5.533   5.780  14.504  0.00  0.00    +0.000 NA
ATOM     16  O   UNL     1       5.844   6.276  15.777  0.00  0.00    +0.000 OA
BRANCH  14  17
ATOM     17  C   UNL     1       6.605   4.079  13.037  0.00  0.00    +0.000 C 
BRANCH  17  18
ATOM     18  C   UNL     1       5.450   3.156  12.736  0.00  0.00    +0.000 C 
ATOM     19  C   UNL     1       4.540   3.375  11.550  0.00  0.00    +0.000 C 
ATOM     20  C   UNL     1       5.517   2.236  11.540  0.00  0.00    +0.000 C 
ENDBRANCH  17  18
ENDBRANCH  14  17
ENDBRANCH  11  12
ENDBRANCH   2  11
TORSDOF 7
ENDMDL
MODEL 5
REMARK VINA RESULT:      -6.7      1.370      1.624
REMARK  Name = 
REMARK  9 active torsions:
REMARK  status: ('A' for Active; 'I' for Inactive)
REMARK    1  A    between atoms: C_1  and  N_2
REMARK    2  A    between atoms: N_2  and  C_3
REMARK    3  A    between atoms: N_2  and  C_11
REMARK    4  A    between atoms: C_3  and  C_4
REMARK    5  A    between atoms: C_4  and  C_5
REMARK    6  A    between atoms: N_8  and  C_9
REMARK    7  A    between atoms: C_11  and  C_12
REMARK    8  A    between atoms: C_14  and  C_15
REMARK    9  A    between atoms: C_15  and  C_16
REMARK                            x       y       z     vdW  Elec       q    Type
REMARK                         _______ _______ _______ _____ _____    ______ ____
ROOT
ATOM      1  C   UNL     1       3.553   7.346  17.764  0.00  0.00    +0.000 C 
ATOM      2  N   UNL     1       4.597   6.360  18.084  0.00  0.00    +0.000 NA
ENDROOT
BRANCH   2   3
ATOM      3  C   UNL     1       4.210   5.051  17.501  0.00  0.00    +0.000 C 
BRANCH   3   4
ATOM      4  C   UNL     1       2.692   4.778  17.466  0.00  0.00    +0.000 C 
BRANCH   4   5
ATOM      5  C   UNL     1       2.272   3.795  18.508  0.00  0.00    +0.000 A 
ATOM      6  C   UNL     1       2.113   2.397  18.366  0.00  0.00    +0.000 A 
ATOM      7  N   UNL     1       1.737   1.806  19.502  0.00  0.00    +0.000 NA
ATOM      8  N   UNL     1       1.642   2.823  20.375  0.00  0.00    +0.000 N 
ATOM      9  C   UNL     1       1.293   2.568  21.750  0.00  0.00    +0.000 C 
ATOM     10  C   UNL     1       1.940   4.037  19.825  0.00  0.00    +0.000 A 
ENDBRANCH   4   5
ENDBRANCH   3   4
ENDBRANCH   2   3
BRANCH   2  11
ATOM     11  C   UNL     1       5.913   6.800  17.563  0.00  0.00    +0.000 C 
BRANCH  11  12
ATOM     12  C   UNL     1       6.473   6.010  16.426  0.00  0.00    +0.000 A 
ATOM     13  N   UNL     1       6.077   5.987  15.174  0.00  0.00    +0.000 NA
ATOM     14  C   UNL     1       6.839   4.969  14.652  0.00  0.00    +0.000 A 
ATOM     15  N   UNL     1       7.691   4.401  15.513  0.00  0.00    +0.000 NA
ATOM     16  O   UNL     1       7.445   5.093  16.706  0.00  0.00    +0.000 OA
BRANCH  14  17
ATOM     17  C   UNL     1       6.684   4.526  13.240  0.00  0.00    +0.000 C 
BRANCH  17  18
ATOM     18  C   UNL     1       5.657   3.443  13.019  0.00  0.00    +0.000 C 
ATOM     19  C   UNL     1       4.676   3.495  11.871  0.00  0.00    +0.000 C 
ATOM     20  C   UNL     1       5.801   2.500  11.848  0.00  0.00    +0.000 C 
ENDBRANCH  17  18
ENDBRANCH  14  17
ENDBRANCH  11  12
ENDBRANCH   2  11
TORSDOF 7
ENDMDL
MODEL 6
REMARK VINA RESULT:      -6.6      3.133      4.581
REMARK  Name = 
REMARK  9 active torsions:
REMARK  status: ('A' for Active; 'I' for Inactive)
REMARK    1  A    between atoms: C_1  and  N_2
REMARK    2  A    between atoms: N_2  and  C_3
REMARK    3  A    between atoms: N_2  and  C_11
REMARK    4  A    between atoms: C_3  and  C_4
REMARK    5  A    between atoms: C_4  and  C_5
REMARK    6  A    between atoms: N_8  and  C_9
REMARK    7  A    between atoms: C_11  and  C_12
REMARK    8  A    between atoms: C_14  and  C_15
REMARK    9  A    between atoms: C_15  and  C_16
REMARK                            x       y       z     vdW  Elec       q    Type
REMARK                         _______ _______ _______ _____ _____    ______ ____
ROOT
ATOM      1  C   UNL     1       2.125   3.990  20.805  0.00  0.00    +0.000 C 
ATOM      2  N   UNL     1       2.162   3.855  19.340  0.00  0.00    +0.000 NA
ENDROOT
BRANCH   2   3
ATOM      3  C   UNL     1       2.307   5.205  18.742  0.00  0.00    +0.000 C 
BRANCH   3   4
ATOM      4  C   UNL     1       2.383   6.362  19.759  0.00  0.00    +0.000 C 
BRANCH   4   5
ATOM      5  C   UNL     1       2.138   7.690  19.123  0.00  0.00    +0.000 A 
ATOM      6  C   UNL     1       2.498   8.107  17.821  0.00  0.00    +0.000 A 
ATOM      7  N   UNL     1       2.116   9.359  17.560  0.00  0.00    +0.000 NA
ATOM      8  N   UNL     1       1.520   9.755  18.697  0.00  0.00    +0.000 N 
ATOM      9  C   UNL     1       0.929  11.067  18.787  0.00  0.00    +0.000 C 
ATOM     10  C   UNL     1       1.519   8.795  19.669  0.00  0.00    +0.000 A 
ENDBRANCH   4   5
ENDBRANCH   3   4
ENDBRANCH   2   3
BRANCH   2  11
ATOM     11  C   UNL     1       3.274   2.971  18.921  0.00  0.00    +0.000 C 
BRANCH  11  12
ATOM     12  C   UNL     1       4.526   3.649  18.470  0.00  0.00    +0.000 A 
ATOM     13  N   UNL     1       4.935   3.876  17.242  0.00  0.00    +0.000 NA
ATOM     14  C   UNL     1       6.204   4.362  17.449  0.00  0.00    +0.000 A 
ATOM     15  N   UNL     1       6.567   4.468  18.733  0.00  0.00    +0.000 NA
ATOM     16  O   UNL     1       5.446   3.985  19.421  0.00  0.00    +0.000 OA
BRANCH  14  17
ATOM     17  C   UNL     1       7.102   4.704  16.313  0.00  0.00    +0.000 C 
BRANCH  17  18
ATOM     18  C   UNL     1       6.401   4.980  15.006  0.00  0.00    +0.000 C 
ATOM     19  C   UNL     1       7.141   4.987  13.688  0.00  0.00    +0.000 C 
ATOM     20  C   UNL     1       6.201   3.861  14.011  0.00  0.00    +0.000 C 
ENDBRANCH  17  18
ENDBRANCH  14  17
ENDBRANCH  11  12
ENDBRANCH   2  11
TORSDOF 7
ENDMDL
MODEL 7
REMARK VINA RESULT:      -6.6      1.330      1.763
REMARK  Name = 
REMARK  9 active torsions:
REMARK  status: ('A' for Active; 'I' for Inactive)
REMARK    1  A    between atoms: C_1  and  N_2
REMARK    2  A    between atoms: N_2  and  C_3
REMARK    3  A    between atoms: N_2  and  C_11
REMARK    4  A    between atoms: C_3  and  C_4
REMARK    5  A    between atoms: C_4  and  C_5
REMARK    6  A    between atoms: N_8  and  C_9
REMARK    7  A    between atoms: C_11  and  C_12
REMARK    8  A    between atoms: C_14  and  C_15
REMARK    9  A    between atoms: C_15  and  C_16
REMARK                            x       y       z     vdW  Elec       q    Type
REMARK                         _______ _______ _______ _____ _____    ______ ____
ROOT
ATOM      1  C   UNL     1       5.567   6.642  16.883  0.00  0.00    +0.000 C 
ATOM      2  N   UNL     1       6.467   5.858  17.743  0.00  0.00    +0.000 NA
ENDROOT
BRANCH   2   3
ATOM      3  C   UNL     1       5.742   5.497  18.987  0.00  0.00    +0.000 C 
BRANCH   3   4
ATOM      4  C   UNL     1       5.381   4.003  19.119  0.00  0.00    +0.000 C 
BRANCH   4   5
ATOM      5  C   UNL     1       3.917   3.791  19.314  0.00  0.00    +0.000 A 
ATOM      6  C   UNL     1       3.063   4.440  20.234  0.00  0.00    +0.000 A 
ATOM      7  N   UNL     1       1.798   4.024  20.140  0.00  0.00    +0.000 NA
ATOM      8  N   UNL     1       1.837   3.098  19.168  0.00  0.00    +0.000 N 
ATOM      9  C   UNL     1       0.626   2.441  18.743  0.00  0.00    +0.000 C 
ATOM     10  C   UNL     1       3.087   2.912  18.649  0.00  0.00    +0.000 A 
ENDBRANCH   4   5
ENDBRANCH   3   4
ENDBRANCH   2   3
BRANCH   2  11
ATOM     11  C   UNL     1       6.942   4.643  17.040  0.00  0.00    +0.000 C 
BRANCH  11  12
ATOM     12  C   UNL     1       6.863   4.667  15.549  0.00  0.00    +0.000 A 
ATOM     13  N   UNL     1       6.125   3.923  14.757  0.00  0.00    +0.000 NA
ATOM     14  C   UNL     1       6.599   4.270  13.515  0.00  0.00    +0.000 A 
ATOM     15  N   UNL     1       7.558   5.202  13.515  0.00  0.00    +0.000 NA
ATOM     16  O   UNL     1       7.743   5.468  14.878  0.00  0.00    +0.000 OA
BRANCH  14  17
ATOM     17  C   UNL     1       6.091   3.617  12.278  0.00  0.00    +0.000 C 
BRANCH  17  18
ATOM     18  C   UNL     1       6.474   2.167  12.118  0.00  0.00    +0.000 C 
ATOM     19  C   UNL     1       5.861   1.292  11.048  0.00  0.00    +0.000 C 
ATOM     20  C   UNL     1       7.291   1.733  10.923  0.00  0.00    +0.000 C 
ENDBRANCH  17  18
ENDBRANCH  14  17
ENDBRANCH  11  12
ENDBRANCH   2  11
TORSDOF 7
ENDMDL
MODEL 8
REMARK VINA RESULT:      -6.6      3.584      5.327
REMARK  Name = 
REMARK  9 active torsions:
REMARK  status: ('A' for Active; 'I' for Inactive)
REMARK    1  A    between atoms: C_1  and  N_2
REMARK    2  A    between atoms: N_2  and  C_3
REMARK    3  A    between atoms: N_2  and  C_11
REMARK    4  A    between atoms: C_3  and  C_4
REMARK    5  A    between atoms: C_4  and  C_5
REMARK    6  A    between atoms: N_8  and  C_9
REMARK    7  A    between atoms: C_11  and  C_12
REMARK    8  A    between atoms: C_14  and  C_15
REMARK    9  A    between atoms: C_15  and  C_16
REMARK                            x       y       z     vdW  Elec       q    Type
REMARK                         _______ _______ _______ _____ _____    ______ ____
ROOT
ATOM      1  C   UNL     1       2.075   2.415  21.512  0.00  0.00    +0.000 C 
ATOM      2  N   UNL     1       2.463   2.695  20.120  0.00  0.00    +0.000 NA
ENDROOT
BRANCH   2   3
ATOM      3  C   UNL     1       1.838   3.974  19.700  0.00  0.00    +0.000 C 
BRANCH   3   4
ATOM      4  C   UNL     1       1.670   5.016  20.825  0.00  0.00    +0.000 C 
BRANCH   4   5
ATOM      5  C   UNL     1       1.698   6.415  20.306  0.00  0.00    +0.000 A 
ATOM      6  C   UNL     1       1.367   7.602  20.998  0.00  0.00    +0.000 A 
ATOM      7  N   UNL     1       1.512   8.693  20.243  0.00  0.00    +0.000 NA
ATOM      8  N   UNL     1       1.926   8.210  19.060  0.00  0.00    +0.000 N 
ATOM      9  C   UNL     1       2.238   9.111  17.978  0.00  0.00    +0.000 C 
ATOM     10  C   UNL     1       2.041   6.850  19.042  0.00  0.00    +0.000 A 
ENDBRANCH   4   5
ENDBRANCH   3   4
ENDBRANCH   2   3
BRANCH   2  11
ATOM     11  C   UNL     1       3.937   2.762  19.988  0.00  0.00    +0.000 C 
BRANCH  11  12
ATOM     12  C   UNL     1       4.466   3.624  18.889  0.00  0.00    +0.000 A 
ATOM     13  N   UNL     1       5.018   4.812  18.977  0.00  0.00    +0.000 NA
ATOM     14  C   UNL     1       5.138   5.169  17.655  0.00  0.00    +0.000 A 
ATOM     15  N   UNL     1       4.717   4.250  16.779  0.00  0.00    +0.000 NA
ATOM     16  O   UNL     1       4.259   3.213  17.603  0.00  0.00    +0.000 OA
BRANCH  14  17
ATOM     17  C   UNL     1       5.668   6.500  17.253  0.00  0.00    +0.000 C 
BRANCH  17  18
ATOM     18  C   UNL     1       7.172   6.611  17.236  0.00  0.00    +0.000 C 
ATOM     19  C   UNL     1       7.886   7.879  17.643  0.00  0.00    +0.000 C 
ATOM     20  C   UNL     1       7.936   6.675  18.537  0.00  0.00    +0.000 C 
ENDBRANCH  17  18
ENDBRANCH  14  17
ENDBRANCH  11  12
ENDBRANCH   2  11
TORSDOF 7
ENDMDL
MODEL 9
REMARK VINA RESULT:      -6.5      2.336      2.925
REMARK  Name = 
REMARK  9 active torsions:
REMARK  status: ('A' for Active; 'I' for Inactive)
REMARK    1  A    between atoms: C_1  and  N_2
REMARK    2  A    between atoms: N_2  and  C_3
REMARK    3  A    between atoms: N_2  and  C_11
REMARK    4  A    between atoms: C_3  and  C_4
REMARK    5  A    between atoms: C_4  and  C_5
REMARK    6  A    between atoms: N_8  and  C_9
REMARK    7  A    between atoms: C_11  and  C_12
REMARK    8  A    between atoms: C_14  and  C_15
REMARK    9  A    between atoms: C_15  and  C_16
REMARK                            x       y       z     vdW  Elec       q    Type
REMARK                         _______ _______ _______ _____ _____    ______ ____
ROOT
ATOM      1  C   UNL     1       5.111   4.009  18.973  0.00  0.00    +0.000 C 
ATOM      2  N   UNL     1       5.095   4.293  17.529  0.00  0.00    +0.000 NA
ENDROOT
BRANCH   2   3
ATOM      3  C   UNL     1       4.135   5.395  17.272  0.00  0.00    +0.000 C 
BRANCH   3   4
ATOM      4  C   UNL     1       2.817   5.308  18.069  0.00  0.00    +0.000 C 
BRANCH   4   5
ATOM      5  C   UNL     1       2.386   6.636  18.596  0.00  0.00    +0.000 A 
ATOM      6  C   UNL     1       2.041   6.971  19.925  0.00  0.00    +0.000 A 
ATOM      7  N   UNL     1       1.713   8.258  20.061  0.00  0.00    +0.000 NA
ATOM      8  N   UNL     1       1.834   8.752  18.817  0.00  0.00    +0.000 N 
ATOM      9  C   UNL     1       1.600  10.152  18.567  0.00  0.00    +0.000 C 
ATOM     10  C   UNL     1       2.223   7.817  17.900  0.00  0.00    +0.000 A 
ENDBRANCH   4   5
ENDBRANCH   3   4
ENDBRANCH   2   3
BRANCH   2  11
ATOM     11  C   UNL     1       6.449   4.652  17.048  0.00  0.00    +0.000 C 
BRANCH  11  12
ATOM     12  C   UNL     1       6.623   4.748  15.568  0.00  0.00    +0.000 A 
ATOM     13  N   UNL     1       6.052   4.026  14.630  0.00  0.00    +0.000 NA
ATOM     14  C   UNL     1       6.718   4.445  13.503  0.00  0.00    +0.000 A 
ATOM     15  N   UNL     1       7.635   5.398  13.708  0.00  0.00    +0.000 NA
ATOM     16  O   UNL     1       7.578   5.600  15.093  0.00  0.00    +0.000 OA
BRANCH  14  17
ATOM     17  C   UNL     1       6.448   3.842  12.170  0.00  0.00    +0.000 C 
BRANCH  17  18
ATOM     18  C   UNL     1       6.589   2.342  12.106  0.00  0.00    +0.000 C 
ATOM     19  C   UNL     1       5.684   1.489  11.246  0.00  0.00    +0.000 C 
ATOM     20  C   UNL     1       7.119   1.690  10.851  0.00  0.00    +0.000 C 
ENDBRANCH  17  18
ENDBRANCH  14  17
ENDBRANCH  11  12
ENDBRANCH   2  11
TORSDOF 7
ENDMDL
