MODEL 1
REMARK VINA RESULT:      -7.5      0.000      0.000
REMARK  Name = 
REMARK  8 active torsions:
REMARK  status: ('A' for Active; 'I' for Inactive)
REMARK    1  A    between atoms: C_1  and  C_2
REMARK    2  A    between atoms: C_5  and  C_6
REMARK    3  A    between atoms: C_6  and  C_7
REMARK    4  A    between atoms: C_6  and  C_8
REMARK    5  A    between atoms: C_6  and  N_9
REMARK    6  A    between atoms: N_9  and  C_10
REMARK    7  A    between atoms: C_10  and  C_11
REMARK    8  A    between atoms: C_14  and  C_15
REMARK                            x       y       z     vdW  Elec       q    Type
REMARK                         _______ _______ _______ _____ _____    ______ ____
ROOT
ATOM      1  C   UNL     1       3.276   6.860  18.050  0.00  0.00    +0.000 C 
ENDROOT
BRANCH   1   2
ATOM      2  C   UNL     1       2.382   8.034  18.304  0.00  0.00    +0.000 A 
ATOM      3  N   UNL     1       1.989   8.963  17.451  0.00  0.00    +0.000 NA
ATOM      4  C   UNL     1       1.207   9.788  18.219  0.00  0.00    +0.000 A 
ATOM      5  C   UNL     1       1.139   9.328  19.515  0.00  0.00    +0.000 A 
ATOM      6  O   UNL     1       1.905   8.191  19.578  0.00  0.00    +0.000 OA
BRANCH   5   7
ATOM      7  C   UNL     1       0.463   9.753  20.733  0.00  0.00    +0.000 A 
ATOM      8  C   UNL     1      -0.206  10.986  20.777  0.00  0.00    +0.000 A 
ATOM      9  C   UNL     1      -0.889  11.394  21.927  0.00  0.00    +0.000 A 
ATOM     10  C   UNL     1      -0.912  10.572  23.049  0.00  0.00    +0.000 A 
ATOM     11  C   UNL     1      -0.246   9.348  23.029  0.00  0.00    +0.000 A 
ATOM     12  C   UNL     1       0.440   8.944  21.879  0.00  0.00    +0.000 A 
ENDBRANCH   5   7
ENDBRANCH   1   2
BRANCH   1  13
ATOM     13  N   UNL     1       2.483   5.623  17.989  0.00  0.00    +0.000 NA
ATOM     14  H   UNL     1       1.785   5.668  18.733  0.00  0.00    +0.000 HD
BRANCH  13  15
ATOM     15  C   UNL     1       3.260   4.370  18.114  0.00  0.00    +0.000 C 
ATOM     16  C   UNL     1       2.414   3.173  17.622  0.00  0.00    +0.000 C 
ATOM     17  C   UNL     1       3.517   4.160  19.624  0.00  0.00    +0.000 C 
BRANCH  15  22
ATOM     18  C   UNL     1       6.355   4.008  14.252  0.00  0.00    +0.000 C 
ATOM     19  C   UNL     1       6.041   4.246  15.681  0.00  0.00    +0.000 A 
ATOM     20  C   UNL     1       6.930   4.512  16.702  0.00  0.00    +0.000 A 
ATOM     21  S   UNL     1       6.091   4.704  18.182  0.00  0.00    +0.000 S 
ATOM     22  C   UNL     1       4.598   4.396  17.369  0.00  0.00    +0.000 A 
ATOM     23  N   UNL     1       4.716   4.197  16.069  0.00  0.00    +0.000 NA
ENDBRANCH  15  22
ENDBRANCH  13  15
ENDBRANCH   1  13
TORSDOF 5
ENDMDL
MODEL 2
REMARK VINA RESULT:      -7.5      2.205      4.210
REMARK  Name = 
REMARK  8 active torsions:
REMARK  status: ('A' for Active; 'I' for Inactive)
REMARK    1  A    between atoms: C_1  and  C_2
REMARK    2  A    between atoms: C_5  and  C_6
REMARK    3  A    between atoms: C_6  and  C_7
REMARK    4  A    between atoms: C_6  and  C_8
REMARK    5  A    between atoms: C_6  and  N_9
REMARK    6  A    between atoms: N_9  and  C_10
REMARK    7  A    between atoms: C_10  and  C_11
REMARK    8  A    between atoms: C_14  and  C_15
REMARK                            x       y       z     vdW  Elec       q    Type
REMARK                         _______ _______ _______ _____ _____    ______ ____
ROOT
ATOM      1  C   UNL     1       4.303   3.768  16.667  0.00  0.00    +0.000 C 
ENDROOT
BRANCH   1   2
ATOM      2  C   UNL     1       3.883   4.499  17.904  0.00  0.00    +0.000 A 
ATOM      3  N   UNL     1       4.053   4.140  19.164  0.00  0.00    +0.000 NA
ATOM      4  C   UNL     1       3.467   5.163  19.867  0.00  0.00    +0.000 A 
ATOM      5  C   UNL     1       2.969   6.119  19.010  0.00  0.00    +0.000 A 
ATOM      6  O   UNL     1       3.232   5.691  17.733  0.00  0.00    +0.000 OA
BRANCH   5   7
ATOM      7  C   UNL     1       2.290   7.399  19.165  0.00  0.00    +0.000 A 
ATOM      8  C   UNL     1       2.157   8.265  18.069  0.00  0.00    +0.000 A 
ATOM      9  C   UNL     1       1.479   9.482  18.192  0.00  0.00    +0.000 A 
ATOM     10  C   UNL     1       0.924   9.847  19.414  0.00  0.00    +0.000 A 
ATOM     11  C   UNL     1       1.052   9.005  20.516  0.00  0.00    +0.000 A 
ATOM     12  C   UNL     1       1.734   7.790  20.392  0.00  0.00    +0.000 A 
ENDBRANCH   5   7
ENDBRANCH   1   2
BRANCH   1  13
ATOM     13  N   UNL     1       5.765   3.819  16.518  0.00  0.00    +0.000 NA
ATOM     14  H   UNL     1       6.173   3.662  17.441  0.00  0.00    +0.000 HD
BRANCH  13  15
ATOM     15  C   UNL     1       6.296   5.077  15.949  0.00  0.00    +0.000 C 
ATOM     16  C   UNL     1       5.159   5.865  15.258  0.00  0.00    +0.000 C 
ATOM     17  C   UNL     1       7.306   4.673  14.851  0.00  0.00    +0.000 C 
BRANCH  15  22
ATOM     18  C   UNL     1       8.204   9.253  17.832  0.00  0.00    +0.000 C 
ATOM     19  C   UNL     1       7.870   7.809  17.879  0.00  0.00    +0.000 A 
ATOM     20  C   UNL     1       8.166   6.913  18.885  0.00  0.00    +0.000 A 
ATOM     21  S   UNL     1       7.581   5.355  18.479  0.00  0.00    +0.000 S 
ATOM     22  C   UNL     1       6.994   5.974  16.977  0.00  0.00    +0.000 A 
ATOM     23  N   UNL     1       7.190   7.268  16.806  0.00  0.00    +0.000 NA
ENDBRANCH  15  22
ENDBRANCH  13  15
ENDBRANCH   1  13
TORSDOF 5
ENDMDL
MODEL 3
REMARK VINA RESULT:      -7.5      2.389      8.473
REMARK  Name = 
REMARK  8 active torsions:
REMARK  status: ('A' for Active; 'I' for Inactive)
REMARK    1  A    between atoms: C_1  and  C_2
REMARK    2  A    between atoms: C_5  and  C_6
REMARK    3  A    between atoms: C_6  and  C_7
REMARK    4  A    between atoms: C_6  and  C_8
REMARK    5  A    between atoms: C_6  and  N_9
REMARK    6  A    between atoms: N_9  and  C_10
REMARK    7  A    between atoms: C_10  and  C_11
REMARK    8  A    between atoms: C_14  and  C_15
REMARK                            x       y       z     vdW  Elec       q    Type
REMARK                         _______ _______ _______ _____ _____    ______ ____
ROOT
ATOM      1  C   UNL     1       4.584   4.376  19.137  0.00  0.00    +0.000 C 
ENDROOT
BRANCH   1   2
ATOM      2  C   UNL     1       5.754   4.440  18.205  0.00  0.00    +0.000 A 
ATOM      3  N   UNL     1       7.035   4.544  18.507  0.00  0.00    +0.000 NA
ATOM      4  C   UNL     1       7.648   4.576  17.280  0.00  0.00    +0.000 A 
ATOM      5  C   UNL     1       6.719   4.479  16.268  0.00  0.00    +0.000 A 
ATOM      6  O   UNL     1       5.485   4.395  16.863  0.00  0.00    +0.000 OA
BRANCH   5   7
ATOM      7  C   UNL     1       6.770   4.432  14.813  0.00  0.00    +0.000 A 
ATOM      8  C   UNL     1       7.690   5.226  14.112  0.00  0.00    +0.000 A 
ATOM      9  C   UNL     1       7.775   5.169  12.718  0.00  0.00    +0.000 A 
ATOM     10  C   UNL     1       6.940   4.313  12.006  0.00  0.00    +0.000 A 
ATOM     11  C   UNL     1       6.013   3.523  12.683  0.00  0.00    +0.000 A 
ATOM     12  C   UNL     1       5.927   3.586  14.077  0.00  0.00    +0.000 A 
ENDBRANCH   5   7
ENDBRANCH   1   2
BRANCH   1  13
ATOM     13  N   UNL     1       4.061   5.727  19.390  0.00  0.00    +0.000 NA
ATOM     14  H   UNL     1       4.447   6.043  20.281  0.00  0.00    +0.000 HD
BRANCH  13  15
ATOM     15  C   UNL     1       2.586   5.835  19.423  0.00  0.00    +0.000 C 
ATOM     16  C   UNL     1       2.028   5.065  20.643  0.00  0.00    +0.000 C 
ATOM     17  C   UNL     1       2.062   5.126  18.154  0.00  0.00    +0.000 C 
BRANCH  15  22
ATOM     18  C   UNL     1       0.505   9.920  21.322  0.00  0.00    +0.000 C 
ATOM     19  C   UNL     1       1.147   9.142  20.236  0.00  0.00    +0.000 A 
ATOM     20  C   UNL     1       1.394   9.554  18.943  0.00  0.00    +0.000 A 
ATOM     21  S   UNL     1       2.148   8.298  18.055  0.00  0.00    +0.000 S 
ATOM     22  C   UNL     1       2.073   7.279  19.448  0.00  0.00    +0.000 A 
ATOM     23  N   UNL     1       1.551   7.852  20.516  0.00  0.00    +0.000 NA
ENDBRANCH  15  22
ENDBRANCH  13  15
ENDBRANCH   1  13
TORSDOF 5
ENDMDL
MODEL 4
REMARK VINA RESULT:      -7.4      1.171      1.911
REMARK  Name = 
REMARK  8 active torsions:
REMARK  status: ('A' for Active; 'I' for Inactive)
REMARK    1  A    between atoms: C_1  and  C_2
REMARK    2  A    between atoms: C_5  and  C_6
REMARK    3  A    between atoms: C_6  and  C_7
REMARK    4  A    between atoms: C_6  and  C_8
REMARK    5  A    between atoms: C_6  and  N_9
REMARK    6  A    between atoms: N_9  and  C_10
REMARK    7  A    between atoms: C_10  and  C_11
REMARK    8  A    between atoms: C_14  and  C_15
REMARK                            x       y       z     vdW  Elec       q    Type
REMARK                         _______ _______ _______ _____ _____    ______ ____
ROOT
ATOM      1  C   UNL     1       2.983   6.942  17.984  0.00  0.00    +0.000 C 
ENDROOT
BRANCH   1   2
ATOM      2  C   UNL     1       2.231   8.197  18.305  0.00  0.00    +0.000 A 
ATOM      3  N   UNL     1       2.043   9.256  17.539  0.00  0.00    +0.000 NA
ATOM      4  C   UNL     1       1.309  10.097  18.336  0.00  0.00    +0.000 A 
ATOM      5  C   UNL     1       1.064   9.517  19.561  0.00  0.00    +0.000 A 
ATOM      6  O   UNL     1       1.665   8.284  19.549  0.00  0.00    +0.000 OA
BRANCH   5   7
ATOM      7  C   UNL     1       0.341   9.902  20.766  0.00  0.00    +0.000 A 
ATOM      8  C   UNL     1       0.445   9.126  21.931  0.00  0.00    +0.000 A 
ATOM      9  C   UNL     1      -0.215   9.499  23.105  0.00  0.00    +0.000 A 
ATOM     10  C   UNL     1      -0.988  10.656  23.130  0.00  0.00    +0.000 A 
ATOM     11  C   UNL     1      -1.111  11.435  21.982  0.00  0.00    +0.000 A 
ATOM     12  C   UNL     1      -0.453  11.058  20.806  0.00  0.00    +0.000 A 
ENDBRANCH   5   7
ENDBRANCH   1   2
BRANCH   1  13
ATOM     13  N   UNL     1       2.514   5.838  18.835  0.00  0.00    +0.000 NA
ATOM     14  H   UNL     1       2.622   6.132  19.807  0.00  0.00    +0.000 HD
BRANCH  13  15
ATOM     15  C   UNL     1       3.207   4.547  18.629  0.00  0.00    +0.000 C 
ATOM     16  C   UNL     1       2.475   3.723  17.543  0.00  0.00    +0.000 C 
ATOM     17  C   UNL     1       3.085   3.765  19.956  0.00  0.00    +0.000 C 
BRANCH  15  22
ATOM     18  C   UNL     1       7.978   5.769  19.228  0.00  0.00    +0.000 C 
ATOM     19  C   UNL     1       6.838   5.217  18.458  0.00  0.00    +0.000 A 
ATOM     20  C   UNL     1       6.855   4.731  17.167  0.00  0.00    +0.000 A 
ATOM     21  S   UNL     1       5.289   4.211  16.710  0.00  0.00    +0.000 S 
ATOM     22  C   UNL     1       4.686   4.691  18.256  0.00  0.00    +0.000 A 
ATOM     23  N   UNL     1       5.602   5.175  19.073  0.00  0.00    +0.000 NA
ENDBRANCH  15  22
ENDBRANCH  13  15
ENDBRANCH   1  13
TORSDOF 5
ENDMDL
MODEL 5
REMARK VINA RESULT:      -7.4      3.209      7.927
REMARK  Name = 
REMARK  8 active torsions:
REMARK  status: ('A' for Active; 'I' for Inactive)
REMARK    1  A    between atoms: C_1  and  C_2
REMARK    2  A    between atoms: C_5  and  C_6
REMARK    3  A    between atoms: C_6  and  C_7
REMARK    4  A    between atoms: C_6  and  C_8
REMARK    5  A    between atoms: C_6  and  N_9
REMARK    6  A    between atoms: N_9  and  C_10
REMARK    7  A    between atoms: C_10  and  C_11
REMARK    8  A    between atoms: C_14  and  C_15
REMARK                            x       y       z     vdW  Elec       q    Type
REMARK                         _______ _______ _______ _____ _____    ______ ____
ROOT
ATOM      1  C   UNL     1       5.279   3.937  19.190  0.00  0.00    +0.000 C 
ENDROOT
BRANCH   1   2
ATOM      2  C   UNL     1       6.017   4.658  18.105  0.00  0.00    +0.000 A 
ATOM      3  N   UNL     1       6.777   5.733  18.208  0.00  0.00    +0.000 NA
ATOM      4  C   UNL     1       7.178   5.963  16.916  0.00  0.00    +0.000 A 
ATOM      5  C   UNL     1       6.658   5.011  16.068  0.00  0.00    +0.000 A 
ATOM      6  O   UNL     1       5.898   4.163  16.834  0.00  0.00    +0.000 OA
BRANCH   5   7
ATOM      7  C   UNL     1       6.752   4.728  14.642  0.00  0.00    +0.000 A 
ATOM      8  C   UNL     1       7.679   5.416  13.845  0.00  0.00    +0.000 A 
ATOM      9  C   UNL     1       7.807   5.133  12.482  0.00  0.00    +0.000 A 
ATOM     10  C   UNL     1       7.008   4.155  11.898  0.00  0.00    +0.000 A 
ATOM     11  C   UNL     1       6.076   3.466  12.670  0.00  0.00    +0.000 A 
ATOM     12  C   UNL     1       5.947   3.753  14.033  0.00  0.00    +0.000 A 
ENDBRANCH   5   7
ENDBRANCH   1   2
BRANCH   1  13
ATOM     13  N   UNL     1       4.274   3.035  18.607  0.00  0.00    +0.000 NA
ATOM     14  H   UNL     1       4.391   3.059  17.593  0.00  0.00    +0.000 HD
BRANCH  13  15
ATOM     15  C   UNL     1       2.870   3.349  18.951  0.00  0.00    +0.000 C 
ATOM     16  C   UNL     1       2.453   2.576  20.224  0.00  0.00    +0.000 C 
ATOM     17  C   UNL     1       2.002   2.820  17.787  0.00  0.00    +0.000 C 
BRANCH  15  22
ATOM     18  C   UNL     1       2.642   8.155  17.735  0.00  0.00    +0.000 C 
ATOM     19  C   UNL     1       2.478   7.015  18.668  0.00  0.00    +0.000 A 
ATOM     20  C   UNL     1       2.072   7.061  19.986  0.00  0.00    +0.000 A 
ATOM     21  S   UNL     1       2.046   5.484  20.652  0.00  0.00    +0.000 S 
ATOM     22  C   UNL     1       2.602   4.845  19.147  0.00  0.00    +0.000 A 
ATOM     23  N   UNL     1       2.763   5.748  18.197  0.00  0.00    +0.000 NA
ENDBRANCH  15  22
ENDBRANCH  13  15
ENDBRANCH   1  13
TORSDOF 5
ENDMDL
MODEL 6
REMARK VINA RESULT:      -7.4      1.691      2.191
REMARK  Name = 
REMARK  8 active torsions:
REMARK  status: ('A' for Active; 'I' for Inactive)
REMARK    1  A    between atoms: C_1  and  C_2
REMARK    2  A    between atoms: C_5  and  C_6
REMARK    3  A    between atoms: C_6  and  C_7
REMARK    4  A    between atoms: C_6  and  C_8
REMARK    5  A    between atoms: C_6  and  N_9
REMARK    6  A    between atoms: N_9  and  C_10
REMARK    7  A    between atoms: C_10  and  C_11
REMARK    8  A    between atoms: C_14  and  C_15
REMARK                            x       y       z     vdW  Elec       q    Type
REMARK                         _______ _______ _______ _____ _____    ______ ____
ROOT
ATOM      1  C   UNL     1       2.529   4.731  20.367  0.00  0.00    +0.000 C 
ENDROOT
BRANCH   1   2
ATOM      2  C   UNL     1       2.246   6.160  20.022  0.00  0.00    +0.000 A 
ATOM      3  N   UNL     1       2.641   6.839  18.960  0.00  0.00    +0.000 NA
ATOM      4  C   UNL     1       2.115   8.088  19.169  0.00  0.00    +0.000 A 
ATOM      5  C   UNL     1       1.404   8.127  20.348  0.00  0.00    +0.000 A 
ATOM      6  O   UNL     1       1.490   6.878  20.910  0.00  0.00    +0.000 OA
BRANCH   5   7
ATOM      7  C   UNL     1       0.626   9.132  21.059  0.00  0.00    +0.000 A 
ATOM      8  C   UNL     1       0.025  10.188  20.357  0.00  0.00    +0.000 A 
ATOM      9  C   UNL     1      -0.752  11.143  21.019  0.00  0.00    +0.000 A 
ATOM     10  C   UNL     1      -0.941  11.053  22.394  0.00  0.00    +0.000 A 
ATOM     11  C   UNL     1      -0.346  10.017  23.111  0.00  0.00    +0.000 A 
ATOM     12  C   UNL     1       0.436   9.066  22.448  0.00  0.00    +0.000 A 
ENDBRANCH   5   7
ENDBRANCH   1   2
BRANCH   1  13
ATOM     13  N   UNL     1       2.477   3.897  19.157  0.00  0.00    +0.000 NA
ATOM     14  H   UNL     1       1.678   3.267  19.252  0.00  0.00    +0.000 HD
BRANCH  13  15
ATOM     15  C   UNL     1       3.699   3.108  18.882  0.00  0.00    +0.000 C 
ATOM     16  C   UNL     1       3.383   1.980  17.873  0.00  0.00    +0.000 C 
ATOM     17  C   UNL     1       4.096   2.434  20.214  0.00  0.00    +0.000 C 
BRANCH  15  22
ATOM     18  C   UNL     1       7.857   5.805  19.135  0.00  0.00    +0.000 C 
ATOM     19  C   UNL     1       6.733   5.167  18.409  0.00  0.00    +0.000 A 
ATOM     20  C   UNL     1       6.466   5.228  17.057  0.00  0.00    +0.000 A 
ATOM     21  S   UNL     1       5.050   4.337  16.692  0.00  0.00    +0.000 S 
ATOM     22  C   UNL     1       4.872   3.947  18.366  0.00  0.00    +0.000 A 
ATOM     23  N   UNL     1       5.829   4.423  19.141  0.00  0.00    +0.000 NA
ENDBRANCH  15  22
ENDBRANCH  13  15
ENDBRANCH   1  13
TORSDOF 5
ENDMDL
MODEL 7
REMARK VINA RESULT:      -7.3      1.305      1.716
REMARK  Name = 
REMARK  8 active torsions:
REMARK  status: ('A' for Active; 'I' for Inactive)
REMARK    1  A    between atoms: C_1  and  C_2
REMARK    2  A    between atoms: C_5  and  C_6
REMARK    3  A    between atoms: C_6  and  C_7
REMARK    4  A    between atoms: C_6  and  C_8
REMARK    5  A    between atoms: C_6  and  N_9
REMARK    6  A    between atoms: N_9  and  C_10
REMARK    7  A    between atoms: C_10  and  C_11
REMARK    8  A    between atoms: C_14  and  C_15
REMARK                            x       y       z     vdW  Elec       q    Type
REMARK                         _______ _______ _______ _____ _____    ______ ____
ROOT
ATOM      1  C   UNL     1       2.905   7.188  18.210  0.00  0.00    +0.000 C 
ENDROOT
BRANCH   1   2
ATOM      2  C   UNL     1       2.101   8.424  18.470  0.00  0.00    +0.000 A 
ATOM      3  N   UNL     1       1.849   9.424  17.645  0.00  0.00    +0.000 NA
ATOM      4  C   UNL     1       1.091  10.279  18.406  0.00  0.00    +0.000 A 
ATOM      5  C   UNL     1       0.895   9.764  19.668  0.00  0.00    +0.000 A 
ATOM      6  O   UNL     1       1.554   8.561  19.718  0.00  0.00    +0.000 OA
BRANCH   5   7
ATOM      7  C   UNL     1       0.177  10.188  20.862  0.00  0.00    +0.000 A 
ATOM      8  C   UNL     1      -0.507  11.414  20.877  0.00  0.00    +0.000 A 
ATOM      9  C   UNL     1      -1.229  11.821  22.003  0.00  0.00    +0.000 A 
ATOM     10  C   UNL     1      -1.278  11.005  23.130  0.00  0.00    +0.000 A 
ATOM     11  C   UNL     1      -0.598   9.790  23.137  0.00  0.00    +0.000 A 
ATOM     12  C   UNL     1       0.128   9.386  22.012  0.00  0.00    +0.000 A 
ENDBRANCH   5   7
ENDBRANCH   1   2
BRANCH   1  13
ATOM     13  N   UNL     1       2.583   6.154  19.205  0.00  0.00    +0.000 NA
ATOM     14  H   UNL     1       2.935   6.477  20.108  0.00  0.00    +0.000 HD
BRANCH  13  15
ATOM     15  C   UNL     1       3.126   4.809  18.915  0.00  0.00    +0.000 C 
ATOM     16  C   UNL     1       2.269   4.117  17.830  0.00  0.00    +0.000 C 
ATOM     17  C   UNL     1       2.978   3.984  20.213  0.00  0.00    +0.000 C 
BRANCH  15  22
ATOM     18  C   UNL     1       7.997   5.689  19.270  0.00  0.00    +0.000 C 
ATOM     19  C   UNL     1       6.789   5.185  18.575  0.00  0.00    +0.000 A 
ATOM     20  C   UNL     1       6.717   4.628  17.315  0.00  0.00    +0.000 A 
ATOM     21  S   UNL     1       5.099   4.207  16.946  0.00  0.00    +0.000 S 
ATOM     22  C   UNL     1       4.596   4.817  18.482  0.00  0.00    +0.000 A 
ATOM     23  N   UNL     1       5.579   5.274  19.235  0.00  0.00    +0.000 NA
ENDBRANCH  15  22
ENDBRANCH  13  15
ENDBRANCH   1  13
TORSDOF 5
ENDMDL
MODEL 8
REMARK VINA RESULT:      -7.3      2.534      8.294
REMARK  Name = 
REMARK  8 active torsions:
REMARK  status: ('A' for Active; 'I' for Inactive)
REMARK    1  A    between atoms: C_1  and  C_2
REMARK    2  A    between atoms: C_5  and  C_6
REMARK    3  A    between atoms: C_6  and  C_7
REMARK    4  A    between atoms: C_6  and  C_8
REMARK    5  A    between atoms: C_6  and  N_9
REMARK    6  A    between atoms: N_9  and  C_10
REMARK    7  A    between atoms: C_10  and  C_11
REMARK    8  A    between atoms: C_14  and  C_15
REMARK                            x       y       z     vdW  Elec       q    Type
REMARK                         _______ _______ _______ _____ _____    ______ ____
ROOT
ATOM      1  C   UNL     1       4.149   3.165  18.597  0.00  0.00    +0.000 C 
ENDROOT
BRANCH   1   2
ATOM      2  C   UNL     1       5.068   3.999  17.759  0.00  0.00    +0.000 A 
ATOM      3  N   UNL     1       5.777   5.052  18.123  0.00  0.00    +0.000 NA
ATOM      4  C   UNL     1       6.412   5.422  16.964  0.00  0.00    +0.000 A 
ATOM      5  C   UNL     1       6.077   4.573  15.933  0.00  0.00    +0.000 A 
ATOM      6  O   UNL     1       5.200   3.649  16.442  0.00  0.00    +0.000 OA
BRANCH   5   7
ATOM      7  C   UNL     1       6.445   4.450  14.529  0.00  0.00    +0.000 A 
ATOM      8  C   UNL     1       5.752   3.563  13.691  0.00  0.00    +0.000 A 
ATOM      9  C   UNL     1       6.070   3.456  12.334  0.00  0.00    +0.000 A 
ATOM     10  C   UNL     1       7.087   4.239  11.796  0.00  0.00    +0.000 A 
ATOM     11  C   UNL     1       7.793   5.120  12.612  0.00  0.00    +0.000 A 
ATOM     12  C   UNL     1       7.476   5.221  13.971  0.00  0.00    +0.000 A 
ENDBRANCH   5   7
ENDBRANCH   1   2
BRANCH   1  13
ATOM     13  N   UNL     1       3.688   3.933  19.763  0.00  0.00    +0.000 NA
ATOM     14  H   UNL     1       3.827   3.349  20.590  0.00  0.00    +0.000 HD
BRANCH  13  15
ATOM     15  C   UNL     1       2.280   4.382  19.706  0.00  0.00    +0.000 C 
ATOM     16  C   UNL     1       1.479   3.758  20.873  0.00  0.00    +0.000 C 
ATOM     17  C   UNL     1       1.690   3.819  18.393  0.00  0.00    +0.000 C 
BRANCH  15  22
ATOM     18  C   UNL     1       1.022   8.826  21.520  0.00  0.00    +0.000 C 
ATOM     19  C   UNL     1       1.572   7.928  20.477  0.00  0.00    +0.000 A 
ATOM     20  C   UNL     1       2.036   8.280  19.227  0.00  0.00    +0.000 A 
ATOM     21  S   UNL     1       2.563   6.889  18.378  0.00  0.00    +0.000 S 
ATOM     22  C   UNL     1       2.115   5.905  19.725  0.00  0.00    +0.000 A 
ATOM     23  N   UNL     1       1.635   6.576  20.756  0.00  0.00    +0.000 NA
ENDBRANCH  15  22
ENDBRANCH  13  15
ENDBRANCH   1  13
TORSDOF 5
ENDMDL
MODEL 9
REMARK VINA RESULT:      -7.3      1.652      2.380
REMARK  Name = 
REMARK  8 active torsions:
REMARK  status: ('A' for Active; 'I' for Inactive)
REMARK    1  A    between atoms: C_1  and  C_2
REMARK    2  A    between atoms: C_5  and  C_6
REMARK    3  A    between atoms: C_6  and  C_7
REMARK    4  A    between atoms: C_6  and  C_8
REMARK    5  A    between atoms: C_6  and  N_9
REMARK    6  A    between atoms: N_9  and  C_10
REMARK    7  A    between atoms: C_10  and  C_11
REMARK    8  A    between atoms: C_14  and  C_15
REMARK                            x       y       z     vdW  Elec       q    Type
REMARK                         _______ _______ _______ _____ _____    ______ ____
ROOT
ATOM      1  C   UNL     1       3.745   6.569  18.013  0.00  0.00    +0.000 C 
ENDROOT
BRANCH   1   2
ATOM      2  C   UNL     1       2.803   7.719  18.193  0.00  0.00    +0.000 A 
ATOM      3  N   UNL     1       2.403   8.597  17.291  0.00  0.00    +0.000 NA
ATOM      4  C   UNL     1       1.569   9.423  18.002  0.00  0.00    +0.000 A 
ATOM      5  C   UNL     1       1.478   9.012  19.313  0.00  0.00    +0.000 A 
ATOM      6  O   UNL     1       2.282   7.908  19.445  0.00  0.00    +0.000 OA
BRANCH   5   7
ATOM      7  C   UNL     1       0.750   9.460  20.493  0.00  0.00    +0.000 A 
ATOM      8  C   UNL     1       0.941   8.819  21.727  0.00  0.00    +0.000 A 
ATOM      9  C   UNL     1       0.276   9.256  22.876  0.00  0.00    +0.000 A 
ATOM     10  C   UNL     1      -0.589  10.345  22.806  0.00  0.00    +0.000 A 
ATOM     11  C   UNL     1      -0.798  10.989  21.589  0.00  0.00    +0.000 A 
ATOM     12  C   UNL     1      -0.135  10.547  20.440  0.00  0.00    +0.000 A 
ENDBRANCH   5   7
ENDBRANCH   1   2
BRANCH   1  13
ATOM     13  N   UNL     1       5.055   7.054  17.552  0.00  0.00    +0.000 NA
ATOM     14  H   UNL     1       4.932   7.411  16.602  0.00  0.00    +0.000 HD
BRANCH  13  15
ATOM     15  C   UNL     1       6.139   6.048  17.566  0.00  0.00    +0.000 C 
ATOM     16  C   UNL     1       5.883   5.012  18.685  0.00  0.00    +0.000 C 
ATOM     17  C   UNL     1       7.437   6.804  17.929  0.00  0.00    +0.000 C 
BRANCH  15  22
ATOM     18  C   UNL     1       7.926   5.256  13.005  0.00  0.00    +0.000 C 
ATOM     19  C   UNL     1       7.089   4.912  14.178  0.00  0.00    +0.000 A 
ATOM     20  C   UNL     1       6.229   3.840  14.310  0.00  0.00    +0.000 A 
ATOM     21  S   UNL     1       5.477   3.871  15.848  0.00  0.00    +0.000 S 
ATOM     22  C   UNL     1       6.329   5.325  16.229  0.00  0.00    +0.000 A 
ATOM     23  N   UNL     1       7.149   5.741  15.281  0.00  0.00    +0.000 NA
ENDBRANCH  15  22
ENDBRANCH  13  15
ENDBRANCH   1  13
TORSDOF 5
ENDMDL
