MODEL 1
REMARK VINA RESULT:      -6.8      0.000      0.000
REMARK  Name = 
REMARK  7 active torsions:
REMARK  status: ('A' for Active; 'I' for Inactive)
REMARK    1  A    between atoms: C_1  and  C_2
REMARK    2  A    between atoms: C_2  and  S_3
REMARK    3  A    between atoms: S_3  and  C_4
REMARK    4  A    between atoms: C_7  and  C_8
REMARK    5  A    between atoms: C_8  and  S_9
REMARK    6  A    between atoms: S_9  and  C_10
REMARK    7  A    between atoms: C_14  and  C_15
REMARK                            x       y       z     vdW  Elec       q    Type
REMARK                         _______ _______ _______ _____ _____    ______ ____
ROOT
ATOM      1  S   UNL     1       5.234   4.944  15.604  0.00  0.00    +0.000 S 
ENDROOT
BRANCH   1   2
ATOM      2  C   UNL     1       4.297   4.670  17.051  0.00  0.00    +0.000 A 
ATOM      3  N   UNL     1       4.083   3.456  17.636  0.00  0.00    +0.000 NA
ATOM      4  C   UNL     1       3.334   3.746  18.686  0.00  0.00    +0.000 A 
ATOM      5  N   UNL     1       2.805   2.927  19.651  0.00  0.00    +0.000 NA
ATOM      6  C   UNL     1       2.094   3.495  20.582  0.00  0.00    +0.000 A 
ATOM      7  C   UNL     1       1.481   2.643  21.666  0.00  0.00    +0.000 C 
ATOM      8  C   UNL     1       1.815   4.968  20.675  0.00  0.00    +0.000 A 
ATOM      9  C   UNL     1       2.356   5.721  19.710  0.00  0.00    +0.000 A 
ATOM     10  N   UNL     1       3.118   5.130  18.710  0.00  0.00    +0.000 N 
ATOM     11  N   UNL     1       3.736   5.711  17.668  0.00  0.00    +0.000 NA
ENDBRANCH   1   2
BRANCH   1  12
ATOM     12  C   UNL     1       6.927   4.643  16.169  0.00  0.00    +0.000 C 
BRANCH  12  16
ATOM     13  C   UNL     1       7.829   7.717  17.725  0.00  0.00    +0.000 A 
ATOM     14  N   UNL     1       8.055   6.930  18.757  0.00  0.00    +0.000 NA
ATOM     15  N   UNL     1       7.757   5.642  18.354  0.00  0.00    +0.000 NA
ATOM     16  C   UNL     1       7.376   5.723  17.095  0.00  0.00    +0.000 A 
ATOM     17  O   UNL     1       7.385   7.014  16.628  0.00  0.00    +0.000 OA
BRANCH  13  18
ATOM     18  S   UNL     1       8.015   9.447  17.726  0.00  0.00    +0.000 S 
BRANCH  18  20
ATOM     19  C   UNL     1       9.926  10.951  19.004  0.00  0.00    +0.000 C 
ATOM     20  C   UNL     1       9.088   9.691  19.174  0.00  0.00    +0.000 C 
ENDBRANCH  18  20
ENDBRANCH  13  18
ENDBRANCH  12  16
ENDBRANCH   1  12
TORSDOF 5
ENDMDL
MODEL 2
REMARK VINA RESULT:      -6.7      1.810      2.230
REMARK  Name = 
REMARK  7 active torsions:
REMARK  status: ('A' for Active; 'I' for Inactive)
REMARK    1  A    between atoms: C_1  and  C_2
REMARK    2  A    between atoms: C_2  and  S_3
REMARK    3  A    between atoms: S_3  and  C_4
REMARK    4  A    between atoms: C_7  and  C_8
REMARK    5  A    between atoms: C_8  and  S_9
REMARK    6  A    between atoms: S_9  and  C_10
REMARK    7  A    between atoms: C_14  and  C_15
REMARK                            x       y       z     vdW  Elec       q    Type
REMARK                         _______ _______ _______ _____ _____    ______ ____
ROOT
ATOM      1  S   UNL     1       6.958   4.897  17.003  0.00  0.00    +0.000 S 
ENDROOT
BRANCH   1   2
ATOM      2  C   UNL     1       5.503   4.284  17.748  0.00  0.00    +0.000 A 
ATOM      3  N   UNL     1       5.185   4.395  19.071  0.00  0.00    +0.000 NA
ATOM      4  C   UNL     1       4.010   3.795  19.158  0.00  0.00    +0.000 A 
ATOM      5  N   UNL     1       3.197   3.593  20.243  0.00  0.00    +0.000 NA
ATOM      6  C   UNL     1       2.078   2.960  20.032  0.00  0.00    +0.000 A 
ATOM      7  C   UNL     1       1.145   2.703  21.191  0.00  0.00    +0.000 C 
ATOM      8  C   UNL     1       1.620   2.441  18.700  0.00  0.00    +0.000 A 
ATOM      9  C   UNL     1       2.450   2.666  17.675  0.00  0.00    +0.000 A 
ATOM     10  N   UNL     1       3.647   3.341  17.884  0.00  0.00    +0.000 N 
ATOM     11  N   UNL     1       4.601   3.658  16.992  0.00  0.00    +0.000 NA
ENDBRANCH   1   2
BRANCH   1  12
ATOM     12  C   UNL     1       7.787   5.725  18.383  0.00  0.00    +0.000 C 
BRANCH  12  16
ATOM     13  C   UNL     1       8.571   9.198  18.442  0.00  0.00    +0.000 A 
ATOM     14  N   UNL     1       7.805   9.215  17.370  0.00  0.00    +0.000 NA
ATOM     15  N   UNL     1       7.378   7.917  17.162  0.00  0.00    +0.000 NA
ATOM     16  C   UNL     1       7.904   7.190  18.127  0.00  0.00    +0.000 A 
ATOM     17  O   UNL     1       8.685   7.935  18.976  0.00  0.00    +0.000 OA
BRANCH  13  18
ATOM     18  S   UNL     1       9.392  10.582  19.106  0.00  0.00    +0.000 S 
BRANCH  18  20
ATOM     19  C   UNL     1      10.156  12.755  17.609  0.00  0.00    +0.000 C 
ATOM     20  C   UNL     1       8.951  11.872  17.902  0.00  0.00    +0.000 C 
ENDBRANCH  18  20
ENDBRANCH  13  18
ENDBRANCH  12  16
ENDBRANCH   1  12
TORSDOF 5
ENDMDL
MODEL 3
REMARK VINA RESULT:      -6.6      3.238      5.339
REMARK  Name = 
REMARK  7 active torsions:
REMARK  status: ('A' for Active; 'I' for Inactive)
REMARK    1  A    between atoms: C_1  and  C_2
REMARK    2  A    between atoms: C_2  and  S_3
REMARK    3  A    between atoms: S_3  and  C_4
REMARK    4  A    between atoms: C_7  and  C_8
REMARK    5  A    between atoms: C_8  and  S_9
REMARK    6  A    between atoms: S_9  and  C_10
REMARK    7  A    between atoms: C_14  and  C_15
REMARK                            x       y       z     vdW  Elec       q    Type
REMARK                         _______ _______ _______ _____ _____    ______ ____
ROOT
ATOM      1  S   UNL     1       7.126   4.591  17.195  0.00  0.00    +0.000 S 
ENDROOT
BRANCH   1   2
ATOM      2  C   UNL     1       5.601   4.250  17.972  0.00  0.00    +0.000 A 
ATOM      3  N   UNL     1       5.450   3.692  19.208  0.00  0.00    +0.000 NA
ATOM      4  C   UNL     1       4.139   3.634  19.364  0.00  0.00    +0.000 A 
ATOM      5  N   UNL     1       3.391   3.164  20.414  0.00  0.00    +0.000 NA
ATOM      6  C   UNL     1       2.097   3.232  20.292  0.00  0.00    +0.000 A 
ATOM      7  C   UNL     1       1.222   2.724  21.413  0.00  0.00    +0.000 C 
ATOM      8  C   UNL     1       1.370   3.782  19.098  0.00  0.00    +0.000 A 
ATOM      9  C   UNL     1       2.148   4.227  18.104  0.00  0.00    +0.000 A 
ATOM     10  N   UNL     1       3.531   4.163  18.219  0.00  0.00    +0.000 N 
ATOM     11  N   UNL     1       4.468   4.555  17.339  0.00  0.00    +0.000 NA
ENDBRANCH   1   2
BRANCH   1  12
ATOM     12  C   UNL     1       6.649   5.735  15.876  0.00  0.00    +0.000 C 
BRANCH  12  16
ATOM     13  C   UNL     1       6.240   3.841  12.888  0.00  0.00    +0.000 A 
ATOM     14  N   UNL     1       7.377   4.425  12.566  0.00  0.00    +0.000 NA
ATOM     15  N   UNL     1       7.727   5.235  13.630  0.00  0.00    +0.000 NA
ATOM     16  C   UNL     1       6.786   5.088  14.540  0.00  0.00    +0.000 A 
ATOM     17  O   UNL     1       5.798   4.223  14.134  0.00  0.00    +0.000 OA
BRANCH  13  18
ATOM     18  S   UNL     1       5.352   2.747  11.866  0.00  0.00    +0.000 S 
BRANCH  18  20
ATOM     19  C   UNL     1       6.217   0.217  11.236  0.00  0.00    +0.000 C 
ATOM     20  C   UNL     1       6.683   1.667  11.257  0.00  0.00    +0.000 C 
ENDBRANCH  18  20
ENDBRANCH  13  18
ENDBRANCH  12  16
ENDBRANCH   1  12
TORSDOF 5
ENDMDL
MODEL 4
REMARK VINA RESULT:      -6.6      3.282      6.909
REMARK  Name = 
REMARK  7 active torsions:
REMARK  status: ('A' for Active; 'I' for Inactive)
REMARK    1  A    between atoms: C_1  and  C_2
REMARK    2  A    between atoms: C_2  and  S_3
REMARK    3  A    between atoms: S_3  and  C_4
REMARK    4  A    between atoms: C_7  and  C_8
REMARK    5  A    between atoms: C_8  and  S_9
REMARK    6  A    between atoms: S_9  and  C_10
REMARK    7  A    between atoms: C_14  and  C_15
REMARK                            x       y       z     vdW  Elec       q    Type
REMARK                         _______ _______ _______ _____ _____    ______ ____
ROOT
ATOM      1  S   UNL     1       6.479   6.614  17.589  0.00  0.00    +0.000 S 
ENDROOT
BRANCH   1   2
ATOM      2  C   UNL     1       6.404   5.744  16.078  0.00  0.00    +0.000 A 
ATOM      3  N   UNL     1       5.348   4.992  15.649  0.00  0.00    +0.000 NA
ATOM      4  C   UNL     1       5.745   4.542  14.472  0.00  0.00    +0.000 A 
ATOM      5  N   UNL     1       5.104   3.731  13.571  0.00  0.00    +0.000 NA
ATOM      6  C   UNL     1       5.746   3.444  12.475  0.00  0.00    +0.000 A 
ATOM      7  C   UNL     1       5.092   2.551  11.449  0.00  0.00    +0.000 C 
ATOM      8  C   UNL     1       7.123   3.932  12.130  0.00  0.00    +0.000 A 
ATOM      9  C   UNL     1       7.703   4.719  13.044  0.00  0.00    +0.000 A 
ATOM     10  N   UNL     1       7.031   5.036  14.218  0.00  0.00    +0.000 N 
ATOM     11  N   UNL     1       7.442   5.802  15.243  0.00  0.00    +0.000 NA
ENDBRANCH   1   2
BRANCH   1  12
ATOM     12  C   UNL     1       6.810   5.295  18.785  0.00  0.00    +0.000 C 
BRANCH  12  16
ATOM     13  C   UNL     1       3.500   4.514  19.838  0.00  0.00    +0.000 A 
ATOM     14  N   UNL     1       3.945   3.277  19.743  0.00  0.00    +0.000 NA
ATOM     15  N   UNL     1       5.262   3.356  19.333  0.00  0.00    +0.000 NA
ATOM     16  C   UNL     1       5.542   4.638  19.212  0.00  0.00    +0.000 A 
ATOM     17  O   UNL     1       4.464   5.437  19.506  0.00  0.00    +0.000 OA
BRANCH  13  18
ATOM     18  S   UNL     1       1.878   4.962  20.283  0.00  0.00    +0.000 S 
BRANCH  18  20
ATOM     19  C   UNL     1       0.603   2.767  19.231  0.00  0.00    +0.000 C 
ATOM     20  C   UNL     1       1.116   3.331  20.549  0.00  0.00    +0.000 C 
ENDBRANCH  18  20
ENDBRANCH  13  18
ENDBRANCH  12  16
ENDBRANCH   1  12
TORSDOF 5
ENDMDL
MODEL 5
REMARK VINA RESULT:      -6.6      2.949      4.621
REMARK  Name = 
REMARK  7 active torsions:
REMARK  status: ('A' for Active; 'I' for Inactive)
REMARK    1  A    between atoms: C_1  and  C_2
REMARK    2  A    between atoms: C_2  and  S_3
REMARK    3  A    between atoms: S_3  and  C_4
REMARK    4  A    between atoms: C_7  and  C_8
REMARK    5  A    between atoms: C_8  and  S_9
REMARK    6  A    between atoms: S_9  and  C_10
REMARK    7  A    between atoms: C_14  and  C_15
REMARK                            x       y       z     vdW  Elec       q    Type
REMARK                         _______ _______ _______ _____ _____    ______ ____
ROOT
ATOM      1  S   UNL     1       7.187   5.499  19.048  0.00  0.00    +0.000 S 
ENDROOT
BRANCH   1   2
ATOM      2  C   UNL     1       5.544   4.929  18.906  0.00  0.00    +0.000 A 
ATOM      3  N   UNL     1       5.089   3.713  19.328  0.00  0.00    +0.000 NA
ATOM      4  C   UNL     1       3.805   3.738  19.016  0.00  0.00    +0.000 A 
ATOM      5  N   UNL     1       2.830   2.790  19.197  0.00  0.00    +0.000 NA
ATOM      6  C   UNL     1       1.632   3.090  18.786  0.00  0.00    +0.000 A 
ATOM      7  C   UNL     1       0.520   2.083  18.953  0.00  0.00    +0.000 C 
ATOM      8  C   UNL     1       1.244   4.385  18.133  0.00  0.00    +0.000 A 
ATOM      9  C   UNL     1       2.232   5.275  17.982  0.00  0.00    +0.000 A 
ATOM     10  N   UNL     1       3.516   4.971  18.417  0.00  0.00    +0.000 N 
ATOM     11  N   UNL     1       4.627   5.724  18.353  0.00  0.00    +0.000 NA
ENDBRANCH   1   2
BRANCH   1  12
ATOM     12  C   UNL     1       8.048   4.536  17.779  0.00  0.00    +0.000 C 
BRANCH  12  16
ATOM     13  C   UNL     1       6.307   4.390  14.677  0.00  0.00    +0.000 A 
ATOM     14  N   UNL     1       6.820   5.595  14.528  0.00  0.00    +0.000 NA
ATOM     15  N   UNL     1       7.562   5.858  15.664  0.00  0.00    +0.000 NA
ATOM     16  C   UNL     1       7.462   4.792  16.433  0.00  0.00    +0.000 A 
ATOM     17  O   UNL     1       6.668   3.819  15.875  0.00  0.00    +0.000 OA
BRANCH  13  18
ATOM     18  S   UNL     1       5.254   3.603  13.536  0.00  0.00    +0.000 S 
BRANCH  18  20
ATOM     19  C   UNL     1       6.009   1.971  11.459  0.00  0.00    +0.000 C 
ATOM     20  C   UNL     1       6.402   3.260  12.167  0.00  0.00    +0.000 C 
ENDBRANCH  18  20
ENDBRANCH  13  18
ENDBRANCH  12  16
ENDBRANCH   1  12
TORSDOF 5
ENDMDL
MODEL 6
REMARK VINA RESULT:      -6.4      3.408      7.087
REMARK  Name = 
REMARK  7 active torsions:
REMARK  status: ('A' for Active; 'I' for Inactive)
REMARK    1  A    between atoms: C_1  and  C_2
REMARK    2  A    between atoms: C_2  and  S_3
REMARK    3  A    between atoms: S_3  and  C_4
REMARK    4  A    between atoms: C_7  and  C_8
REMARK    5  A    between atoms: C_8  and  S_9
REMARK    6  A    between atoms: S_9  and  C_10
REMARK    7  A    between atoms: C_14  and  C_15
REMARK                            x       y       z     vdW  Elec       q    Type
REMARK                         _______ _______ _______ _____ _____    ______ ____
ROOT
ATOM      1  S   UNL     1       6.489   6.384  17.767  0.00  0.00    +0.000 S 
ENDROOT
BRANCH   1   2
ATOM      2  C   UNL     1       6.426   5.598  16.210  0.00  0.00    +0.000 A 
ATOM      3  N   UNL     1       5.405   4.810  15.762  0.00  0.00    +0.000 NA
ATOM      4  C   UNL     1       5.798   4.452  14.552  0.00  0.00    +0.000 A 
ATOM      5  N   UNL     1       5.182   3.656  13.620  0.00  0.00    +0.000 NA
ATOM      6  C   UNL     1       5.812   3.472  12.495  0.00  0.00    +0.000 A 
ATOM      7  C   UNL     1       5.185   2.600  11.433  0.00  0.00    +0.000 C 
ATOM      8  C   UNL     1       7.148   4.061  12.148  0.00  0.00    +0.000 A 
ATOM      9  C   UNL     1       7.704   4.829  13.093  0.00  0.00    +0.000 A 
ATOM     10  N   UNL     1       7.045   5.037  14.298  0.00  0.00    +0.000 N 
ATOM     11  N   UNL     1       7.436   5.767  15.356  0.00  0.00    +0.000 NA
ENDBRANCH   1   2
BRANCH   1  12
ATOM     12  C   UNL     1       6.058   5.041  18.902  0.00  0.00    +0.000 C 
BRANCH  12  16
ATOM     13  C   UNL     1       2.740   4.390  20.021  0.00  0.00    +0.000 A 
ATOM     14  N   UNL     1       2.555   5.642  19.656  0.00  0.00    +0.000 NA
ATOM     15  N   UNL     1       3.765   6.103  19.173  0.00  0.00    +0.000 NA
ATOM     16  C   UNL     1       4.613   5.099  19.265  0.00  0.00    +0.000 A 
ATOM     17  O   UNL     1       4.035   3.977  19.807  0.00  0.00    +0.000 OA
BRANCH  13  18
ATOM     18  S   UNL     1       1.527   3.366  20.734  0.00  0.00    +0.000 S 
BRANCH  18  20
ATOM     19  C   UNL     1       1.817   2.413  18.174  0.00  0.00    +0.000 C 
ATOM     20  C   UNL     1       0.768   2.627  19.256  0.00  0.00    +0.000 C 
ENDBRANCH  18  20
ENDBRANCH  13  18
ENDBRANCH  12  16
ENDBRANCH   1  12
TORSDOF 5
ENDMDL
MODEL 7
REMARK VINA RESULT:      -6.4      0.960      1.292
REMARK  Name = 
REMARK  7 active torsions:
REMARK  status: ('A' for Active; 'I' for Inactive)
REMARK    1  A    between atoms: C_1  and  C_2
REMARK    2  A    between atoms: C_2  and  S_3
REMARK    3  A    between atoms: S_3  and  C_4
REMARK    4  A    between atoms: C_7  and  C_8
REMARK    5  A    between atoms: C_8  and  S_9
REMARK    6  A    between atoms: S_9  and  C_10
REMARK    7  A    between atoms: C_14  and  C_15
REMARK                            x       y       z     vdW  Elec       q    Type
REMARK                         _______ _______ _______ _____ _____    ______ ____
ROOT
ATOM      1  S   UNL     1       5.195   4.827  15.783  0.00  0.00    +0.000 S 
ENDROOT
BRANCH   1   2
ATOM      2  C   UNL     1       4.163   4.244  17.064  0.00  0.00    +0.000 A 
ATOM      3  N   UNL     1       4.436   4.326  18.399  0.00  0.00    +0.000 NA
ATOM      4  C   UNL     1       3.381   3.766  18.965  0.00  0.00    +0.000 A 
ATOM      5  N   UNL     1       3.091   3.560  20.290  0.00  0.00    +0.000 NA
ATOM      6  C   UNL     1       1.961   2.974  20.562  0.00  0.00    +0.000 A 
ATOM      7  C   UNL     1       1.591   2.716  22.003  0.00  0.00    +0.000 C 
ATOM      8  C   UNL     1       0.962   2.511  19.541  0.00  0.00    +0.000 A 
ATOM      9  C   UNL     1       1.294   2.737  18.264  0.00  0.00    +0.000 A 
ATOM     10  N   UNL     1       2.496   3.362  17.957  0.00  0.00    +0.000 N 
ATOM     11  N   UNL     1       3.000   3.672  16.750  0.00  0.00    +0.000 NA
ENDBRANCH   1   2
BRANCH   1  12
ATOM     12  C   UNL     1       6.852   4.472  16.421  0.00  0.00    +0.000 C 
BRANCH  12  16
ATOM     13  C   UNL     1       7.827   7.618  17.772  0.00  0.00    +0.000 A 
ATOM     14  N   UNL     1       8.105   6.885  18.831  0.00  0.00    +0.000 NA
ATOM     15  N   UNL     1       7.789   5.579  18.508  0.00  0.00    +0.000 NA
ATOM     16  C   UNL     1       7.345   5.596  17.267  0.00  0.00    +0.000 A 
ATOM     17  O   UNL     1       7.330   6.862  16.736  0.00  0.00    +0.000 OA
BRANCH  13  18
ATOM     18  S   UNL     1       8.010   9.347  17.677  0.00  0.00    +0.000 S 
BRANCH  18  20
ATOM     19  C   UNL     1       9.523  11.138  19.109  0.00  0.00    +0.000 C 
ATOM     20  C   UNL     1       9.148   9.663  19.061  0.00  0.00    +0.000 C 
ENDBRANCH  18  20
ENDBRANCH  13  18
ENDBRANCH  12  16
ENDBRANCH   1  12
TORSDOF 5
ENDMDL
MODEL 8
REMARK VINA RESULT:      -6.4      2.597      4.759
REMARK  Name = 
REMARK  7 active torsions:
REMARK  status: ('A' for Active; 'I' for Inactive)
REMARK    1  A    between atoms: C_1  and  C_2
REMARK    2  A    between atoms: C_2  and  S_3
REMARK    3  A    between atoms: S_3  and  C_4
REMARK    4  A    between atoms: C_7  and  C_8
REMARK    5  A    between atoms: C_8  and  S_9
REMARK    6  A    between atoms: S_9  and  C_10
REMARK    7  A    between atoms: C_14  and  C_15
REMARK                            x       y       z     vdW  Elec       q    Type
REMARK                         _______ _______ _______ _____ _____    ______ ____
ROOT
ATOM      1  S   UNL     1       5.449   7.073  17.325  0.00  0.00    +0.000 S 
ENDROOT
BRANCH   1   2
ATOM      2  C   UNL     1       4.359   5.978  18.136  0.00  0.00    +0.000 A 
ATOM      3  N   UNL     1       4.476   5.558  19.430  0.00  0.00    +0.000 NA
ATOM      4  C   UNL     1       3.437   4.757  19.591  0.00  0.00    +0.000 A 
ATOM      5  N   UNL     1       3.033   4.040  20.688  0.00  0.00    +0.000 NA
ATOM      6  C   UNL     1       1.954   3.323  20.558  0.00  0.00    +0.000 A 
ATOM      7  C   UNL     1       1.464   2.508  21.731  0.00  0.00    +0.000 C 
ATOM      8  C   UNL     1       1.129   3.225  19.308  0.00  0.00    +0.000 A 
ATOM      9  C   UNL     1       1.567   3.945  18.268  0.00  0.00    +0.000 A 
ATOM     10  N   UNL     1       2.716   4.716  18.390  0.00  0.00    +0.000 N 
ATOM     11  N   UNL     1       3.308   5.498  17.471  0.00  0.00    +0.000 NA
ENDBRANCH   1   2
BRANCH   1  12
ATOM     12  C   UNL     1       6.900   6.033  17.025  0.00  0.00    +0.000 C 
BRANCH  12  16
ATOM     13  C   UNL     1       6.599   4.241  13.963  0.00  0.00    +0.000 A 
ATOM     14  N   UNL     1       6.075   3.324  14.749  0.00  0.00    +0.000 NA
ATOM     15  N   UNL     1       6.095   3.836  16.033  0.00  0.00    +0.000 NA
ATOM     16  C   UNL     1       6.625   5.040  15.948  0.00  0.00    +0.000 A 
ATOM     17  O   UNL     1       6.981   5.363  14.661  0.00  0.00    +0.000 OA
BRANCH  13  18
ATOM     18  S   UNL     1       6.839   4.070  12.247  0.00  0.00    +0.000 S 
BRANCH  18  20
ATOM     19  C   UNL     1       6.019   1.619  11.313  0.00  0.00    +0.000 C 
ATOM     20  C   UNL     1       5.473   2.953  11.805  0.00  0.00    +0.000 C 
ENDBRANCH  18  20
ENDBRANCH  13  18
ENDBRANCH  12  16
ENDBRANCH   1  12
TORSDOF 5
ENDMDL
MODEL 9
REMARK VINA RESULT:      -6.3      3.131      5.093
REMARK  Name = 
REMARK  7 active torsions:
REMARK  status: ('A' for Active; 'I' for Inactive)
REMARK    1  A    between atoms: C_1  and  C_2
REMARK    2  A    between atoms: C_2  and  S_3
REMARK    3  A    between atoms: S_3  and  C_4
REMARK    4  A    between atoms: C_7  and  C_8
REMARK    5  A    between atoms: C_8  and  S_9
REMARK    6  A    between atoms: S_9  and  C_10
REMARK    7  A    between atoms: C_14  and  C_15
REMARK                            x       y       z     vdW  Elec       q    Type
REMARK                         _______ _______ _______ _____ _____    ______ ____
ROOT
ATOM      1  S   UNL     1       6.236   6.384  16.970  0.00  0.00    +0.000 S 
ENDROOT
BRANCH   1   2
ATOM      2  C   UNL     1       4.861   5.581  17.685  0.00  0.00    +0.000 A 
ATOM      3  N   UNL     1       4.125   4.596  17.093  0.00  0.00    +0.000 NA
ATOM      4  C   UNL     1       3.211   4.304  18.002  0.00  0.00    +0.000 A 
ATOM      5  N   UNL     1       2.190   3.388  17.970  0.00  0.00    +0.000 NA
ATOM      6  C   UNL     1       1.431   3.315  19.025  0.00  0.00    +0.000 A 
ATOM      7  C   UNL     1       0.287   2.330  19.045  0.00  0.00    +0.000 C 
ATOM      8  C   UNL     1       1.590   4.152  20.262  0.00  0.00    +0.000 A 
ATOM      9  C   UNL     1       2.601   5.028  20.240  0.00  0.00    +0.000 A 
ATOM     10  N   UNL     1       3.421   5.118  19.122  0.00  0.00    +0.000 N 
ATOM     11  N   UNL     1       4.475   5.926  18.914  0.00  0.00    +0.000 NA
ENDBRANCH   1   2
BRANCH   1  12
ATOM     12  C   UNL     1       7.276   4.996  16.450  0.00  0.00    +0.000 C 
BRANCH  12  16
ATOM     13  C   UNL     1       6.539   3.866  13.155  0.00  0.00    +0.000 A 
ATOM     14  N   UNL     1       7.311   4.879  12.819  0.00  0.00    +0.000 NA
ATOM     15  N   UNL     1       7.722   5.478  13.995  0.00  0.00    +0.000 NA
ATOM     16  C   UNL     1       7.181   4.786  14.977  0.00  0.00    +0.000 A 
ATOM     17  O   UNL     1       6.404   3.750  14.519  0.00  0.00    +0.000 OA
BRANCH  13  18
ATOM     18  S   UNL     1       5.732   2.808  12.033  0.00  0.00    +0.000 S 
BRANCH  18  20
ATOM     19  C   UNL     1       3.409   3.052  10.587  0.00  0.00    +0.000 C 
ATOM     20  C   UNL     1       4.310   3.828  11.539  0.00  0.00    +0.000 C 
ENDBRANCH  18  20
ENDBRANCH  13  18
ENDBRANCH  12  16
ENDBRANCH   1  12
TORSDOF 5
ENDMDL
