MODEL 1
REMARK VINA RESULT:      -9.0      0.000      0.000
REMARK  Name = 
REMARK  4 active torsions:
REMARK  status: ('A' for Active; 'I' for Inactive)
REMARK    1  A    between atoms: C_2  and  C_4
REMARK    2  A    between atoms: C_7  and  N_8
REMARK    3  A    between atoms: N_8  and  C_9
REMARK    4  A    between atoms: C_17  and  C_18
REMARK                            x       y       z     vdW  Elec       q    Type
REMARK                         _______ _______ _______ _____ _____    ______ ____
ROOT
ATOM      1  C   UNL     1       5.629   5.017  16.455  0.00  0.00    +0.000 A 
ATOM      2  C   UNL     1       5.524   3.649  16.281  0.00  0.00    +0.000 A 
ATOM      3  N   UNL     1       4.454   2.910  16.637  0.00  0.00    +0.000 NA
ATOM      4  C   UNL     1       3.375   3.496  17.202  0.00  0.00    +0.000 A 
ATOM      5  C   UNL     1       3.389   4.902  17.422  0.00  0.00    +0.000 A 
ATOM      6  C   UNL     1       2.406   5.750  18.059  0.00  0.00    +0.000 A 
ATOM      7  C   UNL     1       2.779   7.075  18.160  0.00  0.00    +0.000 A 
ATOM      8  S   UNL     1       4.321   7.301  17.475  0.00  0.00    +0.000 S 
ATOM      9  C   UNL     1       4.522   5.641  17.053  0.00  0.00    +0.000 A 
ENDROOT
BRANCH   7  10
ATOM     10  C   UNL     1       2.036   8.218  18.724  0.00  0.00    +0.000 A 
ATOM     11  C   UNL     1       1.698   9.344  17.951  0.00  0.00    +0.000 A 
ATOM     12  C   UNL     1       0.967  10.408  18.497  0.00  0.00    +0.000 A 
ATOM     13  C   UNL     1       0.572  10.359  19.830  0.00  0.00    +0.000 A 
ATOM     14 CL   UNL     1      -0.331  11.664  20.494  0.00  0.00    +0.000 Cl
ATOM     15  C   UNL     1       0.911   9.258  20.609  0.00  0.00    +0.000 A 
ATOM     16  F   UNL     1       0.540   9.187  21.894  0.00  0.00    +0.000 F 
ATOM     17  C   UNL     1       1.635   8.194  20.067  0.00  0.00    +0.000 A 
ENDBRANCH   7  10
BRANCH   1  19
ATOM     18  N   UNL     1       7.405   5.392  14.826  0.00  0.00    +0.000 N 
ATOM     19  C   UNL     1       6.885   5.678  16.054  0.00  0.00    +0.000 C 
ATOM     20  O   UNL     1       7.461   6.450  16.811  0.00  0.00    +0.000 OA
ATOM     21  H   UNL     1       8.246   5.881  14.544  0.00  0.00    +0.000 HD
ATOM     22  H   UNL     1       6.957   4.783  14.152  0.00  0.00    +0.000 HD
ENDBRANCH   1  19
BRANCH   4  23
ATOM     23  N   UNL     1       2.308   2.713  17.589  0.00  0.00    +0.000 N 
ATOM     24  H   UNL     1       1.802   2.207  16.878  0.00  0.00    +0.000 HD
BRANCH  23  25
ATOM     25  C   UNL     1       2.128   2.363  18.994  0.00  0.00    +0.000 C 
ATOM     26  C   UNL     1       3.434   2.686  19.736  0.00  0.00    +0.000 C 
ATOM     27  C   UNL     1       3.283   2.439  21.234  0.00  0.00    +0.000 C 
ATOM     28  C   UNL     1       2.077   3.185  21.803  0.00  0.00    +0.000 C 
ATOM     29  N   UNL     1       0.849   2.829  21.096  0.00  0.00    +0.000 NA
ATOM     30  C   UNL     1       0.950   3.112  19.654  0.00  0.00    +0.000 C 
ATOM     31  H   UNL     1       0.060   3.342  21.487  0.00  0.00    +0.000 HD
ENDBRANCH  23  25
ENDBRANCH   4  23
TORSDOF 4
ENDMDL
MODEL 2
REMARK VINA RESULT:      -8.7      2.375      4.998
REMARK  Name = 
REMARK  4 active torsions:
REMARK  status: ('A' for Active; 'I' for Inactive)
REMARK    1  A    between atoms: C_2  and  C_4
REMARK    2  A    between atoms: C_7  and  N_8
REMARK    3  A    between atoms: N_8  and  C_9
REMARK    4  A    between atoms: C_17  and  C_18
REMARK                            x       y       z     vdW  Elec       q    Type
REMARK                         _______ _______ _______ _____ _____    ______ ____
ROOT
ATOM      1  C   UNL     1       2.911   3.167  20.291  0.00  0.00    +0.000 A 
ATOM      2  C   UNL     1       4.091   2.480  20.074  0.00  0.00    +0.000 A 
ATOM      3  N   UNL     1       5.216   3.028  19.571  0.00  0.00    +0.000 NA
ATOM      4  C   UNL     1       5.253   4.339  19.246  0.00  0.00    +0.000 A 
ATOM      5  C   UNL     1       4.085   5.130  19.435  0.00  0.00    +0.000 A 
ATOM      6  C   UNL     1       3.844   6.519  19.111  0.00  0.00    +0.000 A 
ATOM      7  C   UNL     1       2.559   6.949  19.373  0.00  0.00    +0.000 A 
ATOM      8  S   UNL     1       1.639   5.673  20.024  0.00  0.00    +0.000 S 
ATOM      9  C   UNL     1       2.927   4.529  19.947  0.00  0.00    +0.000 A 
ENDROOT
BRANCH   7  10
ATOM     10  C   UNL     1       1.963   8.285  19.193  0.00  0.00    +0.000 A 
ATOM     11  C   UNL     1       2.161   9.040  18.022  0.00  0.00    +0.000 A 
ATOM     12  C   UNL     1       1.562  10.297  17.857  0.00  0.00    +0.000 A 
ATOM     13  C   UNL     1       0.761  10.816  18.869  0.00  0.00    +0.000 A 
ATOM     14 CL   UNL     1       0.023  12.355  18.659  0.00  0.00    +0.000 Cl
ATOM     15  C   UNL     1       0.568  10.086  20.037  0.00  0.00    +0.000 A 
ATOM     16  F   UNL     1      -0.200  10.564  21.025  0.00  0.00    +0.000 F 
ATOM     17  C   UNL     1       1.159   8.832  20.203  0.00  0.00    +0.000 A 
ENDBRANCH   7  10
BRANCH   1  19
ATOM     18  N   UNL     1       1.552   2.374  22.156  0.00  0.00    +0.000 N 
ATOM     19  C   UNL     1       1.750   2.417  20.806  0.00  0.00    +0.000 C 
ATOM     20  O   UNL     1       0.993   1.827  20.045  0.00  0.00    +0.000 OA
ATOM     21  H   UNL     1       0.730   1.890  22.496  0.00  0.00    +0.000 HD
ATOM     22  H   UNL     1       2.131   2.864  22.826  0.00  0.00    +0.000 HD
ENDBRANCH   1  19
BRANCH   4  23
ATOM     23  N   UNL     1       6.405   4.866  18.701  0.00  0.00    +0.000 N 
ATOM     24  H   UNL     1       7.092   5.262  19.325  0.00  0.00    +0.000 HD
BRANCH  23  25
ATOM     25  C   UNL     1       6.768   4.563  17.321  0.00  0.00    +0.000 C 
ATOM     26  C   UNL     1       5.524   4.004  16.614  0.00  0.00    +0.000 C 
ATOM     27  C   UNL     1       5.805   3.759  15.134  0.00  0.00    +0.000 C 
ATOM     28  C   UNL     1       6.359   5.011  14.458  0.00  0.00    +0.000 C 
ATOM     29  N   UNL     1       7.559   5.495  15.136  0.00  0.00    +0.000 NA
ATOM     30  C   UNL     1       7.299   5.793  16.554  0.00  0.00    +0.000 C 
ATOM     31  H   UNL     1       7.908   6.333  14.673  0.00  0.00    +0.000 HD
ENDBRANCH  23  25
ENDBRANCH   4  23
TORSDOF 4
ENDMDL
MODEL 3
REMARK VINA RESULT:      -8.7      2.217      5.067
REMARK  Name = 
REMARK  4 active torsions:
REMARK  status: ('A' for Active; 'I' for Inactive)
REMARK    1  A    between atoms: C_2  and  C_4
REMARK    2  A    between atoms: C_7  and  N_8
REMARK    3  A    between atoms: N_8  and  C_9
REMARK    4  A    between atoms: C_17  and  C_18
REMARK                            x       y       z     vdW  Elec       q    Type
REMARK                         _______ _______ _______ _____ _____    ______ ____
ROOT
ATOM      1  C   UNL     1       2.818   3.630  20.116  0.00  0.00    +0.000 A 
ATOM      2  C   UNL     1       3.584   3.003  19.150  0.00  0.00    +0.000 A 
ATOM      3  N   UNL     1       4.107   3.616  18.068  0.00  0.00    +0.000 NA
ATOM      4  C   UNL     1       3.906   4.937  17.867  0.00  0.00    +0.000 A 
ATOM      5  C   UNL     1       3.129   5.669  18.808  0.00  0.00    +0.000 A 
ATOM      6  C   UNL     1       2.717   7.055  18.791  0.00  0.00    +0.000 A 
ATOM      7  C   UNL     1       1.904   7.419  19.846  0.00  0.00    +0.000 A 
ATOM      8  S   UNL     1       1.644   6.083  20.869  0.00  0.00    +0.000 S 
ATOM      9  C   UNL     1       2.589   5.001  19.916  0.00  0.00    +0.000 A 
ENDROOT
BRANCH   7  10
ATOM     10  C   UNL     1       1.315   8.732  20.166  0.00  0.00    +0.000 A 
ATOM     11  C   UNL     1       1.143   9.732  19.191  0.00  0.00    +0.000 A 
ATOM     12  C   UNL     1       0.555  10.964  19.508  0.00  0.00    +0.000 A 
ATOM     13  C   UNL     1       0.137  11.213  20.812  0.00  0.00    +0.000 A 
ATOM     14 CL   UNL     1      -0.590  12.723  21.195  0.00  0.00    +0.000 Cl
ATOM     15  C   UNL     1       0.314  10.238  21.788  0.00  0.00    +0.000 A 
ATOM     16  F   UNL     1      -0.081  10.453  23.050  0.00  0.00    +0.000 F 
ATOM     17  C   UNL     1       0.895   9.008  21.475  0.00  0.00    +0.000 A 
ENDBRANCH   7  10
BRANCH   1  19
ATOM     18  N   UNL     1       0.928   2.659  21.313  0.00  0.00    +0.000 N 
ATOM     19  C   UNL     1       2.280   2.812  21.219  0.00  0.00    +0.000 C 
ATOM     20  O   UNL     1       3.025   2.300  22.045  0.00  0.00    +0.000 OA
ATOM     21  H   UNL     1       0.571   2.063  22.050  0.00  0.00    +0.000 HD
ATOM     22  H   UNL     1       0.270   3.038  20.643  0.00  0.00    +0.000 HD
ENDBRANCH   1  19
BRANCH   4  23
ATOM     23  N   UNL     1       4.421   5.533  16.734  0.00  0.00    +0.000 N 
ATOM     24  H   UNL     1       4.188   6.497  16.552  0.00  0.00    +0.000 HD
BRANCH  23  25
ATOM     25  C   UNL     1       5.522   4.904  16.012  0.00  0.00    +0.000 C 
ATOM     26  C   UNL     1       5.001   4.476  14.631  0.00  0.00    +0.000 C 
ATOM     27  C   UNL     1       6.130   3.901  13.780  0.00  0.00    +0.000 C 
ATOM     28  C   UNL     1       7.311   4.865  13.696  0.00  0.00    +0.000 C 
ATOM     29  N   UNL     1       7.800   5.224  15.025  0.00  0.00    +0.000 NA
ATOM     30  C   UNL     1       6.742   5.835  15.847  0.00  0.00    +0.000 C 
ATOM     31  H   UNL     1       8.584   5.872  14.946  0.00  0.00    +0.000 HD
ENDBRANCH  23  25
ENDBRANCH   4  23
TORSDOF 4
ENDMDL
MODEL 4
REMARK VINA RESULT:      -8.6      2.102      4.920
REMARK  Name = 
REMARK  4 active torsions:
REMARK  status: ('A' for Active; 'I' for Inactive)
REMARK    1  A    between atoms: C_2  and  C_4
REMARK    2  A    between atoms: C_7  and  N_8
REMARK    3  A    between atoms: N_8  and  C_9
REMARK    4  A    between atoms: C_17  and  C_18
REMARK                            x       y       z     vdW  Elec       q    Type
REMARK                         _______ _______ _______ _____ _____    ______ ____
ROOT
ATOM      1  C   UNL     1       2.792   3.181  19.979  0.00  0.00    +0.000 A 
ATOM      2  C   UNL     1       3.317   2.309  19.043  0.00  0.00    +0.000 A 
ATOM      3  N   UNL     1       3.691   2.656  17.794  0.00  0.00    +0.000 NA
ATOM      4  C   UNL     1       3.573   3.935  17.376  0.00  0.00    +0.000 A 
ATOM      5  C   UNL     1       3.042   4.907  18.269  0.00  0.00    +0.000 A 
ATOM      6  C   UNL     1       2.755   6.308  18.051  0.00  0.00    +0.000 A 
ATOM      7  C   UNL     1       2.177   6.945  19.130  0.00  0.00    +0.000 A 
ATOM      8  S   UNL     1       1.987   5.850  20.420  0.00  0.00    +0.000 S 
ATOM      9  C   UNL     1       2.651   4.513  19.557  0.00  0.00    +0.000 A 
ENDROOT
BRANCH   7  10
ATOM     10  C   UNL     1       1.770   8.354  19.279  0.00  0.00    +0.000 A 
ATOM     11  C   UNL     1       1.889   9.282  18.229  0.00  0.00    +0.000 A 
ATOM     12  C   UNL     1       1.470  10.612  18.381  0.00  0.00    +0.000 A 
ATOM     13  C   UNL     1       0.932  11.029  19.594  0.00  0.00    +0.000 A 
ATOM     14 CL   UNL     1       0.413  12.659  19.774  0.00  0.00    +0.000 Cl
ATOM     15  C   UNL     1       0.821  10.125  20.645  0.00  0.00    +0.000 A 
ATOM     16  F   UNL     1       0.305  10.503  21.822  0.00  0.00    +0.000 F 
ATOM     17  C   UNL     1       1.233   8.799  20.496  0.00  0.00    +0.000 A 
ENDBRANCH   7  10
BRANCH   1  19
ATOM     18  N   UNL     1       1.070   2.685  21.633  0.00  0.00    +0.000 N 
ATOM     19  C   UNL     1       2.390   2.639  21.290  0.00  0.00    +0.000 C 
ATOM     20  O   UNL     1       3.220   2.179  22.063  0.00  0.00    +0.000 OA
ATOM     21  H   UNL     1       0.798   2.274  22.519  0.00  0.00    +0.000 HD
ATOM     22  H   UNL     1       0.340   3.030  21.022  0.00  0.00    +0.000 HD
ENDBRANCH   1  19
BRANCH   4  23
ATOM     23  N   UNL     1       3.928   4.257  16.083  0.00  0.00    +0.000 N 
ATOM     24  H   UNL     1       3.257   4.745  15.509  0.00  0.00    +0.000 HD
BRANCH  23  25
ATOM     25  C   UNL     1       5.327   4.199  15.671  0.00  0.00    +0.000 C 
ATOM     26  C   UNL     1       5.366   4.009  14.147  0.00  0.00    +0.000 C 
ATOM     27  C   UNL     1       6.802   4.041  13.633  0.00  0.00    +0.000 C 
ATOM     28  C   UNL     1       7.530   5.303  14.093  0.00  0.00    +0.000 C 
ATOM     29  N   UNL     1       7.501   5.434  15.548  0.00  0.00    +0.000 NA
ATOM     30  C   UNL     1       6.123   5.462  16.063  0.00  0.00    +0.000 C 
ATOM     31  H   UNL     1       7.987   6.284  15.831  0.00  0.00    +0.000 HD
ENDBRANCH  23  25
ENDBRANCH   4  23
TORSDOF 4
ENDMDL
MODEL 5
REMARK VINA RESULT:      -8.6      0.880      1.278
REMARK  Name = 
REMARK  4 active torsions:
REMARK  status: ('A' for Active; 'I' for Inactive)
REMARK    1  A    between atoms: C_2  and  C_4
REMARK    2  A    between atoms: C_7  and  N_8
REMARK    3  A    between atoms: N_8  and  C_9
REMARK    4  A    between atoms: C_17  and  C_18
REMARK                            x       y       z     vdW  Elec       q    Type
REMARK                         _______ _______ _______ _____ _____    ______ ____
ROOT
ATOM      1  C   UNL     1       5.528   5.187  16.538  0.00  0.00    +0.000 A 
ATOM      2  C   UNL     1       5.441   3.831  16.282  0.00  0.00    +0.000 A 
ATOM      3  N   UNL     1       4.392   3.052  16.617  0.00  0.00    +0.000 NA
ATOM      4  C   UNL     1       3.317   3.584  17.241  0.00  0.00    +0.000 A 
ATOM      5  C   UNL     1       3.314   4.973  17.547  0.00  0.00    +0.000 A 
ATOM      6  C   UNL     1       2.332   5.764  18.257  0.00  0.00    +0.000 A 
ATOM      7  C   UNL     1       2.686   7.086  18.432  0.00  0.00    +0.000 A 
ATOM      8  S   UNL     1       4.207   7.381  17.726  0.00  0.00    +0.000 S 
ATOM      9  C   UNL     1       4.425   5.754  17.198  0.00  0.00    +0.000 A 
ENDROOT
BRANCH   7  10
ATOM     10  C   UNL     1       1.939   8.179  19.081  0.00  0.00    +0.000 A 
ATOM     11  C   UNL     1       1.571   8.130  20.438  0.00  0.00    +0.000 A 
ATOM     12  C   UNL     1       0.885   9.191  21.046  0.00  0.00    +0.000 A 
ATOM     13  C   UNL     1       0.553  10.314  20.296  0.00  0.00    +0.000 A 
ATOM     14 CL   UNL     1      -0.282  11.617  21.046  0.00  0.00    +0.000 Cl
ATOM     15  C   UNL     1       0.899  10.371  18.950  0.00  0.00    +0.000 A 
ATOM     16  F   UNL     1       0.591  11.442  18.207  0.00  0.00    +0.000 F 
ATOM     17  C   UNL     1       1.586   9.317  18.342  0.00  0.00    +0.000 A 
ENDBRANCH   7  10
BRANCH   1  19
ATOM     18  N   UNL     1       7.465   5.429  15.076  0.00  0.00    +0.000 N 
ATOM     19  C   UNL     1       6.763   5.894  16.149  0.00  0.00    +0.000 C 
ATOM     20  O   UNL     1       7.162   6.861  16.786  0.00  0.00    +0.000 OA
ATOM     21  H   UNL     1       8.290   5.945  14.793  0.00  0.00    +0.000 HD
ATOM     22  H   UNL     1       7.166   4.652  14.501  0.00  0.00    +0.000 HD
ENDBRANCH   1  19
BRANCH   4  23
ATOM     23  N   UNL     1       2.273   2.760  17.604  0.00  0.00    +0.000 N 
ATOM     24  H   UNL     1       1.785   2.257  16.878  0.00  0.00    +0.000 HD
BRANCH  23  25
ATOM     25  C   UNL     1       2.097   2.370  18.999  0.00  0.00    +0.000 C 
ATOM     26  C   UNL     1       3.411   2.657  19.742  0.00  0.00    +0.000 C 
ATOM     27  C   UNL     1       3.266   2.367  21.233  0.00  0.00    +0.000 C 
ATOM     28  C   UNL     1       2.072   3.108  21.831  0.00  0.00    +0.000 C 
ATOM     29  N   UNL     1       0.836   2.786  21.122  0.00  0.00    +0.000 NA
ATOM     30  C   UNL     1       0.932   3.111  19.689  0.00  0.00    +0.000 C 
ATOM     31  H   UNL     1       0.055   3.295  21.533  0.00  0.00    +0.000 HD
ENDBRANCH  23  25
ENDBRANCH   4  23
TORSDOF 4
ENDMDL
MODEL 6
REMARK VINA RESULT:      -8.6      2.464      4.924
REMARK  Name = 
REMARK  4 active torsions:
REMARK  status: ('A' for Active; 'I' for Inactive)
REMARK    1  A    between atoms: C_2  and  C_4
REMARK    2  A    between atoms: C_7  and  N_8
REMARK    3  A    between atoms: N_8  and  C_9
REMARK    4  A    between atoms: C_17  and  C_18
REMARK                            x       y       z     vdW  Elec       q    Type
REMARK                         _______ _______ _______ _____ _____    ______ ____
ROOT
ATOM      1  C   UNL     1       2.730   3.250  20.558  0.00  0.00    +0.000 A 
ATOM      2  C   UNL     1       3.837   2.474  20.266  0.00  0.00    +0.000 A 
ATOM      3  N   UNL     1       4.933   2.915  19.615  0.00  0.00    +0.000 NA
ATOM      4  C   UNL     1       5.013   4.199  19.202  0.00  0.00    +0.000 A 
ATOM      5  C   UNL     1       3.922   5.076  19.457  0.00  0.00    +0.000 A 
ATOM      6  C   UNL     1       3.731   6.456  19.068  0.00  0.00    +0.000 A 
ATOM      7  C   UNL     1       2.509   6.985  19.433  0.00  0.00    +0.000 A 
ATOM      8  S   UNL     1       1.589   5.814  20.257  0.00  0.00    +0.000 S 
ATOM      9  C   UNL     1       2.791   4.585  20.124  0.00  0.00    +0.000 A 
ENDROOT
BRANCH   7  10
ATOM     10  C   UNL     1       1.977   8.345  19.226  0.00  0.00    +0.000 A 
ATOM     11  C   UNL     1       2.249   9.085  18.061  0.00  0.00    +0.000 A 
ATOM     12  C   UNL     1       1.712  10.365  17.870  0.00  0.00    +0.000 A 
ATOM     13  C   UNL     1       0.898  10.924  18.851  0.00  0.00    +0.000 A 
ATOM     14 CL   UNL     1       0.235  12.492  18.611  0.00  0.00    +0.000 Cl
ATOM     15  C   UNL     1       0.632  10.208  20.014  0.00  0.00    +0.000 A 
ATOM     16  F   UNL     1      -0.149  10.723  20.973  0.00  0.00    +0.000 F 
ATOM     17  C   UNL     1       1.163   8.931  20.206  0.00  0.00    +0.000 A 
ENDBRANCH   7  10
BRANCH   1  19
ATOM     18  N   UNL     1       0.419   2.471  20.551  0.00  0.00    +0.000 N 
ATOM     19  C   UNL     1       1.589   2.610  21.238  0.00  0.00    +0.000 C 
ATOM     20  O   UNL     1       1.680   2.231  22.399  0.00  0.00    +0.000 OA
ATOM     21  H   UNL     1      -0.346   1.994  21.013  0.00  0.00    +0.000 HD
ATOM     22  H   UNL     1       0.298   2.742  19.583  0.00  0.00    +0.000 HD
ENDBRANCH   1  19
BRANCH   4  23
ATOM     23  N   UNL     1       6.129   4.616  18.507  0.00  0.00    +0.000 N 
ATOM     24  H   UNL     1       7.034   4.488  18.934  0.00  0.00    +0.000 HD
BRANCH  23  25
ATOM     25  C   UNL     1       6.037   4.915  17.082  0.00  0.00    +0.000 C 
ATOM     26  C   UNL     1       7.433   4.735  16.467  0.00  0.00    +0.000 C 
ATOM     27  C   UNL     1       7.390   4.934  14.955  0.00  0.00    +0.000 C 
ATOM     28  C   UNL     1       6.336   4.039  14.306  0.00  0.00    +0.000 C 
ATOM     29  N   UNL     1       5.016   4.260  14.892  0.00  0.00    +0.000 NA
ATOM     30  C   UNL     1       5.019   4.018  16.344  0.00  0.00    +0.000 C 
ATOM     31  H   UNL     1       4.331   3.650  14.448  0.00  0.00    +0.000 HD
ENDBRANCH  23  25
ENDBRANCH   4  23
TORSDOF 4
ENDMDL
MODEL 7
REMARK VINA RESULT:      -8.6      2.498      4.861
REMARK  Name = 
REMARK  4 active torsions:
REMARK  status: ('A' for Active; 'I' for Inactive)
REMARK    1  A    between atoms: C_2  and  C_4
REMARK    2  A    between atoms: C_7  and  N_8
REMARK    3  A    between atoms: N_8  and  C_9
REMARK    4  A    between atoms: C_17  and  C_18
REMARK                            x       y       z     vdW  Elec       q    Type
REMARK                         _______ _______ _______ _____ _____    ______ ____
ROOT
ATOM      1  C   UNL     1       2.860   3.555  20.247  0.00  0.00    +0.000 A 
ATOM      2  C   UNL     1       3.781   2.815  19.529  0.00  0.00    +0.000 A 
ATOM      3  N   UNL     1       4.547   3.303  18.531  0.00  0.00    +0.000 NA
ATOM      4  C   UNL     1       4.455   4.602  18.171  0.00  0.00    +0.000 A 
ATOM      5  C   UNL     1       3.533   5.444  18.854  0.00  0.00    +0.000 A 
ATOM      6  C   UNL     1       3.199   6.832  18.622  0.00  0.00    +0.000 A 
ATOM      7  C   UNL     1       2.201   7.321  19.441  0.00  0.00    +0.000 A 
ATOM      8  S   UNL     1       1.669   6.101  20.503  0.00  0.00    +0.000 S 
ATOM      9  C   UNL     1       2.742   4.904  19.877  0.00  0.00    +0.000 A 
ENDROOT
BRANCH   7  10
ATOM     10  C   UNL     1       1.620   8.674  19.505  0.00  0.00    +0.000 A 
ATOM     11  C   UNL     1       1.578   9.524  18.385  0.00  0.00    +0.000 A 
ATOM     12  C   UNL     1       0.996  10.797  18.458  0.00  0.00    +0.000 A 
ATOM     13  C   UNL     1       0.453  11.237  19.662  0.00  0.00    +0.000 A 
ATOM     14 CL   UNL     1      -0.267  12.797  19.746  0.00  0.00    +0.000 Cl
ATOM     15  C   UNL     1       0.499  10.412  20.780  0.00  0.00    +0.000 A 
ATOM     16  F   UNL     1      -0.018  10.813  21.950  0.00  0.00    +0.000 F 
ATOM     17  C   UNL     1       1.075   9.142  20.710  0.00  0.00    +0.000 A 
ENDBRANCH   7  10
BRANCH   1  19
ATOM     18  N   UNL     1       0.722   2.728  21.082  0.00  0.00    +0.000 N 
ATOM     19  C   UNL     1       2.065   2.866  21.281  0.00  0.00    +0.000 C 
ATOM     20  O   UNL     1       2.591   2.445  22.304  0.00  0.00    +0.000 OA
ATOM     21  H   UNL     1       0.192   2.219  21.779  0.00  0.00    +0.000 HD
ATOM     22  H   UNL     1       0.243   3.034  20.245  0.00  0.00    +0.000 HD
ENDBRANCH   1  19
BRANCH   4  23
ATOM     23  N   UNL     1       5.223   5.068  17.124  0.00  0.00    +0.000 N 
ATOM     24  H   UNL     1       4.777   5.215  16.232  0.00  0.00    +0.000 HD
BRANCH  23  25
ATOM     25  C   UNL     1       6.540   5.642  17.380  0.00  0.00    +0.000 C 
ATOM     26  C   UNL     1       6.493   7.129  16.997  0.00  0.00    +0.000 C 
ATOM     27  C   UNL     1       7.811   7.819  17.335  0.00  0.00    +0.000 C 
ATOM     28  C   UNL     1       8.198   7.594  18.795  0.00  0.00    +0.000 C 
ATOM     29  N   UNL     1       8.265   6.171  19.115  0.00  0.00    +0.000 NA
ATOM     30  C   UNL     1       6.985   5.493  18.851  0.00  0.00    +0.000 C 
ATOM     31  H   UNL     1       8.519   6.045  20.095  0.00  0.00    +0.000 HD
ENDBRANCH  23  25
ENDBRANCH   4  23
TORSDOF 4
ENDMDL
MODEL 8
REMARK VINA RESULT:      -8.5      2.368      5.220
REMARK  Name = 
REMARK  4 active torsions:
REMARK  status: ('A' for Active; 'I' for Inactive)
REMARK    1  A    between atoms: C_2  and  C_4
REMARK    2  A    between atoms: C_7  and  N_8
REMARK    3  A    between atoms: N_8  and  C_9
REMARK    4  A    between atoms: C_17  and  C_18
REMARK                            x       y       z     vdW  Elec       q    Type
REMARK                         _______ _______ _______ _____ _____    ______ ____
ROOT
ATOM      1  C   UNL     1       2.744   3.770  20.113  0.00  0.00    +0.000 A 
ATOM      2  C   UNL     1       3.551   3.148  19.179  0.00  0.00    +0.000 A 
ATOM      3  N   UNL     1       4.122   3.765  18.125  0.00  0.00    +0.000 NA
ATOM      4  C   UNL     1       3.932   5.088  17.922  0.00  0.00    +0.000 A 
ATOM      5  C   UNL     1       3.115   5.815  18.831  0.00  0.00    +0.000 A 
ATOM      6  C   UNL     1       2.704   7.202  18.803  0.00  0.00    +0.000 A 
ATOM      7  C   UNL     1       1.846   7.562  19.822  0.00  0.00    +0.000 A 
ATOM      8  S   UNL     1       1.539   6.221  20.826  0.00  0.00    +0.000 S 
ATOM      9  C   UNL     1       2.524   5.142  19.910  0.00  0.00    +0.000 A 
ENDROOT
BRANCH   7  10
ATOM     10  C   UNL     1       1.244   8.874  20.122  0.00  0.00    +0.000 A 
ATOM     11  C   UNL     1       0.784   9.209  21.408  0.00  0.00    +0.000 A 
ATOM     12  C   UNL     1       0.241  10.472  21.681  0.00  0.00    +0.000 A 
ATOM     13  C   UNL     1       0.144  11.414  20.662  0.00  0.00    +0.000 A 
ATOM     14 CL   UNL     1      -0.518  12.965  21.002  0.00  0.00    +0.000 Cl
ATOM     15  C   UNL     1       0.582  11.091  19.382  0.00  0.00    +0.000 A 
ATOM     16  F   UNL     1       0.501  11.982  18.385  0.00  0.00    +0.000 F 
ATOM     17  C   UNL     1       1.128   9.836  19.108  0.00  0.00    +0.000 A 
ENDBRANCH   7  10
BRANCH   1  19
ATOM     18  N   UNL     1       0.807   2.746  21.186  0.00  0.00    +0.000 N 
ATOM     19  C   UNL     1       2.156   2.948  21.188  0.00  0.00    +0.000 C 
ATOM     20  O   UNL     1       2.857   2.474  22.073  0.00  0.00    +0.000 OA
ATOM     21  H   UNL     1       0.419   2.147  21.905  0.00  0.00    +0.000 HD
ATOM     22  H   UNL     1       0.186   3.092  20.464  0.00  0.00    +0.000 HD
ENDBRANCH   1  19
BRANCH   4  23
ATOM     23  N   UNL     1       4.497   5.688  16.816  0.00  0.00    +0.000 N 
ATOM     24  H   UNL     1       4.341   6.675  16.675  0.00  0.00    +0.000 HD
BRANCH  23  25
ATOM     25  C   UNL     1       5.550   5.007  16.070  0.00  0.00    +0.000 C 
ATOM     26  C   UNL     1       4.968   4.573  14.716  0.00  0.00    +0.000 C 
ATOM     27  C   UNL     1       6.045   3.941  13.840  0.00  0.00    +0.000 C 
ATOM     28  C   UNL     1       7.257   4.860  13.697  0.00  0.00    +0.000 C 
ATOM     29  N   UNL     1       7.803   5.226  15.002  0.00  0.00    +0.000 NA
ATOM     30  C   UNL     1       6.796   5.889  15.846  0.00  0.00    +0.000 C 
ATOM     31  H   UNL     1       8.606   5.843  14.884  0.00  0.00    +0.000 HD
ENDBRANCH  23  25
ENDBRANCH   4  23
TORSDOF 4
ENDMDL
MODEL 9
REMARK VINA RESULT:      -8.4      2.639      5.155
REMARK  Name = 
REMARK  4 active torsions:
REMARK  status: ('A' for Active; 'I' for Inactive)
REMARK    1  A    between atoms: C_2  and  C_4
REMARK    2  A    between atoms: C_7  and  N_8
REMARK    3  A    between atoms: N_8  and  C_9
REMARK    4  A    between atoms: C_17  and  C_18
REMARK                            x       y       z     vdW  Elec       q    Type
REMARK                         _______ _______ _______ _____ _____    ______ ____
ROOT
ATOM      1  C   UNL     1       2.699   3.350  20.468  0.00  0.00    +0.000 A 
ATOM      2  C   UNL     1       3.840   2.615  20.203  0.00  0.00    +0.000 A 
ATOM      3  N   UNL     1       4.961   3.113  19.641  0.00  0.00    +0.000 NA
ATOM      4  C   UNL     1       5.033   4.419  19.301  0.00  0.00    +0.000 A 
ATOM      5  C   UNL     1       3.908   5.257  19.536  0.00  0.00    +0.000 A 
ATOM      6  C   UNL     1       3.706   6.652  19.209  0.00  0.00    +0.000 A 
ATOM      7  C   UNL     1       2.453   7.135  19.528  0.00  0.00    +0.000 A 
ATOM      8  S   UNL     1       1.515   5.902  20.234  0.00  0.00    +0.000 S 
ATOM      9  C   UNL     1       2.752   4.707  20.109  0.00  0.00    +0.000 A 
ENDROOT
BRANCH   7  10
ATOM     10  C   UNL     1       1.901   8.492  19.361  0.00  0.00    +0.000 A 
ATOM     11  C   UNL     1       0.902   9.002  20.210  0.00  0.00    +0.000 A 
ATOM     12  C   UNL     1       0.409  10.305  20.054  0.00  0.00    +0.000 A 
ATOM     13  C   UNL     1       0.909  11.112  19.036  0.00  0.00    +0.000 A 
ATOM     14 CL   UNL     1       0.307  12.713  18.852  0.00  0.00    +0.000 Cl
ATOM     15  C   UNL     1       1.887  10.615  18.181  0.00  0.00    +0.000 A 
ATOM     16  F   UNL     1       2.384  11.373  17.195  0.00  0.00    +0.000 F 
ATOM     17  C   UNL     1       2.383   9.319  18.337  0.00  0.00    +0.000 A 
ENDBRANCH   7  10
BRANCH   1  19
ATOM     18  N   UNL     1       0.410   2.528  20.285  0.00  0.00    +0.000 N 
ATOM     19  C   UNL     1       1.536   2.651  21.046  0.00  0.00    +0.000 C 
ATOM     20  O   UNL     1       1.570   2.209  22.187  0.00  0.00    +0.000 OA
ATOM     21  H   UNL     1      -0.369   2.011  20.676  0.00  0.00    +0.000 HD
ATOM     22  H   UNL     1       0.338   2.851  19.329  0.00  0.00    +0.000 HD
ENDBRANCH   1  19
BRANCH   4  23
ATOM     23  N   UNL     1       6.177   4.896  18.696  0.00  0.00    +0.000 N 
ATOM     24  H   UNL     1       6.894   5.301  19.280  0.00  0.00    +0.000 HD
BRANCH  23  25
ATOM     25  C   UNL     1       6.487   4.526  17.319  0.00  0.00    +0.000 C 
ATOM     26  C   UNL     1       5.163   4.230  16.598  0.00  0.00    +0.000 C 
ATOM     27  C   UNL     1       5.405   3.935  15.120  0.00  0.00    +0.000 C 
ATOM     28  C   UNL     1       6.208   5.050  14.453  0.00  0.00    +0.000 C 
ATOM     29  N   UNL     1       7.473   5.281  15.146  0.00  0.00    +0.000 NA
ATOM     30  C   UNL     1       7.263   5.625  16.562  0.00  0.00    +0.000 C 
ATOM     31  H   UNL     1       7.989   6.032  14.688  0.00  0.00    +0.000 HD
ENDBRANCH  23  25
ENDBRANCH   4  23
TORSDOF 4
ENDMDL
