MODEL 1
REMARK VINA RESULT:      -7.7      0.000      0.000
REMARK  Name = 
REMARK  8 active torsions:
REMARK  status: ('A' for Active; 'I' for Inactive)
REMARK    1  A    between atoms: C_1  and  O_2
REMARK    2  A    between atoms: O_2  and  C_3
REMARK    3  A    between atoms: C_7  and  C_8
REMARK    4  A    between atoms: C_8  and  N_9
REMARK    5  A    between atoms: C_10  and  C_11
REMARK    6  A    between atoms: C_12  and  C_13
REMARK    7  A    between atoms: N_14  and  C_15
REMARK    8  A    between atoms: C_15  and  C_16
REMARK                            x       y       z     vdW  Elec       q    Type
REMARK                         _______ _______ _______ _____ _____    ______ ____
ROOT
ATOM      1  N   UNL     1       5.501   5.070  16.860  0.00  0.00    +0.000 N 
ATOM      2  C   UNL     1       5.287   6.425  17.100  0.00  0.00    +0.000 A 
ATOM      3  C   UNL     1       6.314   7.484  16.903  0.00  0.00    +0.000 C 
ATOM      4  C   UNL     1       4.027   6.591  17.555  0.00  0.00    +0.000 A 
ATOM      5  C   UNL     1       3.347   7.859  17.939  0.00  0.00    +0.000 C 
ATOM      6  N   UNL     1       3.408   5.349  17.634  0.00  0.00    +0.000 N 
ATOM      7  C   UNL     1       4.329   4.345  17.226  0.00  0.00    +0.000 A 
ATOM      8  S   UNL     1       4.099   2.698  17.198  0.00  0.00    +0.000 S 
ENDROOT
BRANCH   1   9
ATOM      9  C   UNL     1       6.700   4.492  16.259  0.00  0.00    +0.000 C 
BRANCH   9  14
ATOM     10  C   UNL     1       6.081   3.502  12.601  0.00  0.00    +0.000 A 
ATOM     11  C   UNL     1       7.034   4.295  11.961  0.00  0.00    +0.000 A 
ATOM     12  C   UNL     1       7.820   5.185  12.692  0.00  0.00    +0.000 A 
ATOM     13  C   UNL     1       7.677   5.259  14.078  0.00  0.00    +0.000 A 
ATOM     14  C   UNL     1       6.737   4.458  14.744  0.00  0.00    +0.000 A 
ATOM     15  C   UNL     1       5.914   3.613  13.982  0.00  0.00    +0.000 A 
BRANCH  10  17
ATOM     16  C   UNL     1       4.177   3.124  11.227  0.00  0.00    +0.000 C 
ATOM     17  O   UNL     1       5.396   2.645  11.782  0.00  0.00    +0.000 OA
ENDBRANCH  10  17
ENDBRANCH   9  14
ENDBRANCH   1   9
BRANCH   6  18
ATOM     18  C   UNL     1       2.009   5.132  17.999  0.00  0.00    +0.000 C 
BRANCH  18  19
ATOM     19  C   UNL     1       1.764   4.290  19.232  0.00  0.00    +0.000 A 
ATOM     20  C   UNL     1       0.984   3.125  19.229  0.00  0.00    +0.000 A 
ATOM     21  C   UNL     1       0.853   2.355  20.387  0.00  0.00    +0.000 A 
ATOM     22  C   UNL     1       1.477   2.751  21.568  0.00  0.00    +0.000 A 
ATOM     23  C   UNL     1       2.210   3.934  21.602  0.00  0.00    +0.000 A 
ATOM     24  C   UNL     1       2.346   4.702  20.444  0.00  0.00    +0.000 A 
ENDBRANCH  18  19
ENDBRANCH   6  18
TORSDOF 5
ENDMDL
MODEL 2
REMARK VINA RESULT:      -6.4      2.873      4.939
REMARK  Name = 
REMARK  8 active torsions:
REMARK  status: ('A' for Active; 'I' for Inactive)
REMARK    1  A    between atoms: C_1  and  O_2
REMARK    2  A    between atoms: O_2  and  C_3
REMARK    3  A    between atoms: C_7  and  C_8
REMARK    4  A    between atoms: C_8  and  N_9
REMARK    5  A    between atoms: C_10  and  C_11
REMARK    6  A    between atoms: C_12  and  C_13
REMARK    7  A    between atoms: N_14  and  C_15
REMARK    8  A    between atoms: C_15  and  C_16
REMARK                            x       y       z     vdW  Elec       q    Type
REMARK                         _______ _______ _______ _____ _____    ______ ____
ROOT
ATOM      1  N   UNL     1       2.864   4.523  17.673  0.00  0.00    +0.000 N 
ATOM      2  C   UNL     1       2.054   3.855  18.589  0.00  0.00    +0.000 A 
ATOM      3  C   UNL     1       1.525   2.479  18.393  0.00  0.00    +0.000 C 
ATOM      4  C   UNL     1       1.824   4.673  19.639  0.00  0.00    +0.000 A 
ATOM      5  C   UNL     1       1.020   4.395  20.861  0.00  0.00    +0.000 C 
ATOM      6  N   UNL     1       2.465   5.886  19.417  0.00  0.00    +0.000 N 
ATOM      7  C   UNL     1       3.117   5.841  18.154  0.00  0.00    +0.000 A 
ATOM      8  S   UNL     1       3.968   7.055  17.400  0.00  0.00    +0.000 S 
ENDROOT
BRANCH   1   9
ATOM      9  C   UNL     1       3.428   3.942  16.457  0.00  0.00    +0.000 C 
BRANCH   9  14
ATOM     10  C   UNL     1       7.178   4.478  17.082  0.00  0.00    +0.000 A 
ATOM     11  C   UNL     1       7.609   4.774  15.789  0.00  0.00    +0.000 A 
ATOM     12  C   UNL     1       6.714   4.736  14.719  0.00  0.00    +0.000 A 
ATOM     13  C   UNL     1       5.372   4.435  14.948  0.00  0.00    +0.000 A 
ATOM     14  C   UNL     1       4.913   4.151  16.244  0.00  0.00    +0.000 A 
ATOM     15  C   UNL     1       5.843   4.135  17.296  0.00  0.00    +0.000 A 
BRANCH  10  17
ATOM     16  C   UNL     1       7.962   5.606  19.022  0.00  0.00    +0.000 C 
ATOM     17  O   UNL     1       8.140   4.582  18.051  0.00  0.00    +0.000 OA
ENDBRANCH  10  17
ENDBRANCH   9  14
ENDBRANCH   1   9
BRANCH   6  18
ATOM     18  C   UNL     1       2.520   6.991  20.371  0.00  0.00    +0.000 C 
BRANCH  18  19
ATOM     19  C   UNL     1       1.530   8.115  20.150  0.00  0.00    +0.000 A 
ATOM     20  C   UNL     1       1.474   8.872  18.973  0.00  0.00    +0.000 A 
ATOM     21  C   UNL     1       0.491   9.851  18.804  0.00  0.00    +0.000 A 
ATOM     22  C   UNL     1      -0.431  10.102  19.818  0.00  0.00    +0.000 A 
ATOM     23  C   UNL     1      -0.355   9.396  21.014  0.00  0.00    +0.000 A 
ATOM     24  C   UNL     1       0.624   8.414  21.183  0.00  0.00    +0.000 A 
ENDBRANCH  18  19
ENDBRANCH   6  18
TORSDOF 5
ENDMDL
MODEL 3
REMARK VINA RESULT:      -6.3      8.751     12.041
REMARK  Name = 
REMARK  8 active torsions:
REMARK  status: ('A' for Active; 'I' for Inactive)
REMARK    1  A    between atoms: C_1  and  O_2
REMARK    2  A    between atoms: O_2  and  C_3
REMARK    3  A    between atoms: C_7  and  C_8
REMARK    4  A    between atoms: C_8  and  N_9
REMARK    5  A    between atoms: C_10  and  C_11
REMARK    6  A    between atoms: C_12  and  C_13
REMARK    7  A    between atoms: N_14  and  C_15
REMARK    8  A    between atoms: C_15  and  C_16
REMARK                            x       y       z     vdW  Elec       q    Type
REMARK                         _______ _______ _______ _____ _____    ______ ____
ROOT
ATOM      1  N   UNL     1       0.489  12.308  19.620  0.00  0.00    +0.000 N 
ATOM      2  C   UNL     1       1.650  12.333  18.852  0.00  0.00    +0.000 A 
ATOM      3  C   UNL     1       2.228  11.147  18.164  0.00  0.00    +0.000 C 
ATOM      4  C   UNL     1       2.153  13.586  18.869  0.00  0.00    +0.000 A 
ATOM      5  C   UNL     1       3.375  14.096  18.188  0.00  0.00    +0.000 C 
ATOM      6  N   UNL     1       1.338  14.390  19.658  0.00  0.00    +0.000 N 
ATOM      7  C   UNL     1       0.278  13.600  20.183  0.00  0.00    +0.000 A 
ATOM      8  S   UNL     1      -0.925  14.072  21.230  0.00  0.00    +0.000 S 
ENDROOT
BRANCH   1   9
ATOM      9  C   UNL     1      -0.409  11.165  19.764  0.00  0.00    +0.000 C 
BRANCH   9  14
ATOM     10  C   UNL     1      -3.728  11.449  17.854  0.00  0.00    +0.000 A 
ATOM     11  C   UNL     1      -3.508  10.531  16.828  0.00  0.00    +0.000 A 
ATOM     12  C   UNL     1      -2.280   9.878  16.715  0.00  0.00    +0.000 A 
ATOM     13  C   UNL     1      -1.278  10.118  17.655  0.00  0.00    +0.000 A 
ATOM     14  C   UNL     1      -1.485  11.025  18.706  0.00  0.00    +0.000 A 
ATOM     15  C   UNL     1      -2.706  11.716  18.765  0.00  0.00    +0.000 A 
BRANCH  10  17
ATOM     16  C   UNL     1      -6.065  11.112  18.136  0.00  0.00    +0.000 C 
ATOM     17  O   UNL     1      -4.982  11.998  17.881  0.00  0.00    +0.000 OA
ENDBRANCH  10  17
ENDBRANCH   9  14
ENDBRANCH   1   9
BRANCH   6  18
ATOM     18  C   UNL     1       1.509  15.829  19.844  0.00  0.00    +0.000 C 
BRANCH  18  19
ATOM     19  C   UNL     1       0.880  16.718  18.793  0.00  0.00    +0.000 A 
ATOM     20  C   UNL     1      -0.497  16.965  18.715  0.00  0.00    +0.000 A 
ATOM     21  C   UNL     1      -1.008  17.851  17.763  0.00  0.00    +0.000 A 
ATOM     22  C   UNL     1      -0.153  18.481  16.861  0.00  0.00    +0.000 A 
ATOM     23  C   UNL     1       1.211  18.204  16.889  0.00  0.00    +0.000 A 
ATOM     24  C   UNL     1       1.723  17.323  17.844  0.00  0.00    +0.000 A 
ENDBRANCH  18  19
ENDBRANCH   6  18
TORSDOF 5
ENDMDL
MODEL 4
REMARK VINA RESULT:      -6.2      8.806     12.302
REMARK  Name = 
REMARK  8 active torsions:
REMARK  status: ('A' for Active; 'I' for Inactive)
REMARK    1  A    between atoms: C_1  and  O_2
REMARK    2  A    between atoms: O_2  and  C_3
REMARK    3  A    between atoms: C_7  and  C_8
REMARK    4  A    between atoms: C_8  and  N_9
REMARK    5  A    between atoms: C_10  and  C_11
REMARK    6  A    between atoms: C_12  and  C_13
REMARK    7  A    between atoms: N_14  and  C_15
REMARK    8  A    between atoms: C_15  and  C_16
REMARK                            x       y       z     vdW  Elec       q    Type
REMARK                         _______ _______ _______ _____ _____    ______ ____
ROOT
ATOM      1  N   UNL     1      -2.009  12.581  19.835  0.00  0.00    +0.000 N 
ATOM      2  C   UNL     1      -2.581  11.748  18.876  0.00  0.00    +0.000 A 
ATOM      3  C   UNL     1      -4.036  11.697  18.569  0.00  0.00    +0.000 C 
ATOM      4  C   UNL     1      -1.606  11.000  18.316  0.00  0.00    +0.000 A 
ATOM      5  C   UNL     1      -1.735   9.975  17.244  0.00  0.00    +0.000 C 
ATOM      6  N   UNL     1      -0.391  11.322  18.910  0.00  0.00    +0.000 N 
ATOM      7  C   UNL     1      -0.612  12.309  19.910  0.00  0.00    +0.000 A 
ATOM      8  S   UNL     1       0.504  12.982  20.944  0.00  0.00    +0.000 S 
ENDROOT
BRANCH   1   9
ATOM      9  C   UNL     1      -2.711  13.618  20.586  0.00  0.00    +0.000 C 
BRANCH   9  14
ATOM     10  C   UNL     1      -5.629  12.881  22.970  0.00  0.00    +0.000 A 
ATOM     11  C   UNL     1      -4.929  12.470  24.105  0.00  0.00    +0.000 A 
ATOM     12  C   UNL     1      -3.539  12.369  24.080  0.00  0.00    +0.000 A 
ATOM     13  C   UNL     1      -2.839  12.714  22.923  0.00  0.00    +0.000 A 
ATOM     14  C   UNL     1      -3.522  13.147  21.776  0.00  0.00    +0.000 A 
ATOM     15  C   UNL     1      -4.925  13.183  21.804  0.00  0.00    +0.000 A 
BRANCH  10  17
ATOM     16  C   UNL     1      -7.451  13.702  24.259  0.00  0.00    +0.000 C 
ATOM     17  O   UNL     1      -6.986  12.974  23.129  0.00  0.00    +0.000 OA
ENDBRANCH  10  17
ENDBRANCH   9  14
ENDBRANCH   1   9
BRANCH   6  18
ATOM     18  C   UNL     1       0.907  10.785  18.507  0.00  0.00    +0.000 C 
BRANCH  18  19
ATOM     19  C   UNL     1       1.303   9.461  19.124  0.00  0.00    +0.000 A 
ATOM     20  C   UNL     1       0.968   9.089  20.433  0.00  0.00    +0.000 A 
ATOM     21  C   UNL     1       1.305   7.824  20.920  0.00  0.00    +0.000 A 
ATOM     22  C   UNL     1       2.003   6.925  20.116  0.00  0.00    +0.000 A 
ATOM     23  C   UNL     1       2.391   7.299  18.833  0.00  0.00    +0.000 A 
ATOM     24  C   UNL     1       2.050   8.561  18.343  0.00  0.00    +0.000 A 
ENDBRANCH  18  19
ENDBRANCH   6  18
TORSDOF 5
ENDMDL
MODEL 5
REMARK VINA RESULT:      -6.2      8.625     11.893
REMARK  Name = 
REMARK  8 active torsions:
REMARK  status: ('A' for Active; 'I' for Inactive)
REMARK    1  A    between atoms: C_1  and  O_2
REMARK    2  A    between atoms: O_2  and  C_3
REMARK    3  A    between atoms: C_7  and  C_8
REMARK    4  A    between atoms: C_8  and  N_9
REMARK    5  A    between atoms: C_10  and  C_11
REMARK    6  A    between atoms: C_12  and  C_13
REMARK    7  A    between atoms: N_14  and  C_15
REMARK    8  A    between atoms: C_15  and  C_16
REMARK                            x       y       z     vdW  Elec       q    Type
REMARK                         _______ _______ _______ _____ _____    ______ ____
ROOT
ATOM      1  N   UNL     1      -0.088  11.819  19.483  0.00  0.00    +0.000 N 
ATOM      2  C   UNL     1       1.156  11.825  18.857  0.00  0.00    +0.000 A 
ATOM      3  C   UNL     1       1.727  10.670  18.114  0.00  0.00    +0.000 C 
ATOM      4  C   UNL     1       1.739  13.024  19.066  0.00  0.00    +0.000 A 
ATOM      5  C   UNL     1       3.067  13.497  18.586  0.00  0.00    +0.000 C 
ATOM      6  N   UNL     1       0.894  13.809  19.842  0.00  0.00    +0.000 N 
ATOM      7  C   UNL     1      -0.274  13.061  20.156  0.00  0.00    +0.000 A 
ATOM      8  S   UNL     1      -1.558  13.524  21.107  0.00  0.00    +0.000 S 
ENDROOT
BRANCH   1   9
ATOM      9  C   UNL     1      -1.075  10.745  19.400  0.00  0.00    +0.000 C 
BRANCH   9  14
ATOM     10  C   UNL     1      -4.104  11.517  17.171  0.00  0.00    +0.000 A 
ATOM     11  C   UNL     1      -3.845  10.671  16.092  0.00  0.00    +0.000 A 
ATOM     12  C   UNL     1      -2.677   9.911  16.054  0.00  0.00    +0.000 A 
ATOM     13  C   UNL     1      -1.775   9.971  17.118  0.00  0.00    +0.000 A 
ATOM     14  C   UNL     1      -2.025  10.802  18.221  0.00  0.00    +0.000 A 
ATOM     15  C   UNL     1      -3.178  11.603  18.210  0.00  0.00    +0.000 A 
BRANCH  10  17
ATOM     16  C   UNL     1      -6.387  11.616  17.830  0.00  0.00    +0.000 C 
ATOM     17  O   UNL     1      -5.298  12.184  17.110  0.00  0.00    +0.000 OA
ENDBRANCH  10  17
ENDBRANCH   9  14
ENDBRANCH   1   9
BRANCH   6  18
ATOM     18  C   UNL     1       1.142  15.204  20.202  0.00  0.00    +0.000 C 
BRANCH  18  19
ATOM     19  C   UNL     1       0.803  16.236  19.148  0.00  0.00    +0.000 A 
ATOM     20  C   UNL     1       1.761  16.834  18.318  0.00  0.00    +0.000 A 
ATOM     21  C   UNL     1       1.374  17.730  17.318  0.00  0.00    +0.000 A 
ATOM     22  C   UNL     1       0.030  18.057  17.149  0.00  0.00    +0.000 A 
ATOM     23  C   UNL     1      -0.927  17.513  17.999  0.00  0.00    +0.000 A 
ATOM     24  C   UNL     1      -0.543  16.614  18.997  0.00  0.00    +0.000 A 
ENDBRANCH  18  19
ENDBRANCH   6  18
TORSDOF 5
ENDMDL
MODEL 6
REMARK VINA RESULT:      -6.2      1.555      1.946
REMARK  Name = 
REMARK  8 active torsions:
REMARK  status: ('A' for Active; 'I' for Inactive)
REMARK    1  A    between atoms: C_1  and  O_2
REMARK    2  A    between atoms: O_2  and  C_3
REMARK    3  A    between atoms: C_7  and  C_8
REMARK    4  A    between atoms: C_8  and  N_9
REMARK    5  A    between atoms: C_10  and  C_11
REMARK    6  A    between atoms: C_12  and  C_13
REMARK    7  A    between atoms: N_14  and  C_15
REMARK    8  A    between atoms: C_15  and  C_16
REMARK                            x       y       z     vdW  Elec       q    Type
REMARK                         _______ _______ _______ _____ _____    ______ ____
ROOT
ATOM      1  N   UNL     1       5.593   5.379  16.504  0.00  0.00    +0.000 N 
ATOM      2  C   UNL     1       6.567   5.902  17.351  0.00  0.00    +0.000 A 
ATOM      3  C   UNL     1       7.538   6.960  16.960  0.00  0.00    +0.000 C 
ATOM      4  C   UNL     1       6.488   5.273  18.543  0.00  0.00    +0.000 A 
ATOM      5  C   UNL     1       7.318   5.498  19.758  0.00  0.00    +0.000 C 
ATOM      6  N   UNL     1       5.475   4.323  18.486  0.00  0.00    +0.000 N 
ATOM      7  C   UNL     1       4.898   4.338  17.186  0.00  0.00    +0.000 A 
ATOM      8  S   UNL     1       3.696   3.355  16.591  0.00  0.00    +0.000 S 
ENDROOT
BRANCH   1   9
ATOM      9  C   UNL     1       5.282   5.868  15.163  0.00  0.00    +0.000 C 
BRANCH   9  14
ATOM     10  C   UNL     1       5.901   3.297  12.379  0.00  0.00    +0.000 A 
ATOM     11  C   UNL     1       7.223   3.595  12.051  0.00  0.00    +0.000 A 
ATOM     12  C   UNL     1       7.884   4.654  12.672  0.00  0.00    +0.000 A 
ATOM     13  C   UNL     1       7.231   5.400  13.655  0.00  0.00    +0.000 A 
ATOM     14  C   UNL     1       5.907   5.105  14.013  0.00  0.00    +0.000 A 
ATOM     15  C   UNL     1       5.240   4.074  13.332  0.00  0.00    +0.000 A 
BRANCH  10  17
ATOM     16  C   UNL     1       6.296   1.295  11.158  0.00  0.00    +0.000 C 
ATOM     17  O   UNL     1       5.372   2.215  11.728  0.00  0.00    +0.000 OA
ENDBRANCH  10  17
ENDBRANCH   9  14
ENDBRANCH   1   9
BRANCH   6  18
ATOM     18  C   UNL     1       5.031   3.504  19.612  0.00  0.00    +0.000 C 
BRANCH  18  19
ATOM     19  C   UNL     1       3.563   3.597  19.967  0.00  0.00    +0.000 A 
ATOM     20  C   UNL     1       2.737   2.477  20.134  0.00  0.00    +0.000 A 
ATOM     21  C   UNL     1       1.406   2.627  20.530  0.00  0.00    +0.000 A 
ATOM     22  C   UNL     1       0.876   3.899  20.740  0.00  0.00    +0.000 A 
ATOM     23  C   UNL     1       1.667   5.024  20.525  0.00  0.00    +0.000 A 
ATOM     24  C   UNL     1       2.999   4.874  20.134  0.00  0.00    +0.000 A 
ENDBRANCH  18  19
ENDBRANCH   6  18
TORSDOF 5
ENDMDL
MODEL 7
REMARK VINA RESULT:      -6.2      1.514      2.052
REMARK  Name = 
REMARK  8 active torsions:
REMARK  status: ('A' for Active; 'I' for Inactive)
REMARK    1  A    between atoms: C_1  and  O_2
REMARK    2  A    between atoms: O_2  and  C_3
REMARK    3  A    between atoms: C_7  and  C_8
REMARK    4  A    between atoms: C_8  and  N_9
REMARK    5  A    between atoms: C_10  and  C_11
REMARK    6  A    between atoms: C_12  and  C_13
REMARK    7  A    between atoms: N_14  and  C_15
REMARK    8  A    between atoms: C_15  and  C_16
REMARK                            x       y       z     vdW  Elec       q    Type
REMARK                         _______ _______ _______ _____ _____    ______ ____
ROOT
ATOM      1  N   UNL     1       5.628   5.471  16.585  0.00  0.00    +0.000 N 
ATOM      2  C   UNL     1       6.597   5.974  17.450  0.00  0.00    +0.000 A 
ATOM      3  C   UNL     1       7.575   7.035  17.088  0.00  0.00    +0.000 C 
ATOM      4  C   UNL     1       6.506   5.322  18.628  0.00  0.00    +0.000 A 
ATOM      5  C   UNL     1       7.327   5.519  19.855  0.00  0.00    +0.000 C 
ATOM      6  N   UNL     1       5.490   4.377  18.545  0.00  0.00    +0.000 N 
ATOM      7  C   UNL     1       4.923   4.420  17.241  0.00  0.00    +0.000 A 
ATOM      8  S   UNL     1       3.722   3.454  16.618  0.00  0.00    +0.000 S 
ENDROOT
BRANCH   1   9
ATOM      9  C   UNL     1       5.329   5.988  15.252  0.00  0.00    +0.000 C 
BRANCH   9  14
ATOM     10  C   UNL     1       5.690   3.494  12.355  0.00  0.00    +0.000 A 
ATOM     11  C   UNL     1       7.058   3.597  12.103  0.00  0.00    +0.000 A 
ATOM     12  C   UNL     1       7.841   4.507  12.813  0.00  0.00    +0.000 A 
ATOM     13  C   UNL     1       7.260   5.295  13.806  0.00  0.00    +0.000 A 
ATOM     14  C   UNL     1       5.889   5.195  14.089  0.00  0.00    +0.000 A 
ATOM     15  C   UNL     1       5.108   4.316  13.321  0.00  0.00    +0.000 A 
BRANCH  10  17
ATOM     16  C   UNL     1       3.804   2.929  11.021  0.00  0.00    +0.000 C 
ATOM     17  O   UNL     1       5.036   2.542  11.620  0.00  0.00    +0.000 OA
ENDBRANCH  10  17
ENDBRANCH   9  14
ENDBRANCH   1   9
BRANCH   6  18
ATOM     18  C   UNL     1       5.033   3.538  19.651  0.00  0.00    +0.000 C 
BRANCH  18  19
ATOM     19  C   UNL     1       3.574   3.670  20.031  0.00  0.00    +0.000 A 
ATOM     20  C   UNL     1       2.939   4.902  20.239  0.00  0.00    +0.000 A 
ATOM     21  C   UNL     1       1.572   4.958  20.521  0.00  0.00    +0.000 A 
ATOM     22  C   UNL     1       0.827   3.784  20.622  0.00  0.00    +0.000 A 
ATOM     23  C   UNL     1       1.453   2.551  20.472  0.00  0.00    +0.000 A 
ATOM     24  C   UNL     1       2.819   2.493  20.186  0.00  0.00    +0.000 A 
ENDBRANCH  18  19
ENDBRANCH   6  18
TORSDOF 5
ENDMDL
MODEL 8
REMARK VINA RESULT:      -6.2      3.493      5.718
REMARK  Name = 
REMARK  8 active torsions:
REMARK  status: ('A' for Active; 'I' for Inactive)
REMARK    1  A    between atoms: C_1  and  O_2
REMARK    2  A    between atoms: O_2  and  C_3
REMARK    3  A    between atoms: C_7  and  C_8
REMARK    4  A    between atoms: C_8  and  N_9
REMARK    5  A    between atoms: C_10  and  C_11
REMARK    6  A    between atoms: C_12  and  C_13
REMARK    7  A    between atoms: N_14  and  C_15
REMARK    8  A    between atoms: C_15  and  C_16
REMARK                            x       y       z     vdW  Elec       q    Type
REMARK                         _______ _______ _______ _____ _____    ______ ____
ROOT
ATOM      1  N   UNL     1       2.674   6.035  18.982  0.00  0.00    +0.000 N 
ATOM      2  C   UNL     1       1.980   6.013  20.189  0.00  0.00    +0.000 A 
ATOM      3  C   UNL     1       1.742   4.788  20.998  0.00  0.00    +0.000 C 
ATOM      4  C   UNL     1       1.555   7.264  20.466  0.00  0.00    +0.000 A 
ATOM      5  C   UNL     1       0.779   7.731  21.648  0.00  0.00    +0.000 C 
ATOM      6  N   UNL     1       1.949   8.114  19.439  0.00  0.00    +0.000 N 
ATOM      7  C   UNL     1       2.642   7.358  18.454  0.00  0.00    +0.000 A 
ATOM      8  S   UNL     1       3.262   7.893  17.005  0.00  0.00    +0.000 S 
ENDROOT
BRANCH   1   9
ATOM      9  C   UNL     1       3.385   4.904  18.390  0.00  0.00    +0.000 C 
BRANCH   9  14
ATOM     10  C   UNL     1       6.950   4.849  16.967  0.00  0.00    +0.000 A 
ATOM     11  C   UNL     1       7.683   5.156  18.113  0.00  0.00    +0.000 A 
ATOM     12  C   UNL     1       7.033   5.442  19.313  0.00  0.00    +0.000 A 
ATOM     13  C   UNL     1       5.641   5.387  19.378  0.00  0.00    +0.000 A 
ATOM     14  C   UNL     1       4.884   5.062  18.241  0.00  0.00    +0.000 A 
ATOM     15  C   UNL     1       5.556   4.837  17.029  0.00  0.00    +0.000 A 
BRANCH  10  17
ATOM     16  C   UNL     1       7.088   4.765  14.594  0.00  0.00    +0.000 C 
ATOM     17  O   UNL     1       7.701   4.553  15.861  0.00  0.00    +0.000 OA
ENDBRANCH  10  17
ENDBRANCH   9  14
ENDBRANCH   1   9
BRANCH   6  18
ATOM     18  C   UNL     1       1.749   9.561  19.426  0.00  0.00    +0.000 C 
BRANCH  18  19
ATOM     19  C   UNL     1       0.385  10.044  18.984  0.00  0.00    +0.000 A 
ATOM     20  C   UNL     1      -0.235   9.625  17.798  0.00  0.00    +0.000 A 
ATOM     21  C   UNL     1      -1.526  10.054  17.480  0.00  0.00    +0.000 A 
ATOM     22  C   UNL     1      -2.204  10.926  18.330  0.00  0.00    +0.000 A 
ATOM     23  C   UNL     1      -1.582  11.394  19.483  0.00  0.00    +0.000 A 
ATOM     24  C   UNL     1      -0.294  10.962  19.805  0.00  0.00    +0.000 A 
ENDBRANCH  18  19
ENDBRANCH   6  18
TORSDOF 5
ENDMDL
MODEL 9
REMARK VINA RESULT:      -6.2      8.678     12.151
REMARK  Name = 
REMARK  8 active torsions:
REMARK  status: ('A' for Active; 'I' for Inactive)
REMARK    1  A    between atoms: C_1  and  O_2
REMARK    2  A    between atoms: O_2  and  C_3
REMARK    3  A    between atoms: C_7  and  C_8
REMARK    4  A    between atoms: C_8  and  N_9
REMARK    5  A    between atoms: C_10  and  C_11
REMARK    6  A    between atoms: C_12  and  C_13
REMARK    7  A    between atoms: N_14  and  C_15
REMARK    8  A    between atoms: C_15  and  C_16
REMARK                            x       y       z     vdW  Elec       q    Type
REMARK                         _______ _______ _______ _____ _____    ______ ____
ROOT
ATOM      1  N   UNL     1      -1.788  12.590  19.752  0.00  0.00    +0.000 N 
ATOM      2  C   UNL     1      -2.407  11.745  18.833  0.00  0.00    +0.000 A 
ATOM      3  C   UNL     1      -3.871  11.717  18.574  0.00  0.00    +0.000 C 
ATOM      4  C   UNL     1      -1.465  10.964  18.262  0.00  0.00    +0.000 A 
ATOM      5  C   UNL     1      -1.649   9.916  17.220  0.00  0.00    +0.000 C 
ATOM      6  N   UNL     1      -0.226  11.276  18.808  0.00  0.00    +0.000 N 
ATOM      7  C   UNL     1      -0.395  12.291  19.789  0.00  0.00    +0.000 A 
ATOM      8  S   UNL     1       0.767  12.967  20.770  0.00  0.00    +0.000 S 
ENDROOT
BRANCH   1   9
ATOM      9  C   UNL     1      -2.445  13.659  20.499  0.00  0.00    +0.000 C 
BRANCH   9  14
ATOM     10  C   UNL     1      -5.094  13.401  23.266  0.00  0.00    +0.000 A 
ATOM     11  C   UNL     1      -4.425  12.588  24.181  0.00  0.00    +0.000 A 
ATOM     12  C   UNL     1      -3.163  12.076  23.880  0.00  0.00    +0.000 A 
ATOM     13  C   UNL     1      -2.550  12.406  22.671  0.00  0.00    +0.000 A 
ATOM     14  C   UNL     1      -3.198  13.238  21.744  0.00  0.00    +0.000 A 
ATOM     15  C   UNL     1      -4.493  13.693  22.041  0.00  0.00    +0.000 A 
BRANCH  10  17
ATOM     16  C   UNL     1      -7.323  12.901  23.927  0.00  0.00    +0.000 C 
ATOM     17  O   UNL     1      -6.309  13.870  23.689  0.00  0.00    +0.000 OA
ENDBRANCH  10  17
ENDBRANCH   9  14
ENDBRANCH   1   9
BRANCH   6  18
ATOM     18  C   UNL     1       1.048  10.703  18.377  0.00  0.00    +0.000 C 
BRANCH  18  19
ATOM     19  C   UNL     1       1.396   9.344  18.946  0.00  0.00    +0.000 A 
ATOM     20  C   UNL     1       2.038   8.341  18.207  0.00  0.00    +0.000 A 
ATOM     21  C   UNL     1       2.394   7.132  18.811  0.00  0.00    +0.000 A 
ATOM     22  C   UNL     1       2.091   6.901  20.151  0.00  0.00    +0.000 A 
ATOM     23  C   UNL     1       1.405   7.865  20.883  0.00  0.00    +0.000 A 
ATOM     24  C   UNL     1       1.054   9.076  20.283  0.00  0.00    +0.000 A 
ENDBRANCH  18  19
ENDBRANCH   6  18
TORSDOF 5
ENDMDL
