MODEL 1
REMARK VINA RESULT:      -8.4      0.000      0.000
REMARK  Name = 
REMARK  2 active torsions:
REMARK  status: ('A' for Active; 'I' for Inactive)
REMARK    1  A    between atoms: C_4  and  C_5
REMARK    2  A    between atoms: C_7  and  C_8
REMARK                            x       y       z     vdW  Elec       q    Type
REMARK                         _______ _______ _______ _____ _____    ______ ____
ROOT
ATOM      1  C   UNL     1       3.274   5.152  18.766  0.00  0.00    +0.000 C 
ATOM      2  N   UNL     1       3.748   4.591  17.675  0.00  0.00    +0.000 NA
ATOM      3  C   UNL     1       4.551   5.382  16.731  0.00  0.00    +0.000 C 
ATOM      4  C   UNL     1       4.972   4.504  15.564  0.00  0.00    +0.000 C 
ATOM      5  N   UNL     1       4.566   5.353  16.693  0.00  0.00    +0.000 N 
ATOM      6  C   UNL     1       4.027   6.726  16.689  0.00  0.00    +0.000 C 
ATOM      7  C   UNL     1       4.587   7.283  17.969  0.00  0.00    +0.000 C 
ATOM      8  C   UNL     1       4.371   6.118  18.982  0.00  0.00    +0.000 C 
ATOM      9  C   UNL     1       4.559   4.865  18.124  0.00  0.00    +0.000 C 
ATOM     10  N   UNL     1       5.702   5.007  14.592  0.00  0.00    +0.000 NA
ATOM     11  C   UNL     1       6.109   4.159  13.464  0.00  0.00    +0.000 A 
ATOM     12  C   UNL     1       7.420   4.213  13.019  0.00  0.00    +0.000 A 
ATOM     13  C   UNL     1       7.628   3.590  11.766  0.00  0.00    +0.000 A 
ATOM     14  C   UNL     1       6.796   2.726  11.212  0.00  0.00    +0.000 A 
ATOM     15  C   UNL     1       5.536   2.671  11.741  0.00  0.00    +0.000 A 
ATOM     16  C   UNL     1       5.220   3.356  12.889  0.00  0.00    +0.000 A 
ENDROOT
BRANCH   1  20
ATOM     17  C   UNL     1       1.089   2.673  21.472  0.00  0.00    +0.000 A 
ATOM     18  C   UNL     1       2.193   3.362  21.946  0.00  0.00    +0.000 A 
ATOM     19  C   UNL     1       2.708   4.315  21.036  0.00  0.00    +0.000 A 
ATOM     20  C   UNL     1       2.444   4.334  19.742  0.00  0.00    +0.000 A 
ATOM     21  C   UNL     1       1.381   3.579  19.327  0.00  0.00    +0.000 A 
ATOM     22  C   UNL     1       0.744   2.722  20.191  0.00  0.00    +0.000 A 
ENDBRANCH   1  20
BRANCH   3  23
ATOM     23  C   UNL     1       5.788   5.911  17.439  0.00  0.00    +0.000 A 
ATOM     24  C   UNL     1       6.388   7.121  17.181  0.00  0.00    +0.000 A 
ATOM     25  C   UNL     1       7.601   7.279  17.859  0.00  0.00    +0.000 A 
ATOM     26  C   UNL     1       7.922   6.196  18.620  0.00  0.00    +0.000 A 
ATOM     27  S   UNL     1       6.725   4.964  18.532  0.00  0.00    +0.000 S 
ENDBRANCH   3  23
TORSDOF 2
ENDMDL
MODEL 2
REMARK VINA RESULT:      -7.9      2.487      3.987
REMARK  Name = 
REMARK  2 active torsions:
REMARK  status: ('A' for Active; 'I' for Inactive)
REMARK    1  A    between atoms: C_4  and  C_5
REMARK    2  A    between atoms: C_7  and  C_8
REMARK                            x       y       z     vdW  Elec       q    Type
REMARK                         _______ _______ _______ _____ _____    ______ ____
ROOT
ATOM      1  C   UNL     1       3.071   6.668  19.063  0.00  0.00    +0.000 C 
ATOM      2  N   UNL     1       3.600   6.450  17.878  0.00  0.00    +0.000 NA
ATOM      3  C   UNL     1       4.436   5.262  17.653  0.00  0.00    +0.000 C 
ATOM      4  C   UNL     1       4.919   5.248  16.213  0.00  0.00    +0.000 C 
ATOM      5  N   UNL     1       4.452   5.261  17.606  0.00  0.00    +0.000 N 
ATOM      6  C   UNL     1       5.199   4.999  18.850  0.00  0.00    +0.000 C 
ATOM      7  C   UNL     1       4.147   4.362  19.716  0.00  0.00    +0.000 C 
ATOM      8  C   UNL     1       2.896   5.256  19.461  0.00  0.00    +0.000 C 
ATOM      9  C   UNL     1       3.047   5.665  17.994  0.00  0.00    +0.000 C 
ATOM     10  N   UNL     1       5.688   4.269  15.786  0.00  0.00    +0.000 NA
ATOM     11  C   UNL     1       6.156   4.255  14.394  0.00  0.00    +0.000 A 
ATOM     12  C   UNL     1       6.094   3.072  13.675  0.00  0.00    +0.000 A 
ATOM     13  C   UNL     1       6.828   3.096  12.465  0.00  0.00    +0.000 A 
ATOM     14  C   UNL     1       7.237   4.197  11.860  0.00  0.00    +0.000 A 
ATOM     15  C   UNL     1       7.210   5.345  12.602  0.00  0.00    +0.000 A 
ATOM     16  C   UNL     1       6.628   5.370  13.846  0.00  0.00    +0.000 A 
ENDROOT
BRANCH   1  20
ATOM     17  C   UNL     1       0.453   9.991  19.652  0.00  0.00    +0.000 A 
ATOM     18  C   UNL     1       0.610   9.078  20.682  0.00  0.00    +0.000 A 
ATOM     19  C   UNL     1       1.656   8.148  20.469  0.00  0.00    +0.000 A 
ATOM     20  C   UNL     1       2.206   7.896  19.295  0.00  0.00    +0.000 A 
ATOM     21  C   UNL     1       1.958   8.801  18.300  0.00  0.00    +0.000 A 
ATOM     22  C   UNL     1       1.047   9.814  18.478  0.00  0.00    +0.000 A 
ENDBRANCH   1  20
BRANCH   3  23
ATOM     23  C   UNL     1       3.619   4.009  17.926  0.00  0.00    +0.000 A 
ATOM     24  C   UNL     1       4.120   2.838  18.445  0.00  0.00    +0.000 A 
ATOM     25  C   UNL     1       3.183   1.799  18.436  0.00  0.00    +0.000 A 
ATOM     26  C   UNL     1       1.985   2.176  17.910  0.00  0.00    +0.000 A 
ATOM     27  S   UNL     1       1.978   3.828  17.430  0.00  0.00    +0.000 S 
ENDBRANCH   3  23
TORSDOF 2
ENDMDL
MODEL 3
REMARK VINA RESULT:      -7.9      2.870      7.586
REMARK  Name = 
REMARK  2 active torsions:
REMARK  status: ('A' for Active; 'I' for Inactive)
REMARK    1  A    between atoms: C_4  and  C_5
REMARK    2  A    between atoms: C_7  and  C_8
REMARK                            x       y       z     vdW  Elec       q    Type
REMARK                         _______ _______ _______ _____ _____    ______ ____
ROOT
ATOM      1  C   UNL     1       3.969   4.339  16.729  0.00  0.00    +0.000 C 
ATOM      2  N   UNL     1       3.633   5.385  17.452  0.00  0.00    +0.000 NA
ATOM      3  C   UNL     1       2.420   5.346  18.282  0.00  0.00    +0.000 C 
ATOM      4  C   UNL     1       2.261   6.670  19.011  0.00  0.00    +0.000 C 
ATOM      5  N   UNL     1       2.414   5.389  18.306  0.00  0.00    +0.000 N 
ATOM      6  C   UNL     1       1.408   4.586  17.587  0.00  0.00    +0.000 C 
ATOM      7  C   UNL     1       1.889   3.184  17.842  0.00  0.00    +0.000 C 
ATOM      8  C   UNL     1       3.428   3.298  17.627  0.00  0.00    +0.000 C 
ATOM      9  C   UNL     1       3.752   4.707  18.131  0.00  0.00    +0.000 C 
ATOM     10  N   UNL     1       1.237   6.860  19.814  0.00  0.00    +0.000 NA
ATOM     11  C   UNL     1       1.083   8.140  20.519  0.00  0.00    +0.000 A 
ATOM     12  C   UNL     1       0.754   8.132  21.865  0.00  0.00    +0.000 A 
ATOM     13  C   UNL     1       0.349   9.392  22.364  0.00  0.00    +0.000 A 
ATOM     14  C   UNL     1       0.586  10.546  21.766  0.00  0.00    +0.000 A 
ATOM     15  C   UNL     1       0.973  10.483  20.456  0.00  0.00    +0.000 A 
ATOM     16  C   UNL     1       1.261   9.280  19.860  0.00  0.00    +0.000 A 
ENDROOT
BRANCH   1  20
ATOM     17  C   UNL     1       7.439   4.677  14.261  0.00  0.00    +0.000 A 
ATOM     18  C   UNL     1       7.506   5.131  15.568  0.00  0.00    +0.000 A 
ATOM     19  C   UNL     1       6.386   4.775  16.357  0.00  0.00    +0.000 A 
ATOM     20  C   UNL     1       5.223   4.380  15.871  0.00  0.00    +0.000 A 
ATOM     21  C   UNL     1       5.209   4.008  14.555  0.00  0.00    +0.000 A 
ATOM     22  C   UNL     1       6.307   4.203  13.754  0.00  0.00    +0.000 A 
ENDBRANCH   1  20
BRANCH   3  23
ATOM     23  C   UNL     1       2.537   4.219  19.297  0.00  0.00    +0.000 A 
ATOM     24  C   UNL     1       1.477   3.518  19.823  0.00  0.00    +0.000 A 
ATOM     25  C   UNL     1       1.860   2.654  20.854  0.00  0.00    +0.000 A 
ATOM     26  C   UNL     1       3.195   2.704  21.113  0.00  0.00    +0.000 A 
ATOM     27  S   UNL     1       4.017   3.804  20.077  0.00  0.00    +0.000 S 
ENDBRANCH   3  23
TORSDOF 2
ENDMDL
MODEL 4
REMARK VINA RESULT:      -7.7      2.770      4.403
REMARK  Name = 
REMARK  2 active torsions:
REMARK  status: ('A' for Active; 'I' for Inactive)
REMARK    1  A    between atoms: C_4  and  C_5
REMARK    2  A    between atoms: C_7  and  C_8
REMARK                            x       y       z     vdW  Elec       q    Type
REMARK                         _______ _______ _______ _____ _____    ______ ____
ROOT
ATOM      1  C   UNL     1       2.399   6.732  19.928  0.00  0.00    +0.000 C 
ATOM      2  N   UNL     1       3.009   6.554  18.777  0.00  0.00    +0.000 NA
ATOM      3  C   UNL     1       3.777   5.323  18.534  0.00  0.00    +0.000 C 
ATOM      4  C   UNL     1       4.377   5.367  17.139  0.00  0.00    +0.000 C 
ATOM      5  N   UNL     1       3.796   5.324  18.488  0.00  0.00    +0.000 N 
ATOM      6  C   UNL     1       4.416   4.926  19.765  0.00  0.00    +0.000 C 
ATOM      7  C   UNL     1       3.254   4.314  20.497  0.00  0.00    +0.000 C 
ATOM      8  C   UNL     1       2.093   5.314  20.209  0.00  0.00    +0.000 C 
ATOM      9  C   UNL     1       2.396   5.806  18.792  0.00  0.00    +0.000 C 
ATOM     10  N   UNL     1       5.110   4.364  16.705  0.00  0.00    +0.000 NA
ATOM     11  C   UNL     1       5.691   4.407  15.357  0.00  0.00    +0.000 A 
ATOM     12  C   UNL     1       5.608   3.281  14.553  0.00  0.00    +0.000 A 
ATOM     13  C   UNL     1       6.440   3.330  13.409  0.00  0.00    +0.000 A 
ATOM     14  C   UNL     1       6.974   4.435  12.918  0.00  0.00    +0.000 A 
ATOM     15  C   UNL     1       6.965   5.530  13.737  0.00  0.00    +0.000 A 
ATOM     16  C   UNL     1       6.283   5.517  14.929  0.00  0.00    +0.000 A 
ENDROOT
BRANCH   1  20
ATOM     17  C   UNL     1      -0.025  10.192  20.556  0.00  0.00    +0.000 A 
ATOM     18  C   UNL     1       0.027   9.229  21.549  0.00  0.00    +0.000 A 
ATOM     19  C   UNL     1       1.020   8.242  21.338  0.00  0.00    +0.000 A 
ATOM     20  C   UNL     1       1.605   8.003  20.179  0.00  0.00    +0.000 A 
ATOM     21  C   UNL     1       1.460   8.964  19.216  0.00  0.00    +0.000 A 
ATOM     22  C   UNL     1       0.609  10.026  19.401  0.00  0.00    +0.000 A 
ENDBRANCH   1  20
BRANCH   3  23
ATOM     23  C   UNL     1       2.855   4.120  18.651  0.00  0.00    +0.000 A 
ATOM     24  C   UNL     1       3.208   2.905  19.189  0.00  0.00    +0.000 A 
ATOM     25  C   UNL     1       2.219   1.930  19.018  0.00  0.00    +0.000 A 
ATOM     26  C   UNL     1       1.129   2.399  18.352  0.00  0.00    +0.000 A 
ATOM     27  S   UNL     1       1.288   4.061  17.935  0.00  0.00    +0.000 S 
ENDBRANCH   3  23
TORSDOF 2
ENDMDL
MODEL 5
REMARK VINA RESULT:      -7.7      2.651      4.305
REMARK  Name = 
REMARK  2 active torsions:
REMARK  status: ('A' for Active; 'I' for Inactive)
REMARK    1  A    between atoms: C_4  and  C_5
REMARK    2  A    between atoms: C_7  and  C_8
REMARK                            x       y       z     vdW  Elec       q    Type
REMARK                         _______ _______ _______ _____ _____    ______ ____
ROOT
ATOM      1  C   UNL     1       2.679   6.842  19.462  0.00  0.00    +0.000 C 
ATOM      2  N   UNL     1       3.249   6.610  18.300  0.00  0.00    +0.000 NA
ATOM      3  C   UNL     1       4.046   5.391  18.101  0.00  0.00    +0.000 C 
ATOM      4  C   UNL     1       4.589   5.366  16.682  0.00  0.00    +0.000 C 
ATOM      5  N   UNL     1       4.063   5.389  18.054  0.00  0.00    +0.000 N 
ATOM      6  C   UNL     1       4.746   5.090  19.327  0.00  0.00    +0.000 C 
ATOM      7  C   UNL     1       3.634   4.491  20.142  0.00  0.00    +0.000 C 
ATOM      8  C   UNL     1       2.431   5.435  19.842  0.00  0.00    +0.000 C 
ATOM      9  C   UNL     1       2.661   5.848  18.386  0.00  0.00    +0.000 C 
ATOM     10  N   UNL     1       5.335   4.359  16.281  0.00  0.00    +0.000 NA
ATOM     11  C   UNL     1       5.861   4.335  14.909  0.00  0.00    +0.000 A 
ATOM     12  C   UNL     1       5.783   3.160  14.179  0.00  0.00    +0.000 A 
ATOM     13  C   UNL     1       6.567   3.162  13.002  0.00  0.00    +0.000 A 
ATOM     14  C   UNL     1       7.046   4.249  12.422  0.00  0.00    +0.000 A 
ATOM     15  C   UNL     1       7.033   5.393  13.172  0.00  0.00    +0.000 A 
ATOM     16  C   UNL     1       6.400   5.433  14.390  0.00  0.00    +0.000 A 
ENDROOT
BRANCH   1  20
ATOM     17  C   UNL     1       0.564  10.497  20.099  0.00  0.00    +0.000 A 
ATOM     18  C   UNL     1       1.165  10.283  18.869  0.00  0.00    +0.000 A 
ATOM     19  C   UNL     1       1.645   8.964  18.688  0.00  0.00    +0.000 A 
ATOM     20  C   UNL     1       1.856   8.102  19.667  0.00  0.00    +0.000 A 
ATOM     21  C   UNL     1       1.291   8.405  20.876  0.00  0.00    +0.000 A 
ATOM     22  C   UNL     1       0.690   9.622  21.089  0.00  0.00    +0.000 A 
ENDBRANCH   1  20
BRANCH   3  23
ATOM     23  C   UNL     1       3.168   4.170  18.329  0.00  0.00    +0.000 A 
ATOM     24  C   UNL     1       3.595   2.983  18.877  0.00  0.00    +0.000 A 
ATOM     25  C   UNL     1       2.622   1.980  18.816  0.00  0.00    +0.000 A 
ATOM     26  C   UNL     1       1.471   2.399  18.224  0.00  0.00    +0.000 A 
ATOM     27  S   UNL     1       1.552   4.049  17.742  0.00  0.00    +0.000 S 
ENDBRANCH   3  23
TORSDOF 2
ENDMDL
MODEL 6
REMARK VINA RESULT:      -6.9      2.168      5.533
REMARK  Name = 
REMARK  2 active torsions:
REMARK  status: ('A' for Active; 'I' for Inactive)
REMARK    1  A    between atoms: C_4  and  C_5
REMARK    2  A    between atoms: C_7  and  C_8
REMARK                            x       y       z     vdW  Elec       q    Type
REMARK                         _______ _______ _______ _____ _____    ______ ____
ROOT
ATOM      1  C   UNL     1       7.896   7.615  18.171  0.00  0.00    +0.000 C 
ATOM      2  N   UNL     1       7.634   7.124  16.979  0.00  0.00    +0.000 NA
ATOM      3  C   UNL     1       7.106   5.758  16.846  0.00  0.00    +0.000 C 
ATOM      4  C   UNL     1       6.892   5.439  15.376  0.00  0.00    +0.000 C 
ATOM      5  N   UNL     1       7.099   5.748  16.797  0.00  0.00    +0.000 N 
ATOM      6  C   UNL     1       7.714   4.927  17.858  0.00  0.00    +0.000 C 
ATOM      7  C   UNL     1       6.928   5.344  19.069  0.00  0.00    +0.000 C 
ATOM      8  C   UNL     1       6.844   6.893  18.916  0.00  0.00    +0.000 C 
ATOM      9  C   UNL     1       6.764   7.094  17.400  0.00  0.00    +0.000 C 
ATOM     10  N   UNL     1       6.423   4.263  15.020  0.00  0.00    +0.000 NA
ATOM     11  C   UNL     1       6.216   3.954  13.598  0.00  0.00    +0.000 A 
ATOM     12  C   UNL     1       5.038   3.336  13.209  0.00  0.00    +0.000 A 
ATOM     13  C   UNL     1       5.066   2.827  11.889  0.00  0.00    +0.000 A 
ATOM     14  C   UNL     1       5.940   3.187  10.966  0.00  0.00    +0.000 A 
ATOM     15  C   UNL     1       7.050   3.853  11.407  0.00  0.00    +0.000 A 
ATOM     16  C   UNL     1       7.154   4.268  12.712  0.00  0.00    +0.000 A 
ENDROOT
BRANCH   1  20
ATOM     17  C   UNL     1       9.240  11.636  18.691  0.00  0.00    +0.000 A 
ATOM     18  C   UNL     1       9.551  10.700  19.664  0.00  0.00    +0.000 A 
ATOM     19  C   UNL     1       9.254   9.367  19.293  0.00  0.00    +0.000 A 
ATOM     20  C   UNL     1       8.441   9.027  18.308  0.00  0.00    +0.000 A 
ATOM     21  C   UNL     1       8.118  10.014  17.419  0.00  0.00    +0.000 A 
ATOM     22  C   UNL     1       8.485  11.318  17.646  0.00  0.00    +0.000 A 
ENDBRANCH   1  20
BRANCH   3  23
ATOM     23  C   UNL     1       5.782   5.653  17.586  0.00  0.00    +0.000 A 
ATOM     24  C   UNL     1       5.398   4.588  18.368  0.00  0.00    +0.000 A 
ATOM     25  C   UNL     1       4.069   4.681  18.791  0.00  0.00    +0.000 A 
ATOM     26  C   UNL     1       3.447   5.802  18.331  0.00  0.00    +0.000 A 
ATOM     27  S   UNL     1       4.495   6.780  17.379  0.00  0.00    +0.000 S 
ENDBRANCH   3  23
TORSDOF 2
ENDMDL
MODEL 7
REMARK VINA RESULT:      -6.8      9.407     12.433
REMARK  Name = 
REMARK  2 active torsions:
REMARK  status: ('A' for Active; 'I' for Inactive)
REMARK    1  A    between atoms: C_4  and  C_5
REMARK    2  A    between atoms: C_7  and  C_8
REMARK                            x       y       z     vdW  Elec       q    Type
REMARK                         _______ _______ _______ _____ _____    ______ ____
ROOT
ATOM      1  C   UNL     1      -1.348  11.235  18.784  0.00  0.00    +0.000 C 
ATOM      2  N   UNL     1      -1.697  12.073  19.736  0.00  0.00    +0.000 NA
ATOM      3  C   UNL     1      -0.744  12.414  20.802  0.00  0.00    +0.000 C 
ATOM      4  C   UNL     1      -1.391  13.394  21.766  0.00  0.00    +0.000 C 
ATOM      5  N   UNL     1      -0.765  12.447  20.833  0.00  0.00    +0.000 N 
ATOM      6  C   UNL     1       0.039  11.243  21.116  0.00  0.00    +0.000 C 
ATOM      7  C   UNL     1       1.001  11.233  19.960  0.00  0.00    +0.000 C 
ATOM      8  C   UNL     1       0.090  11.573  18.743  0.00  0.00    +0.000 C 
ATOM      9  C   UNL     1      -0.947  12.532  19.335  0.00  0.00    +0.000 C 
ATOM     10  N   UNL     1      -0.716  13.839  22.804  0.00  0.00    +0.000 NA
ATOM     11  C   UNL     1      -1.342  14.786  23.737  0.00  0.00    +0.000 A 
ATOM     12  C   UNL     1      -0.620  15.890  24.159  0.00  0.00    +0.000 A 
ATOM     13  C   UNL     1      -1.196  16.565  25.262  0.00  0.00    +0.000 A 
ATOM     14  C   UNL     1      -2.451  16.429  25.650  0.00  0.00    +0.000 A 
ATOM     15  C   UNL     1      -3.131  15.356  25.144  0.00  0.00    +0.000 A 
ATOM     16  C   UNL     1      -2.583  14.572  24.159  0.00  0.00    +0.000 A 
ENDROOT
BRANCH   1  20
ATOM     17  C   UNL     1      -4.023  10.416  15.557  0.00  0.00    +0.000 A 
ATOM     18  C   UNL     1      -2.763   9.841  15.538  0.00  0.00    +0.000 A 
ATOM     19  C   UNL     1      -2.044   9.995  16.747  0.00  0.00    +0.000 A 
ATOM     20  C   UNL     1      -2.333  10.882  17.683  0.00  0.00    +0.000 A 
ATOM     21  C   UNL     1      -3.569  11.464  17.607  0.00  0.00    +0.000 A 
ATOM     22  C   UNL     1      -4.381  11.258  16.519  0.00  0.00    +0.000 A 
ENDBRANCH   1  20
BRANCH   3  23
ATOM     23  C   UNL     1       0.494  13.049  20.189  0.00  0.00    +0.000 A 
ATOM     24  C   UNL     1       1.783  12.848  20.627  0.00  0.00    +0.000 A 
ATOM     25  C   UNL     1       2.706  13.683  19.988  0.00  0.00    +0.000 A 
ATOM     26  C   UNL     1       2.124  14.514  19.080  0.00  0.00    +0.000 A 
ATOM     27  S   UNL     1       0.424  14.272  18.976  0.00  0.00    +0.000 S 
ENDBRANCH   3  23
TORSDOF 2
ENDMDL
MODEL 8
REMARK VINA RESULT:      -6.7      7.231     11.068
REMARK  Name = 
REMARK  2 active torsions:
REMARK  status: ('A' for Active; 'I' for Inactive)
REMARK    1  A    between atoms: C_4  and  C_5
REMARK    2  A    between atoms: C_7  and  C_8
REMARK                            x       y       z     vdW  Elec       q    Type
REMARK                         _______ _______ _______ _____ _____    ______ ____
ROOT
ATOM      1  C   UNL     1       9.407  10.050  19.030  0.00  0.00    +0.000 C 
ATOM      2  N   UNL     1       8.997  10.809  20.022  0.00  0.00    +0.000 NA
ATOM      3  C   UNL     1       9.804  11.961  20.449  0.00  0.00    +0.000 C 
ATOM      4  C   UNL     1       9.111  12.665  21.604  0.00  0.00    +0.000 C 
ATOM      5  N   UNL     1       9.781  11.985  20.487  0.00  0.00    +0.000 N 
ATOM      6  C   UNL     1      11.200  11.620  20.325  0.00  0.00    +0.000 C 
ATOM      7  C   UNL     1      11.391  11.762  18.840  0.00  0.00    +0.000 C 
ATOM      8  C   UNL     1      10.107  11.097  18.258  0.00  0.00    +0.000 C 
ATOM      9  C   UNL     1       9.031  11.441  19.292  0.00  0.00    +0.000 C 
ATOM     10  N   UNL     1       9.658  13.730  22.149  0.00  0.00    +0.000 NA
ATOM     11  C   UNL     1       8.989  14.411  23.266  0.00  0.00    +0.000 A 
ATOM     12  C   UNL     1       8.899  15.793  23.255  0.00  0.00    +0.000 A 
ATOM     13  C   UNL     1       8.506  16.353  24.494  0.00  0.00    +0.000 A 
ATOM     14  C   UNL     1       7.925  15.678  25.470  0.00  0.00    +0.000 A 
ATOM     15  C   UNL     1       7.990  14.315  25.388  0.00  0.00    +0.000 A 
ATOM     16  C   UNL     1       8.481  13.696  24.264  0.00  0.00    +0.000 A 
ENDROOT
BRANCH   1  20
ATOM     17  C   UNL     1       7.245   6.632  17.657  0.00  0.00    +0.000 A 
ATOM     18  C   UNL     1       8.097   6.488  18.740  0.00  0.00    +0.000 A 
ATOM     19  C   UNL     1       8.590   7.714  19.247  0.00  0.00    +0.000 A 
ATOM     20  C   UNL     1       8.573   8.859  18.589  0.00  0.00    +0.000 A 
ATOM     21  C   UNL     1       7.762   8.915  17.489  0.00  0.00    +0.000 A 
ATOM     22  C   UNL     1       7.142   7.787  17.009  0.00  0.00    +0.000 A 
ENDBRANCH   1  20
BRANCH   3  23
ATOM     23  C   UNL     1       9.960  12.928  19.287  0.00  0.00    +0.000 A 
ATOM     24  C   UNL     1      11.110  13.619  18.984  0.00  0.00    +0.000 A 
ATOM     25  C   UNL     1      10.923  14.561  17.967  0.00  0.00    +0.000 A 
ATOM     26  C   UNL     1       9.643  14.589  17.505  0.00  0.00    +0.000 A 
ATOM     27  S   UNL     1       8.641  13.440  18.303  0.00  0.00    +0.000 S 
ENDBRANCH   3  23
TORSDOF 2
ENDMDL
MODEL 9
REMARK VINA RESULT:      -6.5      9.083     11.762
REMARK  Name = 
REMARK  2 active torsions:
REMARK  status: ('A' for Active; 'I' for Inactive)
REMARK    1  A    between atoms: C_4  and  C_5
REMARK    2  A    between atoms: C_7  and  C_8
REMARK                            x       y       z     vdW  Elec       q    Type
REMARK                         _______ _______ _______ _____ _____    ______ ____
ROOT
ATOM      1  C   UNL     1       0.433  10.822  20.269  0.00  0.00    +0.000 C 
ATOM      2  N   UNL     1      -0.846  11.075  20.096  0.00  0.00    +0.000 NA
ATOM      3  C   UNL     1      -1.451  12.265  20.712  0.00  0.00    +0.000 C 
ATOM      4  C   UNL     1      -2.928  12.324  20.360  0.00  0.00    +0.000 C 
ATOM      5  N   UNL     1      -1.499  12.267  20.700  0.00  0.00    +0.000 N 
ATOM      6  C   UNL     1      -0.833  12.484  21.998  0.00  0.00    +0.000 C 
ATOM      7  C   UNL     1       0.473  13.099  21.579  0.00  0.00    +0.000 C 
ATOM      8  C   UNL     1       0.898  12.221  20.363  0.00  0.00    +0.000 C 
ATOM      9  C   UNL     1      -0.436  11.858  19.706  0.00  0.00    +0.000 C 
ATOM     10  N   UNL     1      -3.672  13.312  20.808  0.00  0.00    +0.000 NA
ATOM     11  C   UNL     1      -5.100  13.368  20.468  0.00  0.00    +0.000 A 
ATOM     12  C   UNL     1      -5.648  14.575  20.062  0.00  0.00    +0.000 A 
ATOM     13  C   UNL     1      -7.063  14.586  20.043  0.00  0.00    +0.000 A 
ATOM     14  C   UNL     1      -7.820  13.503  20.046  0.00  0.00    +0.000 A 
ATOM     15  C   UNL     1      -7.205  12.332  20.391  0.00  0.00    +0.000 A 
ATOM     16  C   UNL     1      -5.842  12.270  20.554  0.00  0.00    +0.000 A 
ENDROOT
BRANCH   1  20
ATOM     17  C   UNL     1       2.400   7.449  18.538  0.00  0.00    +0.000 A 
ATOM     18  C   UNL     1       2.132   7.436  19.897  0.00  0.00    +0.000 A 
ATOM     19  C   UNL     1       1.290   8.491  20.324  0.00  0.00    +0.000 A 
ATOM     20  C   UNL     1       1.057   9.591  19.632  0.00  0.00    +0.000 A 
ATOM     21  C   UNL     1       1.406   9.563  18.310  0.00  0.00    +0.000 A 
ATOM     22  C   UNL     1       2.115   8.508  17.789  0.00  0.00    +0.000 A 
ENDBRANCH   1  20
BRANCH   3  23
ATOM     23  C   UNL     1      -0.755  13.513  20.191  0.00  0.00    +0.000 A 
ATOM     24  C   UNL     1      -0.530  14.655  20.924  0.00  0.00    +0.000 A 
ATOM     25  C   UNL     1      -0.022  15.702  20.149  0.00  0.00    +0.000 A 
ATOM     26  C   UNL     1       0.130  15.362  18.840  0.00  0.00    +0.000 A 
ATOM     27  S   UNL     1      -0.331  13.733  18.535  0.00  0.00    +0.000 S 
ENDBRANCH   3  23
TORSDOF 2
ENDMDL
