MODEL 1
REMARK VINA RESULT:      -9.6      0.000      0.000
REMARK  Name = 
REMARK  6 active torsions:
REMARK  status: ('A' for Active; 'I' for Inactive)
REMARK    1  A    between atoms: C_1  and  N_2
REMARK    2  A    between atoms: N_5  and  C_6
REMARK    3  A    between atoms: C_13  and  N_14
REMARK    4  A    between atoms: C_15  and  C_17
REMARK    5  A    between atoms: C_17  and  C_18
REMARK    6  A    between atoms: C_21  and  C_22
REMARK                            x       y       z     vdW  Elec       q    Type
REMARK                         _______ _______ _______ _____ _____    ______ ____
ROOT
ATOM      1  N   UNL     1       1.824   7.385  21.195  0.00  0.00    +0.000 N 
ATOM      2  C   UNL     1       0.707   8.171  21.464  0.00  0.00    +0.000 C 
ATOM      3  O   UNL     1      -0.456   7.885  21.186  0.00  0.00    +0.000 OA
ATOM      4  H   UNL     1       2.714   7.725  21.531  0.00  0.00    +0.000 HD
ENDROOT
BRANCH   1  12
ATOM      5  C   UNL     1       4.027   4.351  17.926  0.00  0.00    +0.000 A 
ATOM      6  C   UNL     1       3.956   3.084  17.317  0.00  0.00    +0.000 A 
ATOM      7  C   UNL     1       2.944   2.206  17.646  0.00  0.00    +0.000 A 
ATOM      8  N   UNL     1       1.990   2.485  18.541  0.00  0.00    +0.000 NA
ATOM      9  C   UNL     1       2.024   3.679  19.137  0.00  0.00    +0.000 A 
ATOM     10  C   UNL     1       1.027   3.921  20.064  0.00  0.00    +0.000 A 
ATOM     11  C   UNL     1       0.933   5.123  20.767  0.00  0.00    +0.000 A 
ATOM     12  C   UNL     1       1.840   6.140  20.525  0.00  0.00    +0.000 A 
ATOM     13  C   UNL     1       2.835   5.920  19.561  0.00  0.00    +0.000 A 
ATOM     14  C   UNL     1       2.996   4.678  18.872  0.00  0.00    +0.000 A 
BRANCH   5  19
ATOM     15  C   UNL     1       8.157   8.148  17.544  0.00  0.00    +0.000 C 
ATOM     16  N   UNL     1       7.391   6.943  17.243  0.00  0.00    +0.000 NA
ATOM     17  C   UNL     1       6.028   7.301  16.794  0.00  0.00    +0.000 C 
ATOM     18  C   UNL     1       5.173   6.060  16.469  0.00  0.00    +0.000 C 
ATOM     19  N   UNL     1       5.130   5.140  17.611  0.00  0.00    +0.000 N 
ATOM     20  C   UNL     1       6.467   4.781  18.134  0.00  0.00    +0.000 C 
ATOM     21  C   UNL     1       7.286   6.063  18.428  0.00  0.00    +0.000 C 
ENDBRANCH   5  19
ENDBRANCH   1  12
BRANCH   2  22
ATOM     22  C   UNL     1       1.027   9.468  22.182  0.00  0.00    +0.000 C 
BRANCH  22  23
ATOM     23  C   UNL     1      -0.091  10.490  22.101  0.00  0.00    +0.000 A 
ATOM     24  C   UNL     1      -0.941  10.593  23.205  0.00  0.00    +0.000 A 
ATOM     25  C   UNL     1      -2.029  11.457  23.185  0.00  0.00    +0.000 A 
ATOM     26  C   UNL     1      -2.304  12.286  22.079  0.00  0.00    +0.000 A 
ATOM     27  C   UNL     1      -1.383  12.263  20.975  0.00  0.00    +0.000 A 
ATOM     28  C   UNL     1      -1.483  13.138  19.858  0.00  0.00    +0.000 A 
ATOM     29  C   UNL     1      -0.654  13.044  18.739  0.00  0.00    +0.000 A 
ATOM     30  C   UNL     1       0.358  12.107  18.724  0.00  0.00    +0.000 A 
ATOM     31  C   UNL     1       0.544  11.283  19.833  0.00  0.00    +0.000 A 
ATOM     32  C   UNL     1      -0.298  11.334  20.973  0.00  0.00    +0.000 A 
BRANCH  26  33
ATOM     33  C   UNL     1      -3.565  13.095  22.107  0.00  0.00    +0.000 A 
ATOM     34  C   UNL     1      -4.712  12.697  21.404  0.00  0.00    +0.000 A 
ATOM     35  C   UNL     1      -5.855  13.488  21.445  0.00  0.00    +0.000 A 
ATOM     36  N   UNL     1      -5.957  14.626  22.158  0.00  0.00    +0.000 NA
ATOM     37  C   UNL     1      -4.851  15.014  22.820  0.00  0.00    +0.000 A 
ATOM     38  C   UNL     1      -3.650  14.319  22.787  0.00  0.00    +0.000 A 
ENDBRANCH  26  33
ENDBRANCH  22  23
ENDBRANCH   2  22
TORSDOF 5
ENDMDL
MODEL 2
REMARK VINA RESULT:      -9.5      2.057     11.292
REMARK  Name = 
REMARK  6 active torsions:
REMARK  status: ('A' for Active; 'I' for Inactive)
REMARK    1  A    between atoms: C_1  and  N_2
REMARK    2  A    between atoms: N_5  and  C_6
REMARK    3  A    between atoms: C_13  and  N_14
REMARK    4  A    between atoms: C_15  and  C_17
REMARK    5  A    between atoms: C_17  and  C_18
REMARK    6  A    between atoms: C_21  and  C_22
REMARK                            x       y       z     vdW  Elec       q    Type
REMARK                         _______ _______ _______ _____ _____    ______ ____
ROOT
ATOM      1  N   UNL     1       0.256   9.377  20.066  0.00  0.00    +0.000 N 
ATOM      2  C   UNL     1       0.941   8.654  21.038  0.00  0.00    +0.000 C 
ATOM      3  O   UNL     1       1.582   9.132  21.971  0.00  0.00    +0.000 OA
ATOM      4  H   UNL     1      -0.273   8.847  19.388  0.00  0.00    +0.000 HD
ENDROOT
BRANCH   1  12
ATOM      5  C   UNL     1      -2.183  13.620  20.959  0.00  0.00    +0.000 A 
ATOM      6  C   UNL     1      -2.144  15.017  20.790  0.00  0.00    +0.000 A 
ATOM      7  C   UNL     1      -1.076  15.614  20.154  0.00  0.00    +0.000 A 
ATOM      8  N   UNL     1      -0.032  14.931  19.669  0.00  0.00    +0.000 NA
ATOM      9  C   UNL     1      -0.037  13.604  19.810  0.00  0.00    +0.000 A 
ATOM     10  C   UNL     1       1.067  12.939  19.306  0.00  0.00    +0.000 A 
ATOM     11  C   UNL     1       1.203  11.552  19.379  0.00  0.00    +0.000 A 
ATOM     12  C   UNL     1       0.198  10.786  19.944  0.00  0.00    +0.000 A 
ATOM     13  C   UNL     1      -0.942  11.445  20.426  0.00  0.00    +0.000 A 
ATOM     14  C   UNL     1      -1.083  12.867  20.423  0.00  0.00    +0.000 A 
BRANCH   5  19
ATOM     15  C   UNL     1      -6.790  12.620  24.025  0.00  0.00    +0.000 C 
ATOM     16  N   UNL     1      -5.609  12.330  23.218  0.00  0.00    +0.000 NA
ATOM     17  C   UNL     1      -4.396  12.859  23.878  0.00  0.00    +0.000 C 
ATOM     18  C   UNL     1      -3.118  12.585  23.061  0.00  0.00    +0.000 C 
ATOM     19  N   UNL     1      -3.247  13.105  21.694  0.00  0.00    +0.000 N 
ATOM     20  C   UNL     1      -4.470  12.645  20.998  0.00  0.00    +0.000 C 
ATOM     21  C   UNL     1      -5.719  12.932  21.870  0.00  0.00    +0.000 C 
ENDBRANCH   5  19
ENDBRANCH   1  12
BRANCH   2  22
ATOM     22  C   UNL     1       0.824   7.150  20.880  0.00  0.00    +0.000 C 
BRANCH  22  23
ATOM     23  C   UNL     1       1.955   6.542  20.072  0.00  0.00    +0.000 A 
ATOM     24  C   UNL     1       2.574   7.363  19.125  0.00  0.00    +0.000 A 
ATOM     25  C   UNL     1       3.573   6.864  18.299  0.00  0.00    +0.000 A 
ATOM     26  C   UNL     1       4.030   5.535  18.398  0.00  0.00    +0.000 A 
ATOM     27  C   UNL     1       3.473   4.707  19.432  0.00  0.00    +0.000 A 
ATOM     28  C   UNL     1       3.935   3.392  19.712  0.00  0.00    +0.000 A 
ATOM     29  C   UNL     1       3.325   2.550  20.643  0.00  0.00    +0.000 A 
ATOM     30  C   UNL     1       2.261   3.020  21.384  0.00  0.00    +0.000 A 
ATOM     31  C   UNL     1       1.826   4.333  21.201  0.00  0.00    +0.000 A 
ATOM     32  C   UNL     1       2.406   5.203  20.243  0.00  0.00    +0.000 A 
BRANCH  26  33
ATOM     33  C   UNL     1       5.027   5.060  17.385  0.00  0.00    +0.000 A 
ATOM     34  C   UNL     1       4.627   4.447  16.187  0.00  0.00    +0.000 A 
ATOM     35  C   UNL     1       5.587   4.007  15.284  0.00  0.00    +0.000 A 
ATOM     36  N   UNL     1       6.913   4.159  15.462  0.00  0.00    +0.000 NA
ATOM     37  C   UNL     1       7.296   4.735  16.617  0.00  0.00    +0.000 A 
ATOM     38  C   UNL     1       6.410   5.150  17.601  0.00  0.00    +0.000 A 
ENDBRANCH  26  33
ENDBRANCH  22  23
ENDBRANCH   2  22
TORSDOF 5
ENDMDL
MODEL 3
REMARK VINA RESULT:      -9.4      6.486     10.877
REMARK  Name = 
REMARK  6 active torsions:
REMARK  status: ('A' for Active; 'I' for Inactive)
REMARK    1  A    between atoms: C_1  and  N_2
REMARK    2  A    between atoms: N_5  and  C_6
REMARK    3  A    between atoms: C_13  and  N_14
REMARK    4  A    between atoms: C_15  and  C_17
REMARK    5  A    between atoms: C_17  and  C_18
REMARK    6  A    between atoms: C_21  and  C_22
REMARK                            x       y       z     vdW  Elec       q    Type
REMARK                         _______ _______ _______ _____ _____    ______ ____
ROOT
ATOM      1  N   UNL     1       9.119   8.968  18.904  0.00  0.00    +0.000 N 
ATOM      2  C   UNL     1       8.207   8.179  18.209  0.00  0.00    +0.000 C 
ATOM      3  O   UNL     1       7.428   8.573  17.344  0.00  0.00    +0.000 OA
ATOM      4  H   UNL     1       9.734   8.495  19.551  0.00  0.00    +0.000 HD
ENDROOT
BRANCH   1  12
ATOM      5  C   UNL     1       8.510  13.520  20.816  0.00  0.00    +0.000 A 
ATOM      6  C   UNL     1       8.739  14.890  20.596  0.00  0.00    +0.000 A 
ATOM      7  C   UNL     1       9.381  15.317  19.452  0.00  0.00    +0.000 A 
ATOM      8  N   UNL     1       9.821  14.484  18.501  0.00  0.00    +0.000 NA
ATOM      9  C   UNL     1       9.618  13.177  18.676  0.00  0.00    +0.000 A 
ATOM     10  C   UNL     1      10.100  12.351  17.676  0.00  0.00    +0.000 A 
ATOM     11  C   UNL     1       9.963  10.963  17.719  0.00  0.00    +0.000 A 
ATOM     12  C   UNL     1       9.298  10.365  18.775  0.00  0.00    +0.000 A 
ATOM     13  C   UNL     1       8.774  11.193  19.778  0.00  0.00    +0.000 A 
ATOM     14  C   UNL     1       8.953  12.612  19.794  0.00  0.00    +0.000 A 
BRANCH   5  19
ATOM     15  C   UNL     1       5.951  11.128  25.216  0.00  0.00    +0.000 C 
ATOM     16  N   UNL     1       6.724  12.116  24.469  0.00  0.00    +0.000 NA
ATOM     17  C   UNL     1       5.909  12.678  23.370  0.00  0.00    +0.000 C 
ATOM     18  C   UNL     1       6.684  13.724  22.544  0.00  0.00    +0.000 C 
ATOM     19  N   UNL     1       7.943  13.165  22.037  0.00  0.00    +0.000 N 
ATOM     20  C   UNL     1       8.781  12.545  23.087  0.00  0.00    +0.000 C 
ATOM     21  C   UNL     1       7.949  11.516  23.895  0.00  0.00    +0.000 C 
ENDBRANCH   5  19
ENDBRANCH   1  12
BRANCH   2  22
ATOM     22  C   UNL     1       8.248   6.712  18.592  0.00  0.00    +0.000 C 
BRANCH  22  23
ATOM     23  C   UNL     1       6.921   6.003  18.396  0.00  0.00    +0.000 A 
ATOM     24  C   UNL     1       6.042   5.986  19.483  0.00  0.00    +0.000 A 
ATOM     25  C   UNL     1       4.835   5.302  19.408  0.00  0.00    +0.000 A 
ATOM     26  C   UNL     1       4.428   4.632  18.237  0.00  0.00    +0.000 A 
ATOM     27  C   UNL     1       5.275   4.723  17.079  0.00  0.00    +0.000 A 
ATOM     28  C   UNL     1       4.919   4.195  15.808  0.00  0.00    +0.000 A 
ATOM     29  C   UNL     1       5.784   4.189  14.714  0.00  0.00    +0.000 A 
ATOM     30  C   UNL     1       7.027   4.777  14.832  0.00  0.00    +0.000 A 
ATOM     31  C   UNL     1       7.387   5.380  16.036  0.00  0.00    +0.000 A 
ATOM     32  C   UNL     1       6.542   5.378  17.175  0.00  0.00    +0.000 A 
BRANCH  26  33
ATOM     33  C   UNL     1       3.165   3.827  18.294  0.00  0.00    +0.000 A 
ATOM     34  C   UNL     1       3.176   2.459  18.608  0.00  0.00    +0.000 A 
ATOM     35  C   UNL     1       1.983   1.747  18.633  0.00  0.00    +0.000 A 
ATOM     36  N   UNL     1       0.775   2.297  18.405  0.00  0.00    +0.000 NA
ATOM     37  C   UNL     1       0.766   3.606  18.091  0.00  0.00    +0.000 A 
ATOM     38  C   UNL     1       1.913   4.379  17.984  0.00  0.00    +0.000 A 
ENDBRANCH  26  33
ENDBRANCH  22  23
ENDBRANCH   2  22
TORSDOF 5
ENDMDL
MODEL 4
REMARK VINA RESULT:      -9.1      6.704     10.963
REMARK  Name = 
REMARK  6 active torsions:
REMARK  status: ('A' for Active; 'I' for Inactive)
REMARK    1  A    between atoms: C_1  and  N_2
REMARK    2  A    between atoms: N_5  and  C_6
REMARK    3  A    between atoms: C_13  and  N_14
REMARK    4  A    between atoms: C_15  and  C_17
REMARK    5  A    between atoms: C_17  and  C_18
REMARK    6  A    between atoms: C_21  and  C_22
REMARK                            x       y       z     vdW  Elec       q    Type
REMARK                         _______ _______ _______ _____ _____    ______ ____
ROOT
ATOM      1  N   UNL     1       9.072   8.903  19.021  0.00  0.00    +0.000 N 
ATOM      2  C   UNL     1       8.193   8.158  18.240  0.00  0.00    +0.000 C 
ATOM      3  O   UNL     1       7.411   8.611  17.406  0.00  0.00    +0.000 OA
ATOM      4  H   UNL     1       9.695   8.388  19.627  0.00  0.00    +0.000 HD
ENDROOT
BRANCH   1  12
ATOM      5  C   UNL     1       8.471  13.207  21.443  0.00  0.00    +0.000 A 
ATOM      6  C   UNL     1       8.650  14.600  21.356  0.00  0.00    +0.000 A 
ATOM      7  C   UNL     1       9.208  15.164  20.228  0.00  0.00    +0.000 A 
ATOM      8  N   UNL     1       9.608  14.451  19.169  0.00  0.00    +0.000 NA
ATOM      9  C   UNL     1       9.450  13.126  19.215  0.00  0.00    +0.000 A 
ATOM     10  C   UNL     1       9.888  12.426  18.105  0.00  0.00    +0.000 A 
ATOM     11  C   UNL     1       9.788  11.037  18.008  0.00  0.00    +0.000 A 
ATOM     12  C   UNL     1       9.207  10.311  19.032  0.00  0.00    +0.000 A 
ATOM     13  C   UNL     1       8.726  11.012  20.148  0.00  0.00    +0.000 A 
ATOM     14  C   UNL     1       8.870  12.426  20.305  0.00  0.00    +0.000 A 
BRANCH   5  19
ATOM     15  C   UNL     1       6.636  12.259  26.673  0.00  0.00    +0.000 C 
ATOM     16  N   UNL     1       6.953  11.980  25.276  0.00  0.00    +0.000 NA
ATOM     17  C   UNL     1       8.401  12.162  25.033  0.00  0.00    +0.000 C 
ATOM     18  C   UNL     1       8.788  11.885  23.567  0.00  0.00    +0.000 C 
ATOM     19  N   UNL     1       7.990  12.708  22.650  0.00  0.00    +0.000 N 
ATOM     20  C   UNL     1       6.531  12.603  22.876  0.00  0.00    +0.000 C 
ATOM     21  C   UNL     1       6.202  12.874  24.366  0.00  0.00    +0.000 C 
ENDBRANCH   5  19
ENDBRANCH   1  12
BRANCH   2  22
ATOM     22  C   UNL     1       8.277   6.662  18.478  0.00  0.00    +0.000 C 
BRANCH  22  23
ATOM     23  C   UNL     1       6.947   5.953  18.311  0.00  0.00    +0.000 A 
ATOM     24  C   UNL     1       6.104   5.910  19.426  0.00  0.00    +0.000 A 
ATOM     25  C   UNL     1       4.898   5.223  19.376  0.00  0.00    +0.000 A 
ATOM     26  C   UNL     1       4.454   4.575  18.206  0.00  0.00    +0.000 A 
ATOM     27  C   UNL     1       5.263   4.693  17.023  0.00  0.00    +0.000 A 
ATOM     28  C   UNL     1       4.866   4.190  15.753  0.00  0.00    +0.000 A 
ATOM     29  C   UNL     1       5.695   4.211  14.632  0.00  0.00    +0.000 A 
ATOM     30  C   UNL     1       6.939   4.801  14.721  0.00  0.00    +0.000 A 
ATOM     31  C   UNL     1       7.337   5.381  15.925  0.00  0.00    +0.000 A 
ATOM     32  C   UNL     1       6.529   5.351  17.091  0.00  0.00    +0.000 A 
BRANCH  26  33
ATOM     33  C   UNL     1       3.197   3.764  18.288  0.00  0.00    +0.000 A 
ATOM     34  C   UNL     1       1.929   4.366  18.288  0.00  0.00    +0.000 A 
ATOM     35  C   UNL     1       0.790   3.575  18.383  0.00  0.00    +0.000 A 
ATOM     36  N   UNL     1       0.811   2.230  18.444  0.00  0.00    +0.000 NA
ATOM     37  C   UNL     1       2.028   1.654  18.457  0.00  0.00    +0.000 A 
ATOM     38  C   UNL     1       3.218   2.368  18.427  0.00  0.00    +0.000 A 
ENDBRANCH  26  33
ENDBRANCH  22  23
ENDBRANCH   2  22
TORSDOF 5
ENDMDL
MODEL 5
REMARK VINA RESULT:      -9.1      1.969      2.492
REMARK  Name = 
REMARK  6 active torsions:
REMARK  status: ('A' for Active; 'I' for Inactive)
REMARK    1  A    between atoms: C_1  and  N_2
REMARK    2  A    between atoms: N_5  and  C_6
REMARK    3  A    between atoms: C_13  and  N_14
REMARK    4  A    between atoms: C_15  and  C_17
REMARK    5  A    between atoms: C_17  and  C_18
REMARK    6  A    between atoms: C_21  and  C_22
REMARK                            x       y       z     vdW  Elec       q    Type
REMARK                         _______ _______ _______ _____ _____    ______ ____
ROOT
ATOM      1  N   UNL     1       1.816   8.390  19.223  0.00  0.00    +0.000 N 
ATOM      2  C   UNL     1       1.077   9.324  19.943  0.00  0.00    +0.000 C 
ATOM      3  O   UNL     1       0.577   9.146  21.051  0.00  0.00    +0.000 OA
ATOM      4  H   UNL     1       2.212   8.697  18.346  0.00  0.00    +0.000 HD
ENDROOT
BRANCH   1  12
ATOM      5  C   UNL     1       4.467   4.239  18.519  0.00  0.00    +0.000 A 
ATOM      6  C   UNL     1       4.675   2.926  18.980  0.00  0.00    +0.000 A 
ATOM      7  C   UNL     1       3.949   2.436  20.046  0.00  0.00    +0.000 A 
ATOM      8  N   UNL     1       3.025   3.151  20.698  0.00  0.00    +0.000 NA
ATOM      9  C   UNL     1       2.799   4.400  20.286  0.00  0.00    +0.000 A 
ATOM     10  C   UNL     1       1.846   5.108  20.996  0.00  0.00    +0.000 A 
ATOM     11  C   UNL     1       1.502   6.424  20.682  0.00  0.00    +0.000 A 
ATOM     12  C   UNL     1       2.099   7.058  19.607  0.00  0.00    +0.000 A 
ATOM     13  C   UNL     1       3.041   6.340  18.857  0.00  0.00    +0.000 A 
ATOM     14  C   UNL     1       3.461   5.014  19.191  0.00  0.00    +0.000 A 
BRANCH   5  19
ATOM     15  C   UNL     1       7.598   5.076  13.924  0.00  0.00    +0.000 C 
ATOM     16  N   UNL     1       6.947   5.378  15.195  0.00  0.00    +0.000 NA
ATOM     17  C   UNL     1       7.431   4.460  16.249  0.00  0.00    +0.000 C 
ATOM     18  C   UNL     1       6.768   4.734  17.613  0.00  0.00    +0.000 C 
ATOM     19  N   UNL     1       5.305   4.690  17.503  0.00  0.00    +0.000 N 
ATOM     20  C   UNL     1       4.765   5.555  16.431  0.00  0.00    +0.000 C 
ATOM     21  C   UNL     1       5.477   5.249  15.089  0.00  0.00    +0.000 C 
ENDBRANCH   5  19
ENDBRANCH   1  12
BRANCH   2  22
ATOM     22  C   UNL     1       0.935  10.664  19.245  0.00  0.00    +0.000 C 
BRANCH  22  23
ATOM     23  C   UNL     1      -0.413  11.319  19.475  0.00  0.00    +0.000 A 
ATOM     24  C   UNL     1      -0.510  12.218  20.541  0.00  0.00    +0.000 A 
ATOM     25  C   UNL     1      -1.725  12.811  20.861  0.00  0.00    +0.000 A 
ATOM     26  C   UNL     1      -2.895  12.567  20.114  0.00  0.00    +0.000 A 
ATOM     27  C   UNL     1      -2.790  11.722  18.956  0.00  0.00    +0.000 A 
ATOM     28  C   UNL     1      -3.867  11.497  18.054  0.00  0.00    +0.000 A 
ATOM     29  C   UNL     1      -3.797  10.595  16.992  0.00  0.00    +0.000 A 
ATOM     30  C   UNL     1      -2.615   9.928  16.748  0.00  0.00    +0.000 A 
ATOM     31  C   UNL     1      -1.507  10.180  17.558  0.00  0.00    +0.000 A 
ATOM     32  C   UNL     1      -1.554  11.068  18.662  0.00  0.00    +0.000 A 
BRANCH  26  33
ATOM     33  C   UNL     1      -4.178  13.162  20.609  0.00  0.00    +0.000 A 
ATOM     34  C   UNL     1      -5.294  12.364  20.909  0.00  0.00    +0.000 A 
ATOM     35  C   UNL     1      -6.469  12.960  21.349  0.00  0.00    +0.000 A 
ATOM     36  N   UNL     1      -6.612  14.285  21.547  0.00  0.00    +0.000 NA
ATOM     37  C   UNL     1      -5.547  15.050  21.245  0.00  0.00    +0.000 A 
ATOM     38  C   UNL     1      -4.355  14.547  20.744  0.00  0.00    +0.000 A 
ENDBRANCH  26  33
ENDBRANCH  22  23
ENDBRANCH   2  22
TORSDOF 5
ENDMDL
MODEL 6
REMARK VINA RESULT:      -9.0      1.852      2.565
REMARK  Name = 
REMARK  6 active torsions:
REMARK  status: ('A' for Active; 'I' for Inactive)
REMARK    1  A    between atoms: C_1  and  N_2
REMARK    2  A    between atoms: N_5  and  C_6
REMARK    3  A    between atoms: C_13  and  N_14
REMARK    4  A    between atoms: C_15  and  C_17
REMARK    5  A    between atoms: C_17  and  C_18
REMARK    6  A    between atoms: C_21  and  C_22
REMARK                            x       y       z     vdW  Elec       q    Type
REMARK                         _______ _______ _______ _____ _____    ______ ____
ROOT
ATOM      1  N   UNL     1       2.083   8.564  19.544  0.00  0.00    +0.000 N 
ATOM      2  C   UNL     1       1.506   9.174  18.433  0.00  0.00    +0.000 C 
ATOM      3  O   UNL     1       0.983   8.593  17.486  0.00  0.00    +0.000 OA
ATOM      4  H   UNL     1       2.428   9.173  20.273  0.00  0.00    +0.000 HD
ENDROOT
BRANCH   1  12
ATOM      5  C   UNL     1       4.276   4.250  18.392  0.00  0.00    +0.000 A 
ATOM      6  C   UNL     1       4.329   2.878  18.701  0.00  0.00    +0.000 A 
ATOM      7  C   UNL     1       3.530   2.355  19.696  0.00  0.00    +0.000 A 
ATOM      8  N   UNL     1       2.677   3.090  20.418  0.00  0.00    +0.000 NA
ATOM      9  C   UNL     1       2.598   4.395  20.150  0.00  0.00    +0.000 A 
ATOM     10  C   UNL     1       1.713   5.120  20.928  0.00  0.00    +0.000 A 
ATOM     11  C   UNL     1       1.523   6.493  20.765  0.00  0.00    +0.000 A 
ATOM     12  C   UNL     1       2.209   7.175  19.775  0.00  0.00    +0.000 A 
ATOM     13  C   UNL     1       3.083   6.445  18.956  0.00  0.00    +0.000 A 
ATOM     14  C   UNL     1       3.347   5.052  19.139  0.00  0.00    +0.000 A 
BRANCH   5  19
ATOM     15  C   UNL     1       7.713   5.156  14.034  0.00  0.00    +0.000 C 
ATOM     16  N   UNL     1       6.975   5.440  15.261  0.00  0.00    +0.000 NA
ATOM     17  C   UNL     1       7.389   4.509  16.334  0.00  0.00    +0.000 C 
ATOM     18  C   UNL     1       6.633   4.763  17.653  0.00  0.00    +0.000 C 
ATOM     19  N   UNL     1       5.181   4.717  17.442  0.00  0.00    +0.000 N 
ATOM     20  C   UNL     1       4.713   5.595  16.347  0.00  0.00    +0.000 C 
ATOM     21  C   UNL     1       5.516   5.309  15.053  0.00  0.00    +0.000 C 
ENDBRANCH   5  19
ENDBRANCH   1  12
BRANCH   2  22
ATOM     22  C   UNL     1       1.547  10.690  18.475  0.00  0.00    +0.000 C 
BRANCH  22  23
ATOM     23  C   UNL     1       0.451  11.295  19.332  0.00  0.00    +0.000 A 
ATOM     24  C   UNL     1       0.827  11.809  20.576  0.00  0.00    +0.000 A 
ATOM     25  C   UNL     1      -0.125  12.321  21.449  0.00  0.00    +0.000 A 
ATOM     26  C   UNL     1      -1.493  12.378  21.113  0.00  0.00    +0.000 A 
ATOM     27  C   UNL     1      -1.882  11.943  19.800  0.00  0.00    +0.000 A 
ATOM     28  C   UNL     1      -3.208  12.064  19.299  0.00  0.00    +0.000 A 
ATOM     29  C   UNL     1      -3.608  11.546  18.067  0.00  0.00    +0.000 A 
ATOM     30  C   UNL     1      -2.674  10.941  17.252  0.00  0.00    +0.000 A 
ATOM     31  C   UNL     1      -1.344  10.874  17.667  0.00  0.00    +0.000 A 
ATOM     32  C   UNL     1      -0.911  11.365  18.925  0.00  0.00    +0.000 A 
BRANCH  26  33
ATOM     33  C   UNL     1      -2.454  12.838  22.167  0.00  0.00    +0.000 A 
ATOM     34  C   UNL     1      -2.999  14.131  22.154  0.00  0.00    +0.000 A 
ATOM     35  C   UNL     1      -3.873  14.521  23.161  0.00  0.00    +0.000 A 
ATOM     36  N   UNL     1      -4.276  13.714  24.162  0.00  0.00    +0.000 NA
ATOM     37  C   UNL     1      -3.742  12.479  24.181  0.00  0.00    +0.000 A 
ATOM     38  C   UNL     1      -2.817  12.025  23.252  0.00  0.00    +0.000 A 
ENDBRANCH  26  33
ENDBRANCH  22  23
ENDBRANCH   2  22
TORSDOF 5
ENDMDL
MODEL 7
REMARK VINA RESULT:      -9.0      2.194     11.039
REMARK  Name = 
REMARK  6 active torsions:
REMARK  status: ('A' for Active; 'I' for Inactive)
REMARK    1  A    between atoms: C_1  and  N_2
REMARK    2  A    between atoms: N_5  and  C_6
REMARK    3  A    between atoms: C_13  and  N_14
REMARK    4  A    between atoms: C_15  and  C_17
REMARK    5  A    between atoms: C_17  and  C_18
REMARK    6  A    between atoms: C_21  and  C_22
REMARK                            x       y       z     vdW  Elec       q    Type
REMARK                         _______ _______ _______ _____ _____    ______ ____
ROOT
ATOM      1  N   UNL     1       1.064   8.878  19.475  0.00  0.00    +0.000 N 
ATOM      2  C   UNL     1       1.392   8.228  20.662  0.00  0.00    +0.000 C 
ATOM      3  O   UNL     1       1.699   8.775  21.719  0.00  0.00    +0.000 OA
ATOM      4  H   UNL     1       0.779   8.297  18.699  0.00  0.00    +0.000 HD
ENDROOT
BRANCH   1  12
ATOM      5  C   UNL     1      -1.071  13.298  20.281  0.00  0.00    +0.000 A 
ATOM      6  C   UNL     1      -0.988  14.675  19.999  0.00  0.00    +0.000 A 
ATOM      7  C   UNL     1       0.031  15.166  19.210  0.00  0.00    +0.000 A 
ATOM      8  N   UNL     1       0.985  14.395  18.675  0.00  0.00    +0.000 NA
ATOM      9  C   UNL     1       0.935  13.084  18.919  0.00  0.00    +0.000 A 
ATOM     10  C   UNL     1       1.947  12.325  18.358  0.00  0.00    +0.000 A 
ATOM     11  C   UNL     1       2.028  10.942  18.525  0.00  0.00    +0.000 A 
ATOM     12  C   UNL     1       1.057  10.274  19.250  0.00  0.00    +0.000 A 
ATOM     13  C   UNL     1       0.006  11.027  19.794  0.00  0.00    +0.000 A 
ATOM     14  C   UNL     1      -0.070  12.451  19.694  0.00  0.00    +0.000 A 
BRANCH   5  19
ATOM     15  C   UNL     1      -5.253  12.780  24.005  0.00  0.00    +0.000 C 
ATOM     16  N   UNL     1      -4.259  12.373  23.017  0.00  0.00    +0.000 NA
ATOM     17  C   UNL     1      -2.899  12.709  23.491  0.00  0.00    +0.000 C 
ATOM     18  C   UNL     1      -1.809  12.304  22.479  0.00  0.00    +0.000 C 
ATOM     19  N   UNL     1      -2.072  12.896  21.162  0.00  0.00    +0.000 N 
ATOM     20  C   UNL     1      -3.437  12.632  20.655  0.00  0.00    +0.000 C 
ATOM     21  C   UNL     1      -4.488  13.041  21.717  0.00  0.00    +0.000 C 
ENDBRANCH   5  19
ENDBRANCH   1  12
BRANCH   2  22
ATOM     22  C   UNL     1       1.324   6.716  20.573  0.00  0.00    +0.000 C 
BRANCH  22  23
ATOM     23  C   UNL     1       2.303   6.129  19.574  0.00  0.00    +0.000 A 
ATOM     24  C   UNL     1       3.332   6.963  19.127  0.00  0.00    +0.000 A 
ATOM     25  C   UNL     1       4.232   6.525  18.163  0.00  0.00    +0.000 A 
ATOM     26  C   UNL     1       4.174   5.225  17.623  0.00  0.00    +0.000 A 
ATOM     27  C   UNL     1       3.183   4.323  18.143  0.00  0.00    +0.000 A 
ATOM     28  C   UNL     1       3.101   2.954  17.770  0.00  0.00    +0.000 A 
ATOM     29  C   UNL     1       2.076   2.107  18.193  0.00  0.00    +0.000 A 
ATOM     30  C   UNL     1       1.123   2.584  19.068  0.00  0.00    +0.000 A 
ATOM     31  C   UNL     1       1.211   3.899  19.526  0.00  0.00    +0.000 A 
ATOM     32  C   UNL     1       2.223   4.793  19.093  0.00  0.00    +0.000 A 
BRANCH  26  33
ATOM     33  C   UNL     1       5.114   4.888  16.506  0.00  0.00    +0.000 A 
ATOM     34  C   UNL     1       6.507   4.946  16.671  0.00  0.00    +0.000 A 
ATOM     35  C   UNL     1       7.341   4.642  15.603  0.00  0.00    +0.000 A 
ATOM     36  N   UNL     1       6.900   4.250  14.392  0.00  0.00    +0.000 NA
ATOM     37  C   UNL     1       5.565   4.208  14.230  0.00  0.00    +0.000 A 
ATOM     38  C   UNL     1       4.658   4.552  15.222  0.00  0.00    +0.000 A 
ENDBRANCH  26  33
ENDBRANCH  22  23
ENDBRANCH   2  22
TORSDOF 5
ENDMDL
MODEL 8
REMARK VINA RESULT:      -8.8      2.423      3.244
REMARK  Name = 
REMARK  6 active torsions:
REMARK  status: ('A' for Active; 'I' for Inactive)
REMARK    1  A    between atoms: C_1  and  N_2
REMARK    2  A    between atoms: N_5  and  C_6
REMARK    3  A    between atoms: C_13  and  N_14
REMARK    4  A    between atoms: C_15  and  C_17
REMARK    5  A    between atoms: C_17  and  C_18
REMARK    6  A    between atoms: C_21  and  C_22
REMARK                            x       y       z     vdW  Elec       q    Type
REMARK                         _______ _______ _______ _____ _____    ______ ____
ROOT
ATOM      1  N   UNL     1       1.794   8.321  19.569  0.00  0.00    +0.000 N 
ATOM      2  C   UNL     1       1.872   8.925  18.318  0.00  0.00    +0.000 C 
ATOM      3  O   UNL     1       2.158   8.361  17.264  0.00  0.00    +0.000 OA
ATOM      4  H   UNL     1       1.494   8.900  20.340  0.00  0.00    +0.000 HD
ENDROOT
BRANCH   1  12
ATOM      5  C   UNL     1       4.409   4.196  18.620  0.00  0.00    +0.000 A 
ATOM      6  C   UNL     1       4.603   2.855  19.000  0.00  0.00    +0.000 A 
ATOM      7  C   UNL     1       3.868   2.306  20.030  0.00  0.00    +0.000 A 
ATOM      8  N   UNL     1       2.947   2.989  20.722  0.00  0.00    +0.000 NA
ATOM      9  C   UNL     1       2.735   4.263  20.386  0.00  0.00    +0.000 A 
ATOM     10  C   UNL     1       1.785   4.935  21.135  0.00  0.00    +0.000 A 
ATOM     11  C   UNL     1       1.455   6.270  20.902  0.00  0.00    +0.000 A 
ATOM     12  C   UNL     1       2.063   6.965  19.871  0.00  0.00    +0.000 A 
ATOM     13  C   UNL     1       3.002   6.285  19.082  0.00  0.00    +0.000 A 
ATOM     14  C   UNL     1       3.407   4.938  19.335  0.00  0.00    +0.000 A 
BRANCH   5  19
ATOM     15  C   UNL     1       7.628   5.252  14.132  0.00  0.00    +0.000 C 
ATOM     16  N   UNL     1       6.932   5.502  15.390  0.00  0.00    +0.000 NA
ATOM     17  C   UNL     1       7.423   4.580  16.438  0.00  0.00    +0.000 C 
ATOM     18  C   UNL     1       6.713   4.799  17.789  0.00  0.00    +0.000 C 
ATOM     19  N   UNL     1       5.257   4.701  17.637  0.00  0.00    +0.000 N 
ATOM     20  C   UNL     1       4.712   5.567  16.569  0.00  0.00    +0.000 C 
ATOM     21  C   UNL     1       5.471   5.318  15.241  0.00  0.00    +0.000 C 
ENDBRANCH   5  19
ENDBRANCH   1  12
BRANCH   2  22
ATOM     22  C   UNL     1       1.543  10.405  18.330  0.00  0.00    +0.000 C 
BRANCH  22  23
ATOM     23  C   UNL     1       0.058  10.688  18.455  0.00  0.00    +0.000 A 
ATOM     24  C   UNL     1      -0.804   9.926  17.661  0.00  0.00    +0.000 A 
ATOM     25  C   UNL     1      -2.172  10.167  17.666  0.00  0.00    +0.000 A 
ATOM     26  C   UNL     1      -2.754  11.153  18.487  0.00  0.00    +0.000 A 
ATOM     27  C   UNL     1      -1.893  11.879  19.381  0.00  0.00    +0.000 A 
ATOM     28  C   UNL     1      -2.374  12.810  20.342  0.00  0.00    +0.000 A 
ATOM     29  C   UNL     1      -1.532  13.591  21.135  0.00  0.00    +0.000 A 
ATOM     30  C   UNL     1      -0.167  13.420  21.044  0.00  0.00    +0.000 A 
ATOM     31  C   UNL     1       0.346  12.459  20.173  0.00  0.00    +0.000 A 
ATOM     32  C   UNL     1      -0.480  11.670  19.333  0.00  0.00    +0.000 A 
BRANCH  26  33
ATOM     33  C   UNL     1      -4.221  11.415  18.334  0.00  0.00    +0.000 A 
ATOM     34  C   UNL     1      -4.753  11.970  17.160  0.00  0.00    +0.000 A 
ATOM     35  C   UNL     1      -6.118  12.212  17.068  0.00  0.00    +0.000 A 
ATOM     36  N   UNL     1      -7.002  11.913  18.040  0.00  0.00    +0.000 NA
ATOM     37  C   UNL     1      -6.490  11.394  19.170  0.00  0.00    +0.000 A 
ATOM     38  C   UNL     1      -5.134  11.175  19.372  0.00  0.00    +0.000 A 
ENDBRANCH  26  33
ENDBRANCH  22  23
ENDBRANCH   2  22
TORSDOF 5
ENDMDL
MODEL 9
REMARK VINA RESULT:      -8.7      1.459      1.807
REMARK  Name = 
REMARK  6 active torsions:
REMARK  status: ('A' for Active; 'I' for Inactive)
REMARK    1  A    between atoms: C_1  and  N_2
REMARK    2  A    between atoms: N_5  and  C_6
REMARK    3  A    between atoms: C_13  and  N_14
REMARK    4  A    between atoms: C_15  and  C_17
REMARK    5  A    between atoms: C_17  and  C_18
REMARK    6  A    between atoms: C_21  and  C_22
REMARK                            x       y       z     vdW  Elec       q    Type
REMARK                         _______ _______ _______ _____ _____    ______ ____
ROOT
ATOM      1  N   UNL     1       2.026   7.803  20.311  0.00  0.00    +0.000 N 
ATOM      2  C   UNL     1       1.015   8.564  20.891  0.00  0.00    +0.000 C 
ATOM      3  O   UNL     1      -0.018   8.125  21.391  0.00  0.00    +0.000 OA
ATOM      4  H   UNL     1       2.844   8.300  19.987  0.00  0.00    +0.000 HD
ENDROOT
BRANCH   1  12
ATOM      5  C   UNL     1       3.967   3.801  18.082  0.00  0.00    +0.000 A 
ATOM      6  C   UNL     1       3.907   2.398  18.003  0.00  0.00    +0.000 A 
ATOM      7  C   UNL     1       3.023   1.690  18.790  0.00  0.00    +0.000 A 
ATOM      8  N   UNL     1       2.187   2.268  19.661  0.00  0.00    +0.000 NA
ATOM      9  C   UNL     1       2.214   3.599  19.760  0.00  0.00    +0.000 A 
ATOM     10  C   UNL     1       1.343   4.154  20.680  0.00  0.00    +0.000 A 
ATOM     11  C   UNL     1       1.259   5.531  20.896  0.00  0.00    +0.000 A 
ATOM     12  C   UNL     1       2.042   6.397  20.154  0.00  0.00    +0.000 A 
ATOM     13  C   UNL     1       2.903   5.849  19.192  0.00  0.00    +0.000 A 
ATOM     14  C   UNL     1       3.059   4.442  18.993  0.00  0.00    +0.000 A 
BRANCH   5  19
ATOM     15  C   UNL     1       7.874   5.429  14.380  0.00  0.00    +0.000 C 
ATOM     16  N   UNL     1       6.957   5.520  15.512  0.00  0.00    +0.000 NA
ATOM     17  C   UNL     1       7.297   4.502  16.529  0.00  0.00    +0.000 C 
ATOM     18  C   UNL     1       6.352   4.551  17.746  0.00  0.00    +0.000 C 
ATOM     19  N   UNL     1       4.950   4.433  17.325  0.00  0.00    +0.000 N 
ATOM     20  C   UNL     1       4.564   5.398  16.273  0.00  0.00    +0.000 C 
ATOM     21  C   UNL     1       5.555   5.317  15.084  0.00  0.00    +0.000 C 
ENDBRANCH   5  19
ENDBRANCH   1  12
BRANCH   2  22
ATOM     22  C   UNL     1       1.290  10.055  20.887  0.00  0.00    +0.000 C 
BRANCH  22  23
ATOM     23  C   UNL     1       0.031  10.897  20.809  0.00  0.00    +0.000 A 
ATOM     24  C   UNL     1      -0.264  11.704  21.911  0.00  0.00    +0.000 A 
ATOM     25  C   UNL     1      -1.433  12.455  21.947  0.00  0.00    +0.000 A 
ATOM     26  C   UNL     1      -2.347  12.468  20.874  0.00  0.00    +0.000 A 
ATOM     27  C   UNL     1      -2.009  11.720  19.694  0.00  0.00    +0.000 A 
ATOM     28  C   UNL     1      -2.786  11.750  18.503  0.00  0.00    +0.000 A 
ATOM     29  C   UNL     1      -2.517  10.944  17.396  0.00  0.00    +0.000 A 
ATOM     30  C   UNL     1      -1.412  10.119  17.413  0.00  0.00    +0.000 A 
ATOM     31  C   UNL     1      -0.575  10.118  18.529  0.00  0.00    +0.000 A 
ATOM     32  C   UNL     1      -0.836  10.904  19.680  0.00  0.00    +0.000 A 
BRANCH  26  33
ATOM     33  C   UNL     1      -3.632  13.217  21.058  0.00  0.00    +0.000 A 
ATOM     34  C   UNL     1      -4.841  12.553  21.316  0.00  0.00    +0.000 A 
ATOM     35  C   UNL     1      -6.012  13.287  21.463  0.00  0.00    +0.000 A 
ATOM     36  N   UNL     1      -6.069  14.632  21.406  0.00  0.00    +0.000 NA
ATOM     37  C   UNL     1      -4.911  15.266  21.145  0.00  0.00    +0.000 A 
ATOM     38  C   UNL     1      -3.708  14.611  20.925  0.00  0.00    +0.000 A 
ENDBRANCH  26  33
ENDBRANCH  22  23
ENDBRANCH   2  22
TORSDOF 5
ENDMDL
