MODEL 1
REMARK VINA RESULT:      -3.6      0.000      0.000
REMARK  Name = 
REMARK  4 active torsions:
REMARK  status: ('A' for Active; 'I' for Inactive)
REMARK    1  A    between atoms: C_1  and  C_2
REMARK    2  A    between atoms: C_2  and  C_3
REMARK    3  A    between atoms: C_2  and  O_4
REMARK    4  A    between atoms: O_4  and  C_5
REMARK                            x       y       z     vdW  Elec       q    Type
REMARK                         _______ _______ _______ _____ _____    ______ ____
ROOT
ATOM      1  O   UNL     1       7.465   6.222  16.506  0.00  0.00    +0.000 OA
ENDROOT
BRANCH   1   3
ATOM      2  C   UNL     1       7.853   6.090  18.835  0.00  0.00    +0.000 C 
ATOM      3  C   UNL     1       7.253   6.954  17.723  0.00  0.00    +0.000 C 
ATOM      4  C   UNL     1       7.971   8.302  17.685  0.00  0.00    +0.000 C 
ENDBRANCH   1   3
BRANCH   1   5
ATOM      5  C   UNL     1       6.432   5.588  15.885  0.00  0.00    +0.000 C 
ATOM      6  S   UNL     1       6.635   4.461  14.673  0.00  0.00    +0.000 S 
ATOM      7  S   UNL     1       4.977   6.226  16.461  0.00  0.00    +0.000 SA
ENDBRANCH   1   5
TORSDOF 2
ENDMDL
MODEL 2
REMARK VINA RESULT:      -3.4      1.039      1.681
REMARK  Name = 
REMARK  4 active torsions:
REMARK  status: ('A' for Active; 'I' for Inactive)
REMARK    1  A    between atoms: C_1  and  C_2
REMARK    2  A    between atoms: C_2  and  C_3
REMARK    3  A    between atoms: C_2  and  O_4
REMARK    4  A    between atoms: O_4  and  C_5
REMARK                            x       y       z     vdW  Elec       q    Type
REMARK                         _______ _______ _______ _____ _____    ______ ____
ROOT
ATOM      1  O   UNL     1       7.452   5.316  16.929  0.00  0.00    +0.000 OA
ENDROOT
BRANCH   1   3
ATOM      2  C   UNL     1       7.898   5.795  19.201  0.00  0.00    +0.000 C 
ATOM      3  C   UNL     1       7.174   6.290  17.947  0.00  0.00    +0.000 C 
ATOM      4  C   UNL     1       7.718   7.663  17.556  0.00  0.00    +0.000 C 
ENDBRANCH   1   3
BRANCH   1   5
ATOM      5  C   UNL     1       6.446   4.783  16.182  0.00  0.00    +0.000 C 
ATOM      6  S   UNL     1       5.045   4.157  16.835  0.00  0.00    +0.000 S 
ATOM      7  S   UNL     1       6.922   4.762  14.561  0.00  0.00    +0.000 SA
ENDBRANCH   1   5
TORSDOF 2
ENDMDL
MODEL 3
REMARK VINA RESULT:      -3.3      5.670      6.068
REMARK  Name = 
REMARK  4 active torsions:
REMARK  status: ('A' for Active; 'I' for Inactive)
REMARK    1  A    between atoms: C_1  and  C_2
REMARK    2  A    between atoms: C_2  and  C_3
REMARK    3  A    between atoms: C_2  and  O_4
REMARK    4  A    between atoms: O_4  and  C_5
REMARK                            x       y       z     vdW  Elec       q    Type
REMARK                         _______ _______ _______ _____ _____    ______ ____
ROOT
ATOM      1  O   UNL     1       3.401   3.345  20.200  0.00  0.00    +0.000 OA
ENDROOT
BRANCH   1   3
ATOM      2  C   UNL     1       1.570   2.710  21.554  0.00  0.00    +0.000 C 
ATOM      3  C   UNL     1       1.986   3.542  20.339  0.00  0.00    +0.000 C 
ATOM      4  C   UNL     1       1.660   5.012  20.595  0.00  0.00    +0.000 C 
ENDBRANCH   1   3
BRANCH   1   5
ATOM      5  C   UNL     1       4.056   3.760  19.080  0.00  0.00    +0.000 C 
ATOM      6  S   UNL     1       5.213   4.959  19.079  0.00  0.00    +0.000 S 
ATOM      7  S   UNL     1       3.410   2.955  17.741  0.00  0.00    +0.000 SA
ENDBRANCH   1   5
TORSDOF 2
ENDMDL
MODEL 4
REMARK VINA RESULT:      -3.2      5.548      5.895
REMARK  Name = 
REMARK  4 active torsions:
REMARK  status: ('A' for Active; 'I' for Inactive)
REMARK    1  A    between atoms: C_1  and  C_2
REMARK    2  A    between atoms: C_2  and  C_3
REMARK    3  A    between atoms: C_2  and  O_4
REMARK    4  A    between atoms: O_4  and  C_5
REMARK                            x       y       z     vdW  Elec       q    Type
REMARK                         _______ _______ _______ _____ _____    ______ ____
ROOT
ATOM      1  O   UNL     1       3.378   3.532  20.026  0.00  0.00    +0.000 OA
ENDROOT
BRANCH   1   3
ATOM      2  C   UNL     1       1.767   2.834  21.610  0.00  0.00    +0.000 C 
ATOM      3  C   UNL     1       1.986   3.672  20.348  0.00  0.00    +0.000 C 
ATOM      4  C   UNL     1       1.633   5.129  20.639  0.00  0.00    +0.000 C 
ENDBRANCH   1   3
BRANCH   1   5
ATOM      5  C   UNL     1       3.856   3.932  18.815  0.00  0.00    +0.000 C 
ATOM      6  S   UNL     1       3.149   3.521  17.363  0.00  0.00    +0.000 S 
ATOM      7  S   UNL     1       5.303   4.773  19.052  0.00  0.00    +0.000 SA
ENDBRANCH   1   5
TORSDOF 2
ENDMDL
MODEL 5
REMARK VINA RESULT:      -3.2      5.496      6.042
REMARK  Name = 
REMARK  4 active torsions:
REMARK  status: ('A' for Active; 'I' for Inactive)
REMARK    1  A    between atoms: C_1  and  C_2
REMARK    2  A    between atoms: C_2  and  C_3
REMARK    3  A    between atoms: C_2  and  O_4
REMARK    4  A    between atoms: O_4  and  C_5
REMARK                            x       y       z     vdW  Elec       q    Type
REMARK                         _______ _______ _______ _____ _____    ______ ____
ROOT
ATOM      1  O   UNL     1       2.625   4.630  19.836  0.00  0.00    +0.000 OA
ENDROOT
BRANCH   1   3
ATOM      2  C   UNL     1       1.571   4.286  17.748  0.00  0.00    +0.000 C 
ATOM      3  C   UNL     1       2.776   4.928  18.440  0.00  0.00    +0.000 C 
ATOM      4  C   UNL     1       2.758   6.436  18.194  0.00  0.00    +0.000 C 
ENDBRANCH   1   3
BRANCH   1   5
ATOM      5  C   UNL     1       2.912   3.390  20.319  0.00  0.00    +0.000 C 
ATOM      6  S   UNL     1       4.207   2.475  19.803  0.00  0.00    +0.000 S 
ATOM      7  S   UNL     1       1.691   2.928  21.393  0.00  0.00    +0.000 SA
ENDBRANCH   1   5
TORSDOF 2
ENDMDL
MODEL 6
REMARK VINA RESULT:      -3.2      5.747      6.366
REMARK  Name = 
REMARK  4 active torsions:
REMARK  status: ('A' for Active; 'I' for Inactive)
REMARK    1  A    between atoms: C_1  and  C_2
REMARK    2  A    between atoms: C_2  and  C_3
REMARK    3  A    between atoms: C_2  and  O_4
REMARK    4  A    between atoms: O_4  and  C_5
REMARK                            x       y       z     vdW  Elec       q    Type
REMARK                         _______ _______ _______ _____ _____    ______ ____
ROOT
ATOM      1  O   UNL     1       2.869   3.539  19.603  0.00  0.00    +0.000 OA
ENDROOT
BRANCH   1   3
ATOM      2  C   UNL     1       0.835   2.525  18.951  0.00  0.00    +0.000 C 
ATOM      3  C   UNL     1       1.494   3.423  20.001  0.00  0.00    +0.000 C 
ATOM      4  C   UNL     1       1.373   2.769  21.376  0.00  0.00    +0.000 C 
ENDBRANCH   1   3
BRANCH   1   5
ATOM      5  C   UNL     1       3.253   4.472  18.688  0.00  0.00    +0.000 C 
ATOM      6  S   UNL     1       4.026   4.098  17.259  0.00  0.00    +0.000 S 
ATOM      7  S   UNL     1       2.927   6.009  19.309  0.00  0.00    +0.000 SA
ENDBRANCH   1   5
TORSDOF 2
ENDMDL
MODEL 7
REMARK VINA RESULT:      -3.2      2.018      2.730
REMARK  Name = 
REMARK  4 active torsions:
REMARK  status: ('A' for Active; 'I' for Inactive)
REMARK    1  A    between atoms: C_1  and  C_2
REMARK    2  A    between atoms: C_2  and  C_3
REMARK    3  A    between atoms: C_2  and  O_4
REMARK    4  A    between atoms: O_4  and  C_5
REMARK                            x       y       z     vdW  Elec       q    Type
REMARK                         _______ _______ _______ _____ _____    ______ ____
ROOT
ATOM      1  O   UNL     1       5.870   5.918  18.001  0.00  0.00    +0.000 OA
ENDROOT
BRANCH   1   3
ATOM      2  C   UNL     1       7.548   7.526  17.564  0.00  0.00    +0.000 C 
ATOM      3  C   UNL     1       7.297   6.066  17.949  0.00  0.00    +0.000 C 
ATOM      4  C   UNL     1       7.928   5.785  19.311  0.00  0.00    +0.000 C 
ENDBRANCH   1   3
BRANCH   1   5
ATOM      5  C   UNL     1       5.288   4.702  17.809  0.00  0.00    +0.000 C 
ATOM      6  S   UNL     1       4.589   3.811  19.033  0.00  0.00    +0.000 S 
ATOM      7  S   UNL     1       5.514   4.237  16.200  0.00  0.00    +0.000 SA
ENDBRANCH   1   5
TORSDOF 2
ENDMDL
MODEL 8
REMARK VINA RESULT:      -3.2      5.737      6.574
REMARK  Name = 
REMARK  4 active torsions:
REMARK  status: ('A' for Active; 'I' for Inactive)
REMARK    1  A    between atoms: C_1  and  C_2
REMARK    2  A    between atoms: C_2  and  C_3
REMARK    3  A    between atoms: C_2  and  O_4
REMARK    4  A    between atoms: O_4  and  C_5
REMARK                            x       y       z     vdW  Elec       q    Type
REMARK                         _______ _______ _______ _____ _____    ______ ____
ROOT
ATOM      1  O   UNL     1       2.782   3.543  19.402  0.00  0.00    +0.000 OA
ENDROOT
BRANCH   1   3
ATOM      2  C   UNL     1       0.784   2.400  18.863  0.00  0.00    +0.000 C 
ATOM      3  C   UNL     1       1.422   3.394  19.836  0.00  0.00    +0.000 C 
ATOM      4  C   UNL     1       1.356   2.829  21.254  0.00  0.00    +0.000 C 
ENDBRANCH   1   3
BRANCH   1   5
ATOM      5  C   UNL     1       3.183   4.662  18.737  0.00  0.00    +0.000 C 
ATOM      6  S   UNL     1       2.836   6.211  19.247  0.00  0.00    +0.000 S 
ATOM      7  S   UNL     1       3.949   4.200  17.304  0.00  0.00    +0.000 SA
ENDBRANCH   1   5
TORSDOF 2
ENDMDL
MODEL 9
REMARK VINA RESULT:      -3.2      1.280      1.831
REMARK  Name = 
REMARK  4 active torsions:
REMARK  status: ('A' for Active; 'I' for Inactive)
REMARK    1  A    between atoms: C_1  and  C_2
REMARK    2  A    between atoms: C_2  and  C_3
REMARK    3  A    between atoms: C_2  and  O_4
REMARK    4  A    between atoms: O_4  and  C_5
REMARK                            x       y       z     vdW  Elec       q    Type
REMARK                         _______ _______ _______ _____ _____    ______ ____
ROOT
ATOM      1  O   UNL     1       6.088   5.838  17.469  0.00  0.00    +0.000 OA
ENDROOT
BRANCH   1   3
ATOM      2  C   UNL     1       7.607   7.643  17.630  0.00  0.00    +0.000 C 
ATOM      3  C   UNL     1       7.443   6.136  17.839  0.00  0.00    +0.000 C 
ATOM      4  C   UNL     1       7.699   5.796  19.306  0.00  0.00    +0.000 C 
ENDBRANCH   1   3
BRANCH   1   5
ATOM      5  C   UNL     1       5.812   4.863  16.559  0.00  0.00    +0.000 C 
ATOM      6  S   UNL     1       6.713   4.607  15.180  0.00  0.00    +0.000 S 
ATOM      7  S   UNL     1       4.381   4.086  17.010  0.00  0.00    +0.000 SA
ENDBRANCH   1   5
TORSDOF 2
ENDMDL
