MODEL 1
REMARK VINA RESULT:      -6.9      0.000      0.000
REMARK  Name = 
REMARK  7 active torsions:
REMARK  status: ('A' for Active; 'I' for Inactive)
REMARK    1  A    between atoms: C_1  and  O_2
REMARK    2  A    between atoms: O_2  and  C_3
REMARK    3  A    between atoms: C_8  and  O_9
REMARK    4  A    between atoms: O_9  and  C_10
REMARK    5  A    between atoms: C_14  and  C_15
REMARK    6  A    between atoms: C_18  and  C_19
REMARK    7  A    between atoms: C_19  and  N_20
REMARK                            x       y       z     vdW  Elec       q    Type
REMARK                         _______ _______ _______ _____ _____    ______ ____
ROOT
ATOM      1  C   UNL     1      -3.530  11.207  16.874  0.00  0.00    +0.000 A 
ATOM      2  C   UNL     1      -2.193  11.619  16.896  0.00  0.00    +0.000 A 
ATOM      3  C   UNL     1      -1.585  11.951  18.098  0.00  0.00    +0.000 A 
ATOM      4  C   UNL     1      -2.322  11.924  19.279  0.00  0.00    +0.000 A 
ATOM      5  C   UNL     1      -3.673  11.565  19.268  0.00  0.00    +0.000 A 
ATOM      6  C   UNL     1      -4.288  11.204  18.065  0.00  0.00    +0.000 A 
ATOM      7  C   UNL     1      -1.656  12.321  20.533  0.00  0.00    +0.000 C 
ATOM      8  O   UNL     1      -2.265  12.337  21.597  0.00  0.00    +0.000 OA
ATOM      9  C   UNL     1      -0.228  12.774  20.420  0.00  0.00    +0.000 C 
ATOM     10  C   UNL     1       0.456  12.057  19.261  0.00  0.00    +0.000 C 
ATOM     11  O   UNL     1      -0.265  12.297  18.035  0.00  0.00    +0.000 OA
ENDROOT
BRANCH  10  12
ATOM     12  C   UNL     1       0.811  10.578  19.401  0.00  0.00    +0.000 A 
ATOM     13  C   UNL     1       0.727   9.864  20.605  0.00  0.00    +0.000 A 
ATOM     14  C   UNL     1       1.201   8.544  20.695  0.00  0.00    +0.000 A 
ATOM     15  C   UNL     1       1.775   7.906  19.587  0.00  0.00    +0.000 A 
ATOM     16  C   UNL     1       1.802   8.597  18.370  0.00  0.00    +0.000 A 
ATOM     17  C   UNL     1       1.334   9.911  18.280  0.00  0.00    +0.000 A 
BRANCH  15  18
ATOM     18  C   UNL     1       2.465   6.562  19.709  0.00  0.00    +0.000 C 
BRANCH  18  19
ATOM     19  N   UNL     1       2.361   5.591  18.619  0.00  0.00    +0.000 NA
ATOM     20  C   UNL     1       1.810   4.285  18.962  0.00  0.00    +0.000 C 
ATOM     21  C   UNL     1       3.018   3.387  19.145  0.00  0.00    +0.000 C 
ATOM     22  C   UNL     1       4.029   3.931  18.153  0.00  0.00    +0.000 C 
ATOM     23  C   UNL     1       3.590   5.361  17.864  0.00  0.00    +0.000 C 
ENDBRANCH  18  19
ENDBRANCH  15  18
ENDBRANCH  10  12
BRANCH   1  25
ATOM     24  C   UNL     1      -3.299  10.295  14.710  0.00  0.00    +0.000 C 
ATOM     25  O   UNL     1      -4.163  10.816  15.718  0.00  0.00    +0.000 OA
ENDBRANCH   1  25
BRANCH   6  26
ATOM     26  O   UNL     1      -5.603  10.832  17.952  0.00  0.00    +0.000 OA
ATOM     27  C   UNL     1      -6.588  11.844  18.120  0.00  0.00    +0.000 C 
ENDBRANCH   6  26
TORSDOF 5
ENDMDL
MODEL 2
REMARK VINA RESULT:      -6.8      2.481      5.177
REMARK  Name = 
REMARK  7 active torsions:
REMARK  status: ('A' for Active; 'I' for Inactive)
REMARK    1  A    between atoms: C_1  and  O_2
REMARK    2  A    between atoms: O_2  and  C_3
REMARK    3  A    between atoms: C_8  and  O_9
REMARK    4  A    between atoms: O_9  and  C_10
REMARK    5  A    between atoms: C_14  and  C_15
REMARK    6  A    between atoms: C_18  and  C_19
REMARK    7  A    between atoms: C_19  and  N_20
REMARK                            x       y       z     vdW  Elec       q    Type
REMARK                         _______ _______ _______ _____ _____    ______ ____
ROOT
ATOM      1  C   UNL     1       2.843  14.230  20.098  0.00  0.00    +0.000 A 
ATOM      2  C   UNL     1       2.247  13.247  20.897  0.00  0.00    +0.000 A 
ATOM      3  C   UNL     1       1.114  12.581  20.453  0.00  0.00    +0.000 A 
ATOM      4  C   UNL     1       0.539  12.925  19.234  0.00  0.00    +0.000 A 
ATOM      5  C   UNL     1       1.091  13.940  18.447  0.00  0.00    +0.000 A 
ATOM      6  C   UNL     1       2.247  14.601  18.874  0.00  0.00    +0.000 A 
ATOM      7  C   UNL     1      -0.688  12.224  18.812  0.00  0.00    +0.000 C 
ATOM      8  O   UNL     1      -1.248  12.505  17.757  0.00  0.00    +0.000 OA
ATOM      9  C   UNL     1      -1.247  11.213  19.772  0.00  0.00    +0.000 C 
ATOM     10  C   UNL     1      -0.119  10.583  20.580  0.00  0.00    +0.000 C 
ATOM     11  O   UNL     1       0.625  11.604  21.274  0.00  0.00    +0.000 OA
ENDROOT
BRANCH  10  12
ATOM     12  C   UNL     1       0.825   9.591  19.901  0.00  0.00    +0.000 A 
ATOM     13  C   UNL     1       1.165   9.641  18.542  0.00  0.00    +0.000 A 
ATOM     14  C   UNL     1       1.927   8.617  17.951  0.00  0.00    +0.000 A 
ATOM     15  C   UNL     1       2.363   7.518  18.702  0.00  0.00    +0.000 A 
ATOM     16  C   UNL     1       2.076   7.500  20.072  0.00  0.00    +0.000 A 
ATOM     17  C   UNL     1       1.316   8.515  20.659  0.00  0.00    +0.000 A 
BRANCH  15  18
ATOM     18  C   UNL     1       3.016   6.315  18.050  0.00  0.00    +0.000 C 
BRANCH  18  19
ATOM     19  N   UNL     1       2.849   4.988  18.644  0.00  0.00    +0.000 NA
ATOM     20  C   UNL     1       4.034   4.140  18.684  0.00  0.00    +0.000 C 
ATOM     21  C   UNL     1       3.893   3.213  17.494  0.00  0.00    +0.000 C 
ATOM     22  C   UNL     1       2.394   3.008  17.368  0.00  0.00    +0.000 C 
ATOM     23  C   UNL     1       1.758   4.187  18.094  0.00  0.00    +0.000 C 
ENDBRANCH  18  19
ENDBRANCH  15  18
ENDBRANCH  10  12
BRANCH   1  25
ATOM     24  C   UNL     1       4.579  14.422  21.683  0.00  0.00    +0.000 C 
ATOM     25  O   UNL     1       3.996  14.881  20.466  0.00  0.00    +0.000 OA
ENDBRANCH   1  25
BRANCH   6  26
ATOM     26  O   UNL     1       2.866  15.603  18.171  0.00  0.00    +0.000 OA
ATOM     27  C   UNL     1       2.236  16.878  18.154  0.00  0.00    +0.000 C 
ENDBRANCH   6  26
TORSDOF 5
ENDMDL
MODEL 3
REMARK VINA RESULT:      -6.8      7.484      9.982
REMARK  Name = 
REMARK  7 active torsions:
REMARK  status: ('A' for Active; 'I' for Inactive)
REMARK    1  A    between atoms: C_1  and  O_2
REMARK    2  A    between atoms: O_2  and  C_3
REMARK    3  A    between atoms: C_8  and  O_9
REMARK    4  A    between atoms: O_9  and  C_10
REMARK    5  A    between atoms: C_14  and  C_15
REMARK    6  A    between atoms: C_18  and  C_19
REMARK    7  A    between atoms: C_19  and  N_20
REMARK                            x       y       z     vdW  Elec       q    Type
REMARK                         _______ _______ _______ _____ _____    ______ ____
ROOT
ATOM      1  C   UNL     1       3.386   4.162  19.763  0.00  0.00    +0.000 A 
ATOM      2  C   UNL     1       4.777   4.012  19.715  0.00  0.00    +0.000 A 
ATOM      3  C   UNL     1       5.448   4.113  18.505  0.00  0.00    +0.000 A 
ATOM      4  C   UNL     1       4.731   4.313  17.328  0.00  0.00    +0.000 A 
ATOM      5  C   UNL     1       3.337   4.414  17.352  0.00  0.00    +0.000 A 
ATOM      6  C   UNL     1       2.654   4.338  18.570  0.00  0.00    +0.000 A 
ATOM      7  C   UNL     1       5.472   4.376  16.055  0.00  0.00    +0.000 C 
ATOM      8  O   UNL     1       4.886   4.528  14.988  0.00  0.00    +0.000 OA
ATOM      9  C   UNL     1       6.958   4.169  16.132  0.00  0.00    +0.000 C 
ATOM     10  C   UNL     1       7.485   4.671  17.472  0.00  0.00    +0.000 C 
ATOM     11  O   UNL     1       6.809   4.001  18.554  0.00  0.00    +0.000 OA
ENDROOT
BRANCH  10  12
ATOM     12  C   UNL     1       7.562   6.176  17.729  0.00  0.00    +0.000 A 
ATOM     13  C   UNL     1       6.971   7.141  16.902  0.00  0.00    +0.000 A 
ATOM     14  C   UNL     1       7.198   8.512  17.118  0.00  0.00    +0.000 A 
ATOM     15  C   UNL     1       8.023   8.951  18.161  0.00  0.00    +0.000 A 
ATOM     16  C   UNL     1       8.563   7.989  19.023  0.00  0.00    +0.000 A 
ATOM     17  C   UNL     1       8.340   6.627  18.807  0.00  0.00    +0.000 A 
BRANCH  15  18
ATOM     18  C   UNL     1       8.436  10.404  18.295  0.00  0.00    +0.000 C 
BRANCH  18  19
ATOM     19  N   UNL     1       9.704  10.741  18.942  0.00  0.00    +0.000 NA
ATOM     20  C   UNL     1       9.622  11.269  20.298  0.00  0.00    +0.000 C 
ATOM     21  C   UNL     1       9.733  12.773  20.140  0.00  0.00    +0.000 C 
ATOM     22  C   UNL     1      10.650  12.945  18.943  0.00  0.00    +0.000 C 
ATOM     23  C   UNL     1      10.579  11.629  18.180  0.00  0.00    +0.000 C 
ENDBRANCH  18  19
ENDBRANCH  15  18
ENDBRANCH  10  12
BRANCH   1  25
ATOM     24  C   UNL     1       2.561   2.830  21.527  0.00  0.00    +0.000 C 
ATOM     25  O   UNL     1       2.681   4.124  20.942  0.00  0.00    +0.000 OA
ENDBRANCH   1  25
BRANCH   6  26
ATOM     26  O   UNL     1       1.291   4.431  18.697  0.00  0.00    +0.000 OA
ATOM     27  C   UNL     1       0.537   3.232  18.567  0.00  0.00    +0.000 C 
ENDBRANCH   6  26
TORSDOF 5
ENDMDL
MODEL 4
REMARK VINA RESULT:      -6.7      2.629      5.326
REMARK  Name = 
REMARK  7 active torsions:
REMARK  status: ('A' for Active; 'I' for Inactive)
REMARK    1  A    between atoms: C_1  and  O_2
REMARK    2  A    between atoms: O_2  and  C_3
REMARK    3  A    between atoms: C_8  and  O_9
REMARK    4  A    between atoms: O_9  and  C_10
REMARK    5  A    between atoms: C_14  and  C_15
REMARK    6  A    between atoms: C_18  and  C_19
REMARK    7  A    between atoms: C_19  and  N_20
REMARK                            x       y       z     vdW  Elec       q    Type
REMARK                         _______ _______ _______ _____ _____    ______ ____
ROOT
ATOM      1  C   UNL     1       2.927  14.122  20.072  0.00  0.00    +0.000 A 
ATOM      2  C   UNL     1       2.361  13.125  20.875  0.00  0.00    +0.000 A 
ATOM      3  C   UNL     1       1.218  12.459  20.456  0.00  0.00    +0.000 A 
ATOM      4  C   UNL     1       0.603  12.820  19.260  0.00  0.00    +0.000 A 
ATOM      5  C   UNL     1       1.126  13.849  18.472  0.00  0.00    +0.000 A 
ATOM      6  C   UNL     1       2.293  14.508  18.873  0.00  0.00    +0.000 A 
ATOM      7  C   UNL     1      -0.633  12.119  18.866  0.00  0.00    +0.000 C 
ATOM      8  O   UNL     1      -1.226  12.414  17.834  0.00  0.00    +0.000 OA
ATOM      9  C   UNL     1      -1.158  11.091  19.828  0.00  0.00    +0.000 C 
ATOM     10  C   UNL     1      -0.002  10.454  20.591  0.00  0.00    +0.000 C 
ATOM     11  O   UNL     1       0.759  11.468  21.277  0.00  0.00    +0.000 OA
ENDROOT
BRANCH  10  12
ATOM     12  C   UNL     1       0.924   9.477  19.868  0.00  0.00    +0.000 A 
ATOM     13  C   UNL     1       1.220   9.548  18.499  0.00  0.00    +0.000 A 
ATOM     14  C   UNL     1       1.968   8.537  17.869  0.00  0.00    +0.000 A 
ATOM     15  C   UNL     1       2.434   7.430  18.590  0.00  0.00    +0.000 A 
ATOM     16  C   UNL     1       2.191   7.391  19.968  0.00  0.00    +0.000 A 
ATOM     17  C   UNL     1       1.445   8.393  20.594  0.00  0.00    +0.000 A 
BRANCH  15  18
ATOM     18  C   UNL     1       3.071   6.239  17.900  0.00  0.00    +0.000 C 
BRANCH  18  19
ATOM     19  N   UNL     1       4.527   6.165  17.778  0.00  0.00    +0.000 NA
ATOM     20  C   UNL     1       5.100   6.662  16.532  0.00  0.00    +0.000 C 
ATOM     21  C   UNL     1       5.341   5.425  15.691  0.00  0.00    +0.000 C 
ATOM     22  C   UNL     1       5.680   4.352  16.711  0.00  0.00    +0.000 C 
ATOM     23  C   UNL     1       5.111   4.851  18.033  0.00  0.00    +0.000 C 
ENDBRANCH  18  19
ENDBRANCH  15  18
ENDBRANCH  10  12
BRANCH   1  25
ATOM     24  C   UNL     1       4.600  14.446  21.705  0.00  0.00    +0.000 C 
ATOM     25  O   UNL     1       4.089  14.773  20.415  0.00  0.00    +0.000 OA
ENDBRANCH   1  25
BRANCH   6  26
ATOM     26  O   UNL     1       2.885  15.524  18.167  0.00  0.00    +0.000 OA
ATOM     27  C   UNL     1       2.229  16.786  18.157  0.00  0.00    +0.000 C 
ENDBRANCH   6  26
TORSDOF 5
ENDMDL
MODEL 5
REMARK VINA RESULT:      -6.5      2.579      5.312
REMARK  Name = 
REMARK  7 active torsions:
REMARK  status: ('A' for Active; 'I' for Inactive)
REMARK    1  A    between atoms: C_1  and  O_2
REMARK    2  A    between atoms: O_2  and  C_3
REMARK    3  A    between atoms: C_8  and  O_9
REMARK    4  A    between atoms: O_9  and  C_10
REMARK    5  A    between atoms: C_14  and  C_15
REMARK    6  A    between atoms: C_18  and  C_19
REMARK    7  A    between atoms: C_19  and  N_20
REMARK                            x       y       z     vdW  Elec       q    Type
REMARK                         _______ _______ _______ _____ _____    ______ ____
ROOT
ATOM      1  C   UNL     1       3.173  14.243  20.156  0.00  0.00    +0.000 A 
ATOM      2  C   UNL     1       2.410  13.462  21.032  0.00  0.00    +0.000 A 
ATOM      3  C   UNL     1       1.252  12.842  20.584  0.00  0.00    +0.000 A 
ATOM      4  C   UNL     1       0.820  13.040  19.275  0.00  0.00    +0.000 A 
ATOM      5  C   UNL     1       1.542  13.859  18.403  0.00  0.00    +0.000 A 
ATOM      6  C   UNL     1       2.724  14.468  18.837  0.00  0.00    +0.000 A 
ATOM      7  C   UNL     1      -0.436  12.399  18.844  0.00  0.00    +0.000 C 
ATOM      8  O   UNL     1      -0.872  12.559  17.710  0.00  0.00    +0.000 OA
ATOM      9  C   UNL     1      -1.179  11.611  19.886  0.00  0.00    +0.000 C 
ATOM     10  C   UNL     1      -0.196  11.015  20.888  0.00  0.00    +0.000 C 
ATOM     11  O   UNL     1       0.593  12.060  21.490  0.00  0.00    +0.000 OA
ENDROOT
BRANCH  10  12
ATOM     12  C   UNL     1       0.687   9.844  20.463  0.00  0.00    +0.000 A 
ATOM     13  C   UNL     1       1.106   9.618  19.144  0.00  0.00    +0.000 A 
ATOM     14  C   UNL     1       1.801   8.446  18.798  0.00  0.00    +0.000 A 
ATOM     15  C   UNL     1       2.091   7.470  19.759  0.00  0.00    +0.000 A 
ATOM     16  C   UNL     1       1.728   7.724  21.088  0.00  0.00    +0.000 A 
ATOM     17  C   UNL     1       1.034   8.887  21.431  0.00  0.00    +0.000 A 
BRANCH  15  18
ATOM     18  C   UNL     1       2.664   6.118  19.378  0.00  0.00    +0.000 C 
BRANCH  18  19
ATOM     19  N   UNL     1       2.561   5.650  17.996  0.00  0.00    +0.000 NA
ATOM     20  C   UNL     1       1.572   4.611  17.734  0.00  0.00    +0.000 C 
ATOM     21  C   UNL     1       2.358   3.316  17.720  0.00  0.00    +0.000 C 
ATOM     22  C   UNL     1       3.710   3.718  17.158  0.00  0.00    +0.000 C 
ATOM     23  C   UNL     1       3.816   5.221  17.384  0.00  0.00    +0.000 C 
ENDBRANCH  18  19
ENDBRANCH  15  18
ENDBRANCH  10  12
BRANCH   1  25
ATOM     24  C   UNL     1       4.893  14.360  21.766  0.00  0.00    +0.000 C 
ATOM     25  O   UNL     1       4.355  14.834  20.534  0.00  0.00    +0.000 OA
ENDBRANCH   1  25
BRANCH   6  26
ATOM     26  O   UNL     1       3.505  15.282  18.056  0.00  0.00    +0.000 OA
ATOM     27  C   UNL     1       2.934  16.507  17.611  0.00  0.00    +0.000 C 
ENDBRANCH   6  26
TORSDOF 5
ENDMDL
MODEL 6
REMARK VINA RESULT:      -6.4      4.475      9.373
REMARK  Name = 
REMARK  7 active torsions:
REMARK  status: ('A' for Active; 'I' for Inactive)
REMARK    1  A    between atoms: C_1  and  O_2
REMARK    2  A    between atoms: O_2  and  C_3
REMARK    3  A    between atoms: C_8  and  O_9
REMARK    4  A    between atoms: O_9  and  C_10
REMARK    5  A    between atoms: C_14  and  C_15
REMARK    6  A    between atoms: C_18  and  C_19
REMARK    7  A    between atoms: C_19  and  N_20
REMARK                            x       y       z     vdW  Elec       q    Type
REMARK                         _______ _______ _______ _____ _____    ______ ____
ROOT
ATOM      1  C   UNL     1       6.599   6.056  17.535  0.00  0.00    +0.000 A 
ATOM      2  C   UNL     1       5.283   6.185  17.075  0.00  0.00    +0.000 A 
ATOM      3  C   UNL     1       4.265   5.451  17.667  0.00  0.00    +0.000 A 
ATOM      4  C   UNL     1       4.560   4.548  18.684  0.00  0.00    +0.000 A 
ATOM      5  C   UNL     1       5.876   4.370  19.119  0.00  0.00    +0.000 A 
ATOM      6  C   UNL     1       6.906   5.123  18.547  0.00  0.00    +0.000 A 
ATOM      7  C   UNL     1       3.459   3.756  19.263  0.00  0.00    +0.000 C 
ATOM      8  O   UNL     1       3.668   2.930  20.145  0.00  0.00    +0.000 OA
ATOM      9  C   UNL     1       2.097   3.961  18.662  0.00  0.00    +0.000 C 
ATOM     10  C   UNL     1       1.964   5.390  18.149  0.00  0.00    +0.000 C 
ATOM     11  O   UNL     1       3.003   5.672  17.190  0.00  0.00    +0.000 OA
ENDROOT
BRANCH  10  12
ATOM     12  C   UNL     1       1.826   6.536  19.150  0.00  0.00    +0.000 A 
ATOM     13  C   UNL     1       1.577   6.353  20.518  0.00  0.00    +0.000 A 
ATOM     14  C   UNL     1       1.322   7.451  21.358  0.00  0.00    +0.000 A 
ATOM     15  C   UNL     1       1.305   8.757  20.852  0.00  0.00    +0.000 A 
ATOM     16  C   UNL     1       1.615   8.944  19.499  0.00  0.00    +0.000 A 
ATOM     17  C   UNL     1       1.865   7.853  18.664  0.00  0.00    +0.000 A 
BRANCH  15  18
ATOM     18  C   UNL     1       0.845   9.933  21.692  0.00  0.00    +0.000 C 
BRANCH  18  19
ATOM     19  N   UNL     1      -0.569  10.310  21.701  0.00  0.00    +0.000 NA
ATOM     20  C   UNL     1      -1.007  11.217  20.647  0.00  0.00    +0.000 C 
ATOM     21  C   UNL     1      -1.023  12.588  21.292  0.00  0.00    +0.000 C 
ATOM     22  C   UNL     1      -1.405  12.307  22.734  0.00  0.00    +0.000 C 
ATOM     23  C   UNL     1      -1.067  10.840  22.968  0.00  0.00    +0.000 C 
ENDBRANCH  18  19
ENDBRANCH  15  18
ENDBRANCH  10  12
BRANCH   1  25
ATOM     24  C   UNL     1       7.776   8.101  17.584  0.00  0.00    +0.000 C 
ATOM     25  O   UNL     1       7.635   6.799  17.020  0.00  0.00    +0.000 OA
ENDBRANCH   1  25
BRANCH   6  26
ATOM     26  O   UNL     1       8.226   5.025  18.909  0.00  0.00    +0.000 OA
ATOM     27  C   UNL     1       8.567   5.374  20.245  0.00  0.00    +0.000 C 
ENDBRANCH   6  26
TORSDOF 5
ENDMDL
MODEL 7
REMARK VINA RESULT:      -6.4      5.310      9.999
REMARK  Name = 
REMARK  7 active torsions:
REMARK  status: ('A' for Active; 'I' for Inactive)
REMARK    1  A    between atoms: C_1  and  O_2
REMARK    2  A    between atoms: O_2  and  C_3
REMARK    3  A    between atoms: C_8  and  O_9
REMARK    4  A    between atoms: O_9  and  C_10
REMARK    5  A    between atoms: C_14  and  C_15
REMARK    6  A    between atoms: C_18  and  C_19
REMARK    7  A    between atoms: C_19  and  N_20
REMARK                            x       y       z     vdW  Elec       q    Type
REMARK                         _______ _______ _______ _____ _____    ______ ____
ROOT
ATOM      1  C   UNL     1       5.800   3.935  13.533  0.00  0.00    +0.000 A 
ATOM      2  C   UNL     1       5.047   3.516  14.636  0.00  0.00    +0.000 A 
ATOM      3  C   UNL     1       5.418   3.898  15.917  0.00  0.00    +0.000 A 
ATOM      4  C   UNL     1       6.570   4.655  16.111  0.00  0.00    +0.000 A 
ATOM      5  C   UNL     1       7.361   5.038  15.025  0.00  0.00    +0.000 A 
ATOM      6  C   UNL     1       6.983   4.680  13.727  0.00  0.00    +0.000 A 
ATOM      7  C   UNL     1       6.955   5.009  17.490  0.00  0.00    +0.000 C 
ATOM      8  O   UNL     1       7.973   5.655  17.717  0.00  0.00    +0.000 OA
ATOM      9  C   UNL     1       6.083   4.473  18.589  0.00  0.00    +0.000 C 
ATOM     10  C   UNL     1       4.647   4.336  18.095  0.00  0.00    +0.000 C 
ATOM     11  O   UNL     1       4.601   3.485  16.933  0.00  0.00    +0.000 OA
ENDROOT
BRANCH  10  12
ATOM     12  C   UNL     1       3.807   5.594  17.880  0.00  0.00    +0.000 A 
ATOM     13  C   UNL     1       4.345   6.848  17.555  0.00  0.00    +0.000 A 
ATOM     14  C   UNL     1       3.530   7.992  17.509  0.00  0.00    +0.000 A 
ATOM     15  C   UNL     1       2.160   7.914  17.790  0.00  0.00    +0.000 A 
ATOM     16  C   UNL     1       1.612   6.653  18.054  0.00  0.00    +0.000 A 
ATOM     17  C   UNL     1       2.422   5.515  18.104  0.00  0.00    +0.000 A 
BRANCH  15  18
ATOM     18  C   UNL     1       1.302   9.156  17.936  0.00  0.00    +0.000 C 
BRANCH  18  19
ATOM     19  N   UNL     1       1.420   9.983  19.137  0.00  0.00    +0.000 NA
ATOM     20  C   UNL     1       0.937   9.395  20.381  0.00  0.00    +0.000 C 
ATOM     21  C   UNL     1      -0.451   9.971  20.574  0.00  0.00    +0.000 C 
ATOM     22  C   UNL     1      -0.352  11.364  19.979  0.00  0.00    +0.000 C 
ATOM     23  C   UNL     1       0.844  11.321  19.035  0.00  0.00    +0.000 C 
ENDBRANCH  18  19
ENDBRANCH  15  18
ENDBRANCH  10  12
BRANCH   1  25
ATOM     24  C   UNL     1       5.789   2.312  11.820  0.00  0.00    +0.000 C 
ATOM     25  O   UNL     1       5.446   3.630  12.240  0.00  0.00    +0.000 OA
ENDBRANCH   1  25
BRANCH   6  26
ATOM     26  O   UNL     1       7.689   5.012  12.598  0.00  0.00    +0.000 OA
ATOM     27  C   UNL     1       8.719   5.984  12.732  0.00  0.00    +0.000 C 
ENDBRANCH   6  26
TORSDOF 5
ENDMDL
MODEL 8
REMARK VINA RESULT:      -6.4      3.761      6.683
REMARK  Name = 
REMARK  7 active torsions:
REMARK  status: ('A' for Active; 'I' for Inactive)
REMARK    1  A    between atoms: C_1  and  O_2
REMARK    2  A    between atoms: O_2  and  C_3
REMARK    3  A    between atoms: C_8  and  O_9
REMARK    4  A    between atoms: O_9  and  C_10
REMARK    5  A    between atoms: C_14  and  C_15
REMARK    6  A    between atoms: C_18  and  C_19
REMARK    7  A    between atoms: C_19  and  N_20
REMARK                            x       y       z     vdW  Elec       q    Type
REMARK                         _______ _______ _______ _____ _____    ______ ____
ROOT
ATOM      1  C   UNL     1      -3.548  11.504  17.772  0.00  0.00    +0.000 A 
ATOM      2  C   UNL     1      -2.871  11.801  18.960  0.00  0.00    +0.000 A 
ATOM      3  C   UNL     1      -1.599  11.293  19.182  0.00  0.00    +0.000 A 
ATOM      4  C   UNL     1      -1.016  10.445  18.244  0.00  0.00    +0.000 A 
ATOM      5  C   UNL     1      -1.699  10.097  17.076  0.00  0.00    +0.000 A 
ATOM      6  C   UNL     1      -2.972  10.624  16.831  0.00  0.00    +0.000 A 
ATOM      7  C   UNL     1       0.321   9.892  18.531  0.00  0.00    +0.000 C 
ATOM      8  O   UNL     1       0.869   9.123  17.750  0.00  0.00    +0.000 OA
ATOM      9  C   UNL     1       0.929  10.260  19.855  0.00  0.00    +0.000 C 
ATOM     10  C   UNL     1       0.450  11.642  20.283  0.00  0.00    +0.000 C 
ATOM     11  O   UNL     1      -0.990  11.670  20.346  0.00  0.00    +0.000 OA
ENDROOT
BRANCH  10  12
ATOM     12  C   UNL     1       0.985  12.877  19.559  0.00  0.00    +0.000 A 
ATOM     13  C   UNL     1       2.109  12.867  18.722  0.00  0.00    +0.000 A 
ATOM     14  C   UNL     1       2.630  14.063  18.199  0.00  0.00    +0.000 A 
ATOM     15  C   UNL     1       2.044  15.299  18.503  0.00  0.00    +0.000 A 
ATOM     16  C   UNL     1       0.885  15.303  19.289  0.00  0.00    +0.000 A 
ATOM     17  C   UNL     1       0.369  14.114  19.811  0.00  0.00    +0.000 A 
BRANCH  15  18
ATOM     18  C   UNL     1       2.697  16.610  18.113  0.00  0.00    +0.000 C 
BRANCH  18  19
ATOM     19  N   UNL     1       3.724  17.196  18.976  0.00  0.00    +0.000 NA
ATOM     20  C   UNL     1       5.098  16.777  18.727  0.00  0.00    +0.000 C 
ATOM     21  C   UNL     1       5.374  15.703  19.760  0.00  0.00    +0.000 C 
ATOM     22  C   UNL     1       4.553  16.136  20.961  0.00  0.00    +0.000 C 
ATOM     23  C   UNL     1       3.482  17.069  20.410  0.00  0.00    +0.000 C 
ENDBRANCH  18  19
ENDBRANCH  15  18
ENDBRANCH  10  12
BRANCH   1  25
ATOM     24  C   UNL     1      -5.565  12.393  18.616  0.00  0.00    +0.000 C 
ATOM     25  O   UNL     1      -4.786  12.025  17.479  0.00  0.00    +0.000 OA
ENDBRANCH   1  25
BRANCH   6  26
ATOM     26  O   UNL     1      -3.719  10.348  15.714  0.00  0.00    +0.000 OA
ATOM     27  C   UNL     1      -3.017  10.082  14.506  0.00  0.00    +0.000 C 
ENDBRANCH   6  26
TORSDOF 5
ENDMDL
MODEL 9
REMARK VINA RESULT:      -6.3      0.722      1.343
REMARK  Name = 
REMARK  7 active torsions:
REMARK  status: ('A' for Active; 'I' for Inactive)
REMARK    1  A    between atoms: C_1  and  O_2
REMARK    2  A    between atoms: O_2  and  C_3
REMARK    3  A    between atoms: C_8  and  O_9
REMARK    4  A    between atoms: O_9  and  C_10
REMARK    5  A    between atoms: C_14  and  C_15
REMARK    6  A    between atoms: C_18  and  C_19
REMARK    7  A    between atoms: C_19  and  N_20
REMARK                            x       y       z     vdW  Elec       q    Type
REMARK                         _______ _______ _______ _____ _____    ______ ____
ROOT
ATOM      1  C   UNL     1      -3.411  11.197  16.987  0.00  0.00    +0.000 A 
ATOM      2  C   UNL     1      -2.113  11.717  17.032  0.00  0.00    +0.000 A 
ATOM      3  C   UNL     1      -1.579  12.155  18.236  0.00  0.00    +0.000 A 
ATOM      4  C   UNL     1      -2.356  12.126  19.391  0.00  0.00    +0.000 A 
ATOM      5  C   UNL     1      -3.672  11.658  19.353  0.00  0.00    +0.000 A 
ATOM      6  C   UNL     1      -4.211  11.191  18.150  0.00  0.00    +0.000 A 
ATOM      7  C   UNL     1      -1.771  12.637  20.645  0.00  0.00    +0.000 C 
ATOM      8  O   UNL     1      -2.420  12.655  21.685  0.00  0.00    +0.000 OA
ATOM      9  C   UNL     1      -0.380  13.198  20.557  0.00  0.00    +0.000 C 
ATOM     10  C   UNL     1       0.401  12.484  19.460  0.00  0.00    +0.000 C 
ATOM     11  O   UNL     1      -0.289  12.604  18.200  0.00  0.00    +0.000 OA
ENDROOT
BRANCH  10  12
ATOM     12  C   UNL     1       0.868  11.047  19.688  0.00  0.00    +0.000 A 
ATOM     13  C   UNL     1       1.299  10.193  18.663  0.00  0.00    +0.000 A 
ATOM     14  C   UNL     1       1.581   8.840  18.922  0.00  0.00    +0.000 A 
ATOM     15  C   UNL     1       1.437   8.307  20.209  0.00  0.00    +0.000 A 
ATOM     16  C   UNL     1       1.066   9.174  21.244  0.00  0.00    +0.000 A 
ATOM     17  C   UNL     1       0.782  10.518  20.986  0.00  0.00    +0.000 A 
BRANCH  15  18
ATOM     18  C   UNL     1       1.548   6.818  20.474  0.00  0.00    +0.000 C 
BRANCH  18  19
ATOM     19  N   UNL     1       2.583   6.035  19.798  0.00  0.00    +0.000 NA
ATOM     20  C   UNL     1       2.467   5.919  18.349  0.00  0.00    +0.000 C 
ATOM     21  C   UNL     1       1.820   4.569  18.115  0.00  0.00    +0.000 C 
ATOM     22  C   UNL     1       2.347   3.712  19.252  0.00  0.00    +0.000 C 
ATOM     23  C   UNL     1       2.798   4.691  20.328  0.00  0.00    +0.000 C 
ENDBRANCH  18  19
ENDBRANCH  15  18
ENDBRANCH  10  12
BRANCH   1  25
ATOM     24  C   UNL     1      -3.027  10.356  14.816  0.00  0.00    +0.000 C 
ATOM     25  O   UNL     1      -3.967  10.700  15.832  0.00  0.00    +0.000 OA
ENDBRANCH   1  25
BRANCH   6  26
ATOM     26  O   UNL     1      -5.487  10.707  18.012  0.00  0.00    +0.000 OA
ATOM     27  C   UNL     1      -6.557  11.638  18.128  0.00  0.00    +0.000 C 
ENDBRANCH   6  26
TORSDOF 5
ENDMDL
