MODEL 1
REMARK VINA RESULT:      -8.7      0.000      0.000
REMARK  Name = 
REMARK  6 active torsions:
REMARK  status: ('A' for Active; 'I' for Inactive)
REMARK    1  A    between atoms: C_2  and  C_3
REMARK    2  A    between atoms: C_8  and  O_9
REMARK    3  A    between atoms: O_9  and  C_10
REMARK    4  A    between atoms: N_14  and  C_15
REMARK    5  A    between atoms: C_29  and  O_30
REMARK    6  A    between atoms: O_30  and  C_31
REMARK                            x       y       z     vdW  Elec       q    Type
REMARK                         _______ _______ _______ _____ _____    ______ ____
ROOT
ATOM      1  C   UNL     1       2.507   7.137  18.577  0.00  0.00    +0.000 A 
ATOM      2  C   UNL     1       2.009   8.451  18.559  0.00  0.00    +0.000 A 
ATOM      3  C   UNL     1       1.321   9.022  19.660  0.00  0.00    +0.000 A 
ATOM      4  C   UNL     1       0.809  10.329  19.686  0.00  0.00    +0.000 A 
ATOM      5  N   UNL     1       0.902  11.122  18.521  0.00  0.00    +0.000 N 
ATOM      6  N   UNL     1       0.216  10.849  20.773  0.00  0.00    +0.000 NA
ATOM      7  C   UNL     1       0.113  10.041  21.832  0.00  0.00    +0.000 A 
ATOM      8  N   UNL     1       0.561   8.783  21.913  0.00  0.00    +0.000 NA
ATOM      9  C   UNL     1       1.173   8.287  20.832  0.00  0.00    +0.000 A 
ATOM     10  C   UNL     1       1.701   7.004  20.866  0.00  0.00    +0.000 A 
ATOM     11  C   UNL     1       2.357   6.414  19.768  0.00  0.00    +0.000 A 
ATOM     12  H   UNL     1       0.308  10.758  17.778  0.00  0.00    +0.000 HD
ENDROOT
BRANCH   5  13
ATOM     13  C   UNL     1       1.096  12.516  18.439  0.00  0.00    +0.000 A 
ATOM     14  C   UNL     1       0.072  13.419  18.762  0.00  0.00    +0.000 A 
ATOM     15  C   UNL     1       0.329  14.787  18.861  0.00  0.00    +0.000 A 
ATOM     16  C   UNL     1       1.614  15.266  18.633  0.00  0.00    +0.000 A 
ATOM     17  F   UNL     1       1.843  16.579  18.783  0.00  0.00    +0.000 F 
ATOM     18  C   UNL     1       2.646  14.401  18.281  0.00  0.00    +0.000 A 
ATOM     19 CL   UNL     1       4.233  15.004  17.999  0.00  0.00    +0.000 Cl
ATOM     20  C   UNL     1       2.381  13.035  18.192  0.00  0.00    +0.000 A 
ATOM     21  F   UNL     1       3.367  12.174  17.885  0.00  0.00    +0.000 F 
ENDBRANCH   5  13
BRANCH  11  22
ATOM     22  O   UNL     1       2.837   5.169  20.079  0.00  0.00    +0.000 OA
ATOM     23  C   UNL     1       2.168   4.405  21.067  0.00  0.00    +0.000 C 
ENDBRANCH  11  22
BRANCH   1  24
ATOM     24  O   UNL     1       3.119   6.559  17.493  0.00  0.00    +0.000 OA
BRANCH  24  30
ATOM     25  C   UNL     1       6.697   4.999  15.004  0.00  0.00    +0.000 C 
ATOM     26  O   UNL     1       7.780   5.501  14.723  0.00  0.00    +0.000 OA
ATOM     27  N   UNL     1       5.839   5.525  15.944  0.00  0.00    +0.000 N 
ATOM     28  C   UNL     1       6.143   6.755  16.649  0.00  0.00    +0.000 C 
ATOM     29  C   UNL     1       5.509   6.553  18.011  0.00  0.00    +0.000 C 
ATOM     30  C   UNL     1       4.259   5.719  17.724  0.00  0.00    +0.000 C 
ATOM     31  C   UNL     1       4.617   4.925  16.460  0.00  0.00    +0.000 C 
BRANCH  25  33
ATOM     32  C   UNL     1       5.980   3.705  13.034  0.00  0.00    +0.000 C 
ATOM     33  C   UNL     1       6.238   3.746  14.347  0.00  0.00    +0.000 C 
ENDBRANCH  25  33
ENDBRANCH  24  30
ENDBRANCH   1  24
TORSDOF 5
ENDMDL
MODEL 2
REMARK VINA RESULT:      -8.5      1.192      1.464
REMARK  Name = 
REMARK  6 active torsions:
REMARK  status: ('A' for Active; 'I' for Inactive)
REMARK    1  A    between atoms: C_2  and  C_3
REMARK    2  A    between atoms: C_8  and  O_9
REMARK    3  A    between atoms: O_9  and  C_10
REMARK    4  A    between atoms: N_14  and  C_15
REMARK    5  A    between atoms: C_29  and  O_30
REMARK    6  A    between atoms: O_30  and  C_31
REMARK                            x       y       z     vdW  Elec       q    Type
REMARK                         _______ _______ _______ _____ _____    ______ ____
ROOT
ATOM      1  C   UNL     1       2.503   7.090  18.569  0.00  0.00    +0.000 A 
ATOM      2  C   UNL     1       2.130   8.444  18.596  0.00  0.00    +0.000 A 
ATOM      3  C   UNL     1       1.442   9.025  19.693  0.00  0.00    +0.000 A 
ATOM      4  C   UNL     1       1.052  10.372  19.763  0.00  0.00    +0.000 A 
ATOM      5  N   UNL     1       1.278  11.208  18.647  0.00  0.00    +0.000 N 
ATOM      6  N   UNL     1       0.454  10.894  20.847  0.00  0.00    +0.000 NA
ATOM      7  C   UNL     1       0.224  10.049  21.856  0.00  0.00    +0.000 A 
ATOM      8  N   UNL     1       0.549   8.752  21.892  0.00  0.00    +0.000 NA
ATOM      9  C   UNL     1       1.167   8.253  20.817  0.00  0.00    +0.000 A 
ATOM     10  C   UNL     1       1.572   6.925  20.808  0.00  0.00    +0.000 A 
ATOM     11  C   UNL     1       2.226   6.329  19.712  0.00  0.00    +0.000 A 
ATOM     12  H   UNL     1       0.692  10.937  17.859  0.00  0.00    +0.000 HD
ENDROOT
BRANCH   5  13
ATOM     13  C   UNL     1       1.603  12.579  18.647  0.00  0.00    +0.000 A 
ATOM     14  C   UNL     1       2.911  13.022  18.397  0.00  0.00    +0.000 A 
ATOM     15  C   UNL     1       3.184  14.378  18.210  0.00  0.00    +0.000 A 
ATOM     16  C   UNL     1       2.150  15.306  18.276  0.00  0.00    +0.000 A 
ATOM     17  F   UNL     1       2.434  16.596  18.044  0.00  0.00    +0.000 F 
ATOM     18  C   UNL     1       0.847  14.902  18.551  0.00  0.00    +0.000 A 
ATOM     19 CL   UNL     1      -0.426  16.059  18.632  0.00  0.00    +0.000 Cl
ATOM     20  C   UNL     1       0.583  13.545  18.729  0.00  0.00    +0.000 A 
ATOM     21  F   UNL     1      -0.673  13.126  18.964  0.00  0.00    +0.000 F 
ENDBRANCH   5  13
BRANCH  11  22
ATOM     22  O   UNL     1       2.573   5.030  19.980  0.00  0.00    +0.000 OA
ATOM     23  C   UNL     1       1.668   4.216  20.707  0.00  0.00    +0.000 C 
ENDBRANCH  11  22
BRANCH   1  24
ATOM     24  O   UNL     1       3.114   6.509  17.487  0.00  0.00    +0.000 OA
BRANCH  24  30
ATOM     25  C   UNL     1       6.716   4.963  15.024  0.00  0.00    +0.000 C 
ATOM     26  O   UNL     1       7.807   5.462  14.766  0.00  0.00    +0.000 OA
ATOM     27  N   UNL     1       5.848   5.480  15.959  0.00  0.00    +0.000 N 
ATOM     28  C   UNL     1       6.151   6.696  16.689  0.00  0.00    +0.000 C 
ATOM     29  C   UNL     1       5.497   6.477  18.038  0.00  0.00    +0.000 C 
ATOM     30  C   UNL     1       4.244   5.657  17.720  0.00  0.00    +0.000 C 
ATOM     31  C   UNL     1       4.615   4.881  16.448  0.00  0.00    +0.000 C 
BRANCH  25  33
ATOM     32  C   UNL     1       5.994   3.712  13.027  0.00  0.00    +0.000 C 
ATOM     33  C   UNL     1       6.258   3.724  14.340  0.00  0.00    +0.000 C 
ENDBRANCH  25  33
ENDBRANCH  24  30
ENDBRANCH   1  24
TORSDOF 5
ENDMDL
MODEL 3
REMARK VINA RESULT:      -8.2      5.147      9.275
REMARK  Name = 
REMARK  6 active torsions:
REMARK  status: ('A' for Active; 'I' for Inactive)
REMARK    1  A    between atoms: C_2  and  C_3
REMARK    2  A    between atoms: C_8  and  O_9
REMARK    3  A    between atoms: O_9  and  C_10
REMARK    4  A    between atoms: N_14  and  C_15
REMARK    5  A    between atoms: C_29  and  O_30
REMARK    6  A    between atoms: O_30  and  C_31
REMARK                            x       y       z     vdW  Elec       q    Type
REMARK                         _______ _______ _______ _____ _____    ______ ____
ROOT
ATOM      1  C   UNL     1      -1.259  10.886  18.721  0.00  0.00    +0.000 A 
ATOM      2  C   UNL     1      -0.292   9.917  19.041  0.00  0.00    +0.000 A 
ATOM      3  C   UNL     1       0.251   9.782  20.345  0.00  0.00    +0.000 A 
ATOM      4  C   UNL     1       1.216   8.829  20.709  0.00  0.00    +0.000 A 
ATOM      5  N   UNL     1       1.757   7.989  19.710  0.00  0.00    +0.000 N 
ATOM      6  N   UNL     1       1.659   8.698  21.970  0.00  0.00    +0.000 NA
ATOM      7  C   UNL     1       1.148   9.547  22.865  0.00  0.00    +0.000 A 
ATOM      8  N   UNL     1       0.230  10.491  22.626  0.00  0.00    +0.000 NA
ATOM      9  C   UNL     1      -0.221  10.593  21.371  0.00  0.00    +0.000 A 
ATOM     10  C   UNL     1      -1.206  11.521  21.066  0.00  0.00    +0.000 A 
ATOM     11  C   UNL     1      -1.729  11.688  19.769  0.00  0.00    +0.000 A 
ATOM     12  H   UNL     1       2.328   8.518  19.053  0.00  0.00    +0.000 HD
ENDROOT
BRANCH   5  13
ATOM     13  C   UNL     1       2.165   6.647  19.840  0.00  0.00    +0.000 A 
ATOM     14  C   UNL     1       1.500   5.757  20.697  0.00  0.00    +0.000 A 
ATOM     15  C   UNL     1       1.789   4.392  20.675  0.00  0.00    +0.000 A 
ATOM     16  C   UNL     1       2.750   3.903  19.797  0.00  0.00    +0.000 A 
ATOM     17  F   UNL     1       2.971   2.581  19.764  0.00  0.00    +0.000 F 
ATOM     18  C   UNL     1       3.448   4.762  18.955  0.00  0.00    +0.000 A 
ATOM     19 CL   UNL     1       4.638   4.147  17.872  0.00  0.00    +0.000 Cl
ATOM     20  C   UNL     1       3.148   6.123  18.978  0.00  0.00    +0.000 A 
ATOM     21  F   UNL     1       3.787   6.970  18.151  0.00  0.00    +0.000 F 
ENDBRANCH   5  13
BRANCH  11  22
ATOM     22  O   UNL     1      -2.730  12.624  19.747  0.00  0.00    +0.000 OA
ATOM     23  C   UNL     1      -3.400  12.938  20.955  0.00  0.00    +0.000 C 
ENDBRANCH  11  22
BRANCH   1  24
ATOM     24  O   UNL     1      -1.743  11.060  17.449  0.00  0.00    +0.000 OA
BRANCH  24  30
ATOM     25  C   UNL     1      -6.288  11.000  18.328  0.00  0.00    +0.000 C 
ATOM     26  O   UNL     1      -7.222  11.640  17.856  0.00  0.00    +0.000 OA
ATOM     27  N   UNL     1      -5.021  10.997  17.787  0.00  0.00    +0.000 N 
ATOM     28  C   UNL     1      -4.688  11.796  16.625  0.00  0.00    +0.000 C 
ATOM     29  C   UNL     1      -3.640  10.968  15.909  0.00  0.00    +0.000 C 
ATOM     30  C   UNL     1      -2.872  10.277  17.037  0.00  0.00    +0.000 C 
ATOM     31  C   UNL     1      -3.897  10.156  18.173  0.00  0.00    +0.000 C 
BRANCH  25  33
ATOM     32  C   UNL     1      -7.153   8.996  19.472  0.00  0.00    +0.000 C 
ATOM     33  C   UNL     1      -6.472  10.148  19.533  0.00  0.00    +0.000 C 
ENDBRANCH  25  33
ENDBRANCH  24  30
ENDBRANCH   1  24
TORSDOF 5
ENDMDL
MODEL 4
REMARK VINA RESULT:      -8.2      2.109      2.810
REMARK  Name = 
REMARK  6 active torsions:
REMARK  status: ('A' for Active; 'I' for Inactive)
REMARK    1  A    between atoms: C_2  and  C_3
REMARK    2  A    between atoms: C_8  and  O_9
REMARK    3  A    between atoms: O_9  and  C_10
REMARK    4  A    between atoms: N_14  and  C_15
REMARK    5  A    between atoms: C_29  and  O_30
REMARK    6  A    between atoms: O_30  and  C_31
REMARK                            x       y       z     vdW  Elec       q    Type
REMARK                         _______ _______ _______ _____ _____    ______ ____
ROOT
ATOM      1  C   UNL     1       4.201   6.163  17.448  0.00  0.00    +0.000 A 
ATOM      2  C   UNL     1       3.416   7.305  17.681  0.00  0.00    +0.000 A 
ATOM      3  C   UNL     1       2.583   7.440  18.822  0.00  0.00    +0.000 A 
ATOM      4  C   UNL     1       1.785   8.562  19.095  0.00  0.00    +0.000 A 
ATOM      5  N   UNL     1       1.729   9.607  18.147  0.00  0.00    +0.000 N 
ATOM      6  N   UNL     1       1.057   8.672  20.218  0.00  0.00    +0.000 NA
ATOM      7  C   UNL     1       1.110   7.635  21.059  0.00  0.00    +0.000 A 
ATOM      8  N   UNL     1       1.831   6.520  20.895  0.00  0.00    +0.000 NA
ATOM      9  C   UNL     1       2.573   6.436  19.785  0.00  0.00    +0.000 A 
ATOM     10  C   UNL     1       3.379   5.326  19.577  0.00  0.00    +0.000 A 
ATOM     11  C   UNL     1       4.185   5.166  18.432  0.00  0.00    +0.000 A 
ATOM     12  H   UNL     1       1.257   9.308  17.295  0.00  0.00    +0.000 HD
ENDROOT
BRANCH   5  13
ATOM     13  C   UNL     1       1.602  10.990  18.392  0.00  0.00    +0.000 A 
ATOM     14  C   UNL     1       2.633  11.888  18.080  0.00  0.00    +0.000 A 
ATOM     15  C   UNL     1       2.426  13.267  18.148  0.00  0.00    +0.000 A 
ATOM     16  C   UNL     1       1.185  13.761  18.533  0.00  0.00    +0.000 A 
ATOM     17  F   UNL     1       1.000  15.089  18.542  0.00  0.00    +0.000 F 
ATOM     18  C   UNL     1       0.150  12.897  18.878  0.00  0.00    +0.000 A 
ATOM     19 CL   UNL     1      -1.383  13.518  19.356  0.00  0.00    +0.000 Cl
ATOM     20  C   UNL     1       0.363  11.521  18.800  0.00  0.00    +0.000 A 
ATOM     21  F   UNL     1      -0.630  10.665  19.097  0.00  0.00    +0.000 F 
ENDBRANCH   5  13
BRANCH  11  22
ATOM     22  O   UNL     1       4.928   4.016  18.498  0.00  0.00    +0.000 OA
ATOM     23  C   UNL     1       4.460   2.944  19.298  0.00  0.00    +0.000 C 
ENDBRANCH  11  22
BRANCH   1  24
ATOM     24  O   UNL     1       4.961   6.002  16.317  0.00  0.00    +0.000 OA
BRANCH  24  30
ATOM     25  C   UNL     1       6.167   3.617  12.537  0.00  0.00    +0.000 C 
ATOM     26  O   UNL     1       7.195   3.608  11.867  0.00  0.00    +0.000 OA
ATOM     27  N   UNL     1       6.067   4.235  13.764  0.00  0.00    +0.000 N 
ATOM     28  C   UNL     1       7.178   4.965  14.341  0.00  0.00    +0.000 C 
ATOM     29  C   UNL     1       7.009   4.755  15.832  0.00  0.00    +0.000 C 
ATOM     30  C   UNL     1       5.493   4.700  16.034  0.00  0.00    +0.000 C 
ATOM     31  C   UNL     1       4.953   4.168  14.699  0.00  0.00    +0.000 C 
BRANCH  25  33
ATOM     32  C   UNL     1       4.186   3.440  11.082  0.00  0.00    +0.000 C 
ATOM     33  C   UNL     1       4.937   2.927  12.065  0.00  0.00    +0.000 C 
ENDBRANCH  25  33
ENDBRANCH  24  30
ENDBRANCH   1  24
TORSDOF 5
ENDMDL
MODEL 5
REMARK VINA RESULT:      -8.1      1.078      1.755
REMARK  Name = 
REMARK  6 active torsions:
REMARK  status: ('A' for Active; 'I' for Inactive)
REMARK    1  A    between atoms: C_2  and  C_3
REMARK    2  A    between atoms: C_8  and  O_9
REMARK    3  A    between atoms: O_9  and  C_10
REMARK    4  A    between atoms: N_14  and  C_15
REMARK    5  A    between atoms: C_29  and  O_30
REMARK    6  A    between atoms: O_30  and  C_31
REMARK                            x       y       z     vdW  Elec       q    Type
REMARK                         _______ _______ _______ _____ _____    ______ ____
ROOT
ATOM      1  C   UNL     1       2.413   7.361  18.607  0.00  0.00    +0.000 A 
ATOM      2  C   UNL     1       1.892   8.667  18.583  0.00  0.00    +0.000 A 
ATOM      3  C   UNL     1       1.176   9.222  19.674  0.00  0.00    +0.000 A 
ATOM      4  C   UNL     1       0.640  10.520  19.695  0.00  0.00    +0.000 A 
ATOM      5  N   UNL     1       0.738  11.318  18.534  0.00  0.00    +0.000 N 
ATOM      6  N   UNL     1       0.020  11.027  20.773  0.00  0.00    +0.000 NA
ATOM      7  C   UNL     1      -0.086  10.214  21.828  0.00  0.00    +0.000 A 
ATOM      8  N   UNL     1       0.383   8.964  21.913  0.00  0.00    +0.000 NA
ATOM      9  C   UNL     1       1.022   8.482  20.842  0.00  0.00    +0.000 A 
ATOM     10  C   UNL     1       1.572   7.209  20.881  0.00  0.00    +0.000 A 
ATOM     11  C   UNL     1       2.256   6.633  19.793  0.00  0.00    +0.000 A 
ATOM     12  H   UNL     1       0.164  10.945  17.780  0.00  0.00    +0.000 HD
ENDROOT
BRANCH   5  13
ATOM     13  C   UNL     1       0.908  12.715  18.458  0.00  0.00    +0.000 A 
ATOM     14  C   UNL     1      -0.144  13.598  18.742  0.00  0.00    +0.000 A 
ATOM     15  C   UNL     1       0.084  14.971  18.850  0.00  0.00    +0.000 A 
ATOM     16  C   UNL     1       1.367  15.475  18.670  0.00  0.00    +0.000 A 
ATOM     17  F   UNL     1       1.565  16.792  18.828  0.00  0.00    +0.000 F 
ATOM     18  C   UNL     1       2.427  14.629  18.358  0.00  0.00    +0.000 A 
ATOM     19 CL   UNL     1       4.013  15.262  18.134  0.00  0.00    +0.000 Cl
ATOM     20  C   UNL     1       2.192  13.259  18.259  0.00  0.00    +0.000 A 
ATOM     21  F   UNL     1       3.205  12.417  17.990  0.00  0.00    +0.000 F 
ENDBRANCH   5  13
BRANCH  11  22
ATOM     22  O   UNL     1       2.754   5.396  20.109  0.00  0.00    +0.000 OA
ATOM     23  C   UNL     1       1.980   4.249  19.803  0.00  0.00    +0.000 C 
ENDBRANCH  11  22
BRANCH   1  24
ATOM     24  O   UNL     1       3.053   6.798  17.532  0.00  0.00    +0.000 OA
BRANCH  24  30
ATOM     25  C   UNL     1       7.238   4.851  17.167  0.00  0.00    +0.000 C 
ATOM     26  O   UNL     1       7.786   4.254  16.247  0.00  0.00    +0.000 OA
ATOM     27  N   UNL     1       6.064   5.556  17.021  0.00  0.00    +0.000 N 
ATOM     28  C   UNL     1       5.360   5.608  15.754  0.00  0.00    +0.000 C 
ATOM     29  C   UNL     1       4.723   6.983  15.754  0.00  0.00    +0.000 C 
ATOM     30  C   UNL     1       4.383   7.240  17.224  0.00  0.00    +0.000 C 
ATOM     31  C   UNL     1       5.424   6.423  18.001  0.00  0.00    +0.000 C 
BRANCH  25  33
ATOM     32  C   UNL     1       8.140   6.026  19.137  0.00  0.00    +0.000 C 
ATOM     33  C   UNL     1       7.832   4.872  18.531  0.00  0.00    +0.000 C 
ENDBRANCH  25  33
ENDBRANCH  24  30
ENDBRANCH   1  24
TORSDOF 5
ENDMDL
MODEL 6
REMARK VINA RESULT:      -7.9      1.605      2.335
REMARK  Name = 
REMARK  6 active torsions:
REMARK  status: ('A' for Active; 'I' for Inactive)
REMARK    1  A    between atoms: C_2  and  C_3
REMARK    2  A    between atoms: C_8  and  O_9
REMARK    3  A    between atoms: O_9  and  C_10
REMARK    4  A    between atoms: N_14  and  C_15
REMARK    5  A    between atoms: C_29  and  O_30
REMARK    6  A    between atoms: O_30  and  C_31
REMARK                            x       y       z     vdW  Elec       q    Type
REMARK                         _______ _______ _______ _____ _____    ______ ____
ROOT
ATOM      1  C   UNL     1       2.463   7.252  18.519  0.00  0.00    +0.000 A 
ATOM      2  C   UNL     1       2.077   8.602  18.567  0.00  0.00    +0.000 A 
ATOM      3  C   UNL     1       1.378   9.158  19.669  0.00  0.00    +0.000 A 
ATOM      4  C   UNL     1       0.975  10.500  19.760  0.00  0.00    +0.000 A 
ATOM      5  N   UNL     1       1.199  11.356  18.659  0.00  0.00    +0.000 N 
ATOM      6  N   UNL     1       0.367  10.998  20.849  0.00  0.00    +0.000 NA
ATOM      7  C   UNL     1       0.140  10.135  21.843  0.00  0.00    +0.000 A 
ATOM      8  N   UNL     1       0.477   8.840  21.859  0.00  0.00    +0.000 NA
ATOM      9  C   UNL     1       1.105   8.365  20.779  0.00  0.00    +0.000 A 
ATOM     10  C   UNL     1       1.523   7.041  20.750  0.00  0.00    +0.000 A 
ATOM     11  C   UNL     1       2.188   6.469  19.648  0.00  0.00    +0.000 A 
ATOM     12  H   UNL     1       0.619  11.093  17.863  0.00  0.00    +0.000 HD
ENDROOT
BRANCH   5  13
ATOM     13  C   UNL     1       1.511  12.730  18.683  0.00  0.00    +0.000 A 
ATOM     14  C   UNL     1       2.822  13.187  18.477  0.00  0.00    +0.000 A 
ATOM     15  C   UNL     1       3.087  14.548  18.313  0.00  0.00    +0.000 A 
ATOM     16  C   UNL     1       2.043  15.466  18.357  0.00  0.00    +0.000 A 
ATOM     17  F   UNL     1       2.321  16.760  18.148  0.00  0.00    +0.000 F 
ATOM     18  C   UNL     1       0.736  15.047  18.590  0.00  0.00    +0.000 A 
ATOM     19 CL   UNL     1      -0.549  16.191  18.646  0.00  0.00    +0.000 Cl
ATOM     20  C   UNL     1       0.480  13.686  18.745  0.00  0.00    +0.000 A 
ATOM     21  F   UNL     1      -0.779  13.253  18.938  0.00  0.00    +0.000 F 
ENDBRANCH   5  13
BRANCH  11  22
ATOM     22  O   UNL     1       2.546   5.170  19.896  0.00  0.00    +0.000 OA
ATOM     23  C   UNL     1       1.638   4.330  20.588  0.00  0.00    +0.000 C 
ENDBRANCH  11  22
BRANCH   1  24
ATOM     24  O   UNL     1       3.085   6.695  17.430  0.00  0.00    +0.000 OA
BRANCH  24  30
ATOM     25  C   UNL     1       7.326   4.838  17.418  0.00  0.00    +0.000 C 
ATOM     26  O   UNL     1       7.916   4.149  16.592  0.00  0.00    +0.000 OA
ATOM     27  N   UNL     1       6.140   5.486  17.155  0.00  0.00    +0.000 N 
ATOM     28  C   UNL     1       5.474   5.365  15.873  0.00  0.00    +0.000 C 
ATOM     29  C   UNL     1       4.803   6.711  15.689  0.00  0.00    +0.000 C 
ATOM     30  C   UNL     1       4.412   7.134  17.107  0.00  0.00    +0.000 C 
ATOM     31  C   UNL     1       5.450   6.446  18.005  0.00  0.00    +0.000 C 
BRANCH  25  33
ATOM     32  C   UNL     1       8.233   6.256  19.217  0.00  0.00    +0.000 C 
ATOM     33  C   UNL     1       7.878   5.040  18.784  0.00  0.00    +0.000 C 
ENDBRANCH  25  33
ENDBRANCH  24  30
ENDBRANCH   1  24
TORSDOF 5
ENDMDL
MODEL 7
REMARK VINA RESULT:      -7.8      1.592      2.219
REMARK  Name = 
REMARK  6 active torsions:
REMARK  status: ('A' for Active; 'I' for Inactive)
REMARK    1  A    between atoms: C_2  and  C_3
REMARK    2  A    between atoms: C_8  and  O_9
REMARK    3  A    between atoms: O_9  and  C_10
REMARK    4  A    between atoms: N_14  and  C_15
REMARK    5  A    between atoms: C_29  and  O_30
REMARK    6  A    between atoms: O_30  and  C_31
REMARK                            x       y       z     vdW  Elec       q    Type
REMARK                         _______ _______ _______ _____ _____    ______ ____
ROOT
ATOM      1  C   UNL     1       4.139   6.390  17.406  0.00  0.00    +0.000 A 
ATOM      2  C   UNL     1       3.313   7.511  17.595  0.00  0.00    +0.000 A 
ATOM      3  C   UNL     1       2.469   7.654  18.727  0.00  0.00    +0.000 A 
ATOM      4  C   UNL     1       1.630   8.756  18.958  0.00  0.00    +0.000 A 
ATOM      5  N   UNL     1       1.542   9.766  17.974  0.00  0.00    +0.000 N 
ATOM      6  N   UNL     1       0.892   8.879  20.073  0.00  0.00    +0.000 NA
ATOM      7  C   UNL     1       0.978   7.874  20.950  0.00  0.00    +0.000 A 
ATOM      8  N   UNL     1       1.740   6.781  20.828  0.00  0.00    +0.000 NA
ATOM      9  C   UNL     1       2.489   6.685  19.725  0.00  0.00    +0.000 A 
ATOM     10  C   UNL     1       3.336   5.598  19.558  0.00  0.00    +0.000 A 
ATOM     11  C   UNL     1       4.154   5.428  18.424  0.00  0.00    +0.000 A 
ATOM     12  H   UNL     1       1.086   9.421  17.131  0.00  0.00    +0.000 HD
ENDROOT
BRANCH   5  13
ATOM     13  C   UNL     1       1.364  11.150  18.171  0.00  0.00    +0.000 A 
ATOM     14  C   UNL     1       0.159  11.671  18.665  0.00  0.00    +0.000 A 
ATOM     15  C   UNL     1       0.057  13.013  19.034  0.00  0.00    +0.000 A 
ATOM     16  C   UNL     1       1.161  13.849  18.909  0.00  0.00    +0.000 A 
ATOM     17  F   UNL     1       1.049  15.121  19.317  0.00  0.00    +0.000 F 
ATOM     18  C   UNL     1       2.363  13.371  18.394  0.00  0.00    +0.000 A 
ATOM     19 CL   UNL     1       3.723  14.415  18.240  0.00  0.00    +0.000 Cl
ATOM     20  C   UNL     1       2.457  12.027  18.035  0.00  0.00    +0.000 A 
ATOM     21  F   UNL     1       3.616  11.533  17.565  0.00  0.00    +0.000 F 
ENDBRANCH   5  13
BRANCH  11  22
ATOM     22  O   UNL     1       4.937   4.308  18.532  0.00  0.00    +0.000 OA
ATOM     23  C   UNL     1       4.567   3.302  19.458  0.00  0.00    +0.000 C 
ENDBRANCH  11  22
BRANCH   1  24
ATOM     24  O   UNL     1       4.911   6.218  16.285  0.00  0.00    +0.000 OA
BRANCH  24  30
ATOM     25  C   UNL     1       6.196   3.705  12.614  0.00  0.00    +0.000 C 
ATOM     26  O   UNL     1       7.213   3.716  11.930  0.00  0.00    +0.000 OA
ATOM     27  N   UNL     1       6.078   4.380  13.809  0.00  0.00    +0.000 N 
ATOM     28  C   UNL     1       7.155   5.199  14.329  0.00  0.00    +0.000 C 
ATOM     29  C   UNL     1       7.017   5.059  15.832  0.00  0.00    +0.000 C 
ATOM     30  C   UNL     1       5.510   4.933  16.061  0.00  0.00    +0.000 C 
ATOM     31  C   UNL     1       4.983   4.302  14.765  0.00  0.00    +0.000 C 
BRANCH  25  33
ATOM     32  C   UNL     1       4.175   3.374  11.243  0.00  0.00    +0.000 C 
ATOM     33  C   UNL     1       4.999   2.925  12.199  0.00  0.00    +0.000 C 
ENDBRANCH  25  33
ENDBRANCH  24  30
ENDBRANCH   1  24
TORSDOF 5
ENDMDL
MODEL 8
REMARK VINA RESULT:      -7.7      5.309      9.383
REMARK  Name = 
REMARK  6 active torsions:
REMARK  status: ('A' for Active; 'I' for Inactive)
REMARK    1  A    between atoms: C_2  and  C_3
REMARK    2  A    between atoms: C_8  and  O_9
REMARK    3  A    between atoms: O_9  and  C_10
REMARK    4  A    between atoms: N_14  and  C_15
REMARK    5  A    between atoms: C_29  and  O_30
REMARK    6  A    between atoms: O_30  and  C_31
REMARK                            x       y       z     vdW  Elec       q    Type
REMARK                         _______ _______ _______ _____ _____    ______ ____
ROOT
ATOM      1  C   UNL     1      -1.154  10.772  18.619  0.00  0.00    +0.000 A 
ATOM      2  C   UNL     1      -0.157   9.811  18.861  0.00  0.00    +0.000 A 
ATOM      3  C   UNL     1       0.441   9.637  20.136  0.00  0.00    +0.000 A 
ATOM      4  C   UNL     1       1.437   8.690  20.424  0.00  0.00    +0.000 A 
ATOM      5  N   UNL     1       1.952   7.900  19.372  0.00  0.00    +0.000 N 
ATOM      6  N   UNL     1       1.934   8.519  21.659  0.00  0.00    +0.000 NA
ATOM      7  C   UNL     1       1.444   9.324  22.607  0.00  0.00    +0.000 A 
ATOM      8  N   UNL     1       0.501  10.259  22.442  0.00  0.00    +0.000 NA
ATOM      9  C   UNL     1      -0.003  10.399  21.212  0.00  0.00    +0.000 A 
ATOM     10  C   UNL     1      -1.016  11.319  20.982  0.00  0.00    +0.000 A 
ATOM     11  C   UNL     1      -1.595  11.525  19.714  0.00  0.00    +0.000 A 
ATOM     12  H   UNL     1       2.486   8.464  18.713  0.00  0.00    +0.000 HD
ENDROOT
BRANCH   5  13
ATOM     13  C   UNL     1       2.389   6.561  19.432  0.00  0.00    +0.000 A 
ATOM     14  C   UNL     1       3.608   6.162  18.864  0.00  0.00    +0.000 A 
ATOM     15  C   UNL     1       4.120   4.884  19.092  0.00  0.00    +0.000 A 
ATOM     16  C   UNL     1       3.414   3.990  19.891  0.00  0.00    +0.000 A 
ATOM     17  F   UNL     1       3.953   2.787  20.133  0.00  0.00    +0.000 F 
ATOM     18  C   UNL     1       2.188   4.345  20.446  0.00  0.00    +0.000 A 
ATOM     19 CL   UNL     1       1.321   3.231  21.431  0.00  0.00    +0.000 Cl
ATOM     20  C   UNL     1       1.688   5.626  20.217  0.00  0.00    +0.000 A 
ATOM     21  F   UNL     1       0.521   6.004  20.769  0.00  0.00    +0.000 F 
ENDBRANCH   5  13
BRANCH  11  22
ATOM     22  O   UNL     1      -2.613  12.441  19.769  0.00  0.00    +0.000 OA
ATOM     23  C   UNL     1      -2.564  13.461  20.752  0.00  0.00    +0.000 C 
ENDBRANCH  11  22
BRANCH   1  24
ATOM     24  O   UNL     1      -1.692  10.986  17.375  0.00  0.00    +0.000 OA
BRANCH  24  30
ATOM     25  C   UNL     1      -6.236  11.020  18.261  0.00  0.00    +0.000 C 
ATOM     26  O   UNL     1      -7.161  11.662  17.773  0.00  0.00    +0.000 OA
ATOM     27  N   UNL     1      -4.971  10.983  17.719  0.00  0.00    +0.000 N 
ATOM     28  C   UNL     1      -4.627  11.746  16.535  0.00  0.00    +0.000 C 
ATOM     29  C   UNL     1      -3.594  10.882  15.840  0.00  0.00    +0.000 C 
ATOM     30  C   UNL     1      -2.834  10.209  16.985  0.00  0.00    +0.000 C 
ATOM     31  C   UNL     1      -3.859  10.135  18.126  0.00  0.00    +0.000 C 
BRANCH  25  33
ATOM     32  C   UNL     1      -7.139   9.066  19.461  0.00  0.00    +0.000 C 
ATOM     33  C   UNL     1      -6.432  10.204  19.489  0.00  0.00    +0.000 C 
ENDBRANCH  25  33
ENDBRANCH  24  30
ENDBRANCH   1  24
TORSDOF 5
ENDMDL
MODEL 9
REMARK VINA RESULT:      -7.4      4.837      7.889
REMARK  Name = 
REMARK  6 active torsions:
REMARK  status: ('A' for Active; 'I' for Inactive)
REMARK    1  A    between atoms: C_2  and  C_3
REMARK    2  A    between atoms: C_8  and  O_9
REMARK    3  A    between atoms: O_9  and  C_10
REMARK    4  A    between atoms: N_14  and  C_15
REMARK    5  A    between atoms: C_29  and  O_30
REMARK    6  A    between atoms: O_30  and  C_31
REMARK                            x       y       z     vdW  Elec       q    Type
REMARK                         _______ _______ _______ _____ _____    ______ ____
ROOT
ATOM      1  C   UNL     1      -0.340  10.091  18.469  0.00  0.00    +0.000 A 
ATOM      2  C   UNL     1      -0.877  10.609  19.660  0.00  0.00    +0.000 A 
ATOM      3  C   UNL     1      -0.374  10.259  20.940  0.00  0.00    +0.000 A 
ATOM      4  C   UNL     1      -0.878  10.753  22.154  0.00  0.00    +0.000 A 
ATOM      5  N   UNL     1      -2.013  11.593  22.131  0.00  0.00    +0.000 N 
ATOM      6  N   UNL     1      -0.333  10.440  23.341  0.00  0.00    +0.000 NA
ATOM      7  C   UNL     1       0.710   9.605  23.309  0.00  0.00    +0.000 A 
ATOM      8  N   UNL     1       1.265   9.076  22.213  0.00  0.00    +0.000 NA
ATOM      9  C   UNL     1       0.728   9.417  21.037  0.00  0.00    +0.000 A 
ATOM     10  C   UNL     1       1.286   8.938  19.859  0.00  0.00    +0.000 A 
ATOM     11  C   UNL     1       0.775   9.251  18.584  0.00  0.00    +0.000 A 
ATOM     12  H   UNL     1      -2.844  11.084  21.835  0.00  0.00    +0.000 HD
ENDROOT
BRANCH   5  13
ATOM     13  C   UNL     1      -2.305  12.674  22.988  0.00  0.00    +0.000 A 
ATOM     14  C   UNL     1      -3.420  12.654  23.839  0.00  0.00    +0.000 A 
ATOM     15  C   UNL     1      -3.593  13.638  24.814  0.00  0.00    +0.000 A 
ATOM     16  C   UNL     1      -2.653  14.654  24.945  0.00  0.00    +0.000 A 
ATOM     17  F   UNL     1      -2.819  15.556  25.923  0.00  0.00    +0.000 F 
ATOM     18  C   UNL     1      -1.551  14.718  24.098  0.00  0.00    +0.000 A 
ATOM     19 CL   UNL     1      -0.393  15.982  24.266  0.00  0.00    +0.000 Cl
ATOM     20  C   UNL     1      -1.383  13.728  23.131  0.00  0.00    +0.000 A 
ATOM     21  F   UNL     1      -0.309  13.750  22.321  0.00  0.00    +0.000 F 
ENDBRANCH   5  13
BRANCH  11  22
ATOM     22  O   UNL     1       1.541   8.704  17.588  0.00  0.00    +0.000 OA
ATOM     23  C   UNL     1       2.534   7.753  17.932  0.00  0.00    +0.000 C 
ENDBRANCH  11  22
BRANCH   1  24
ATOM     24  O   UNL     1      -0.861  10.379  17.233  0.00  0.00    +0.000 OA
BRANCH  24  30
ATOM     25  C   UNL     1      -5.338  11.521  17.523  0.00  0.00    +0.000 C 
ATOM     26  O   UNL     1      -6.055  12.211  16.806  0.00  0.00    +0.000 OA
ATOM     27  N   UNL     1      -4.074  11.111  17.160  0.00  0.00    +0.000 N 
ATOM     28  C   UNL     1      -3.477  11.509  15.901  0.00  0.00    +0.000 C 
ATOM     29  C   UNL     1      -2.610  10.324  15.525  0.00  0.00    +0.000 C 
ATOM     30  C   UNL     1      -2.112   9.781  16.867  0.00  0.00    +0.000 C 
ATOM     31  C   UNL     1      -3.215  10.168  17.862  0.00  0.00    +0.000 C 
BRANCH  25  33
ATOM     32  C   UNL     1      -6.903  10.292  18.977  0.00  0.00    +0.000 C 
ATOM     33  C   UNL     1      -5.807  11.052  18.854  0.00  0.00    +0.000 C 
ENDBRANCH  25  33
ENDBRANCH  24  30
ENDBRANCH   1  24
TORSDOF 5
ENDMDL
