MODEL 1
REMARK VINA RESULT:      -8.0      0.000      0.000
REMARK  Name = 
REMARK  2 active torsions:
REMARK  status: ('A' for Active; 'I' for Inactive)
REMARK    1  A    between atoms: C_2  and  C_24
REMARK    2  A    between atoms: N_3  and  C_4
REMARK                            x       y       z     vdW  Elec       q    Type
REMARK                         _______ _______ _______ _____ _____    ______ ____
ROOT
ATOM      1  C   UNL     1      -1.029  12.421  19.109  0.00  0.00    +0.000 C 
ATOM      2  C   UNL     1       0.225  13.103  18.457  0.00  0.00    +0.000 C 
ATOM      3  C   UNL     1       1.445  13.382  19.376  0.00  0.00    +0.000 C 
ATOM      4  C   UNL     1       1.121  13.592  20.848  0.00  0.00    +0.000 C 
ATOM      5  N   UNL     1       0.050  12.717  21.291  0.00  0.00    +0.000 N 
ATOM      6  C   UNL     1       0.248  11.347  21.532  0.00  0.00    +0.000 A 
ATOM      7  C   UNL     1       1.021  10.486  20.735  0.00  0.00    +0.000 A 
ATOM      8  C   UNL     1       1.007   9.101  20.933  0.00  0.00    +0.000 A 
ATOM      9 CL   UNL     1       1.809   8.076  19.803  0.00  0.00    +0.000 Cl
ATOM     10  C   UNL     1       0.295   8.542  21.984  0.00  0.00    +0.000 A 
ATOM     11  C   UNL     1      -0.446   9.379  22.807  0.00  0.00    +0.000 A 
ATOM     12  C   UNL     1      -0.505  10.751  22.539  0.00  0.00    +0.000 A 
ATOM     13  O   UNL     1      -1.284  11.530  23.355  0.00  0.00    +0.000 OA
ATOM     14  C   UNL     1      -2.356  12.164  22.777  0.00  0.00    +0.000 A 
ATOM     15  C   UNL     1      -3.419  12.323  23.687  0.00  0.00    +0.000 A 
ATOM     16  C   UNL     1      -4.582  12.989  23.323  0.00  0.00    +0.000 A 
ATOM     17  C   UNL     1      -4.713  13.462  22.024  0.00  0.00    +0.000 A 
ATOM     18  C   UNL     1      -3.659  13.315  21.110  0.00  0.00    +0.000 A 
ATOM     19  C   UNL     1      -2.437  12.707  21.474  0.00  0.00    +0.000 A 
ATOM     20  C   UNL     1      -1.224  12.975  20.574  0.00  0.00    +0.000 C 
ENDROOT
BRANCH   1  23
ATOM     21  N   UNL     1      -1.908  10.755  16.611  0.00  0.00    +0.000 NA
ATOM     22  C   UNL     1      -2.701  11.422  17.394  0.00  0.00    +0.000 C 
ATOM     23  N   UNL     1      -2.243  12.391  18.277  0.00  0.00    +0.000 N 
ATOM     24  H   UNL     1      -0.949  11.073  16.737  0.00  0.00    +0.000 HD
ATOM     25  H   UNL     1      -3.010  12.876  18.756  0.00  0.00    +0.000 HD
BRANCH  22  26
ATOM     26  C   UNL     1      -4.258  11.199  17.276  0.00  0.00    +0.000 C 
ATOM     27  F   UNL     1      -4.938  12.332  17.622  0.00  0.00    +0.000 F 
ATOM     28  F   UNL     1      -4.636  10.901  16.003  0.00  0.00    +0.000 F 
ATOM     29  F   UNL     1      -4.721  10.207  18.080  0.00  0.00    +0.000 F 
ENDBRANCH  22  26
ENDBRANCH   1  23
TORSDOF 2
ENDMDL
MODEL 2
REMARK VINA RESULT:      -7.5      3.418      5.550
REMARK  Name = 
REMARK  2 active torsions:
REMARK  status: ('A' for Active; 'I' for Inactive)
REMARK    1  A    between atoms: C_2  and  C_24
REMARK    2  A    between atoms: N_3  and  C_4
REMARK                            x       y       z     vdW  Elec       q    Type
REMARK                         _______ _______ _______ _____ _____    ______ ____
ROOT
ATOM      1  C   UNL     1      -0.229  12.522  21.159  0.00  0.00    +0.000 C 
ATOM      2  C   UNL     1       0.633  13.804  21.435  0.00  0.00    +0.000 C 
ATOM      3  C   UNL     1      -0.016  15.182  21.128  0.00  0.00    +0.000 C 
ATOM      4  C   UNL     1      -1.076  15.176  20.036  0.00  0.00    +0.000 C 
ATOM      5  N   UNL     1      -1.889  13.973  20.085  0.00  0.00    +0.000 N 
ATOM      6  C   UNL     1      -2.887  13.778  21.054  0.00  0.00    +0.000 A 
ATOM      7  C   UNL     1      -2.775  14.113  22.414  0.00  0.00    +0.000 A 
ATOM      8  C   UNL     1      -3.738  13.707  23.345  0.00  0.00    +0.000 A 
ATOM      9 CL   UNL     1      -3.451  13.966  25.025  0.00  0.00    +0.000 Cl
ATOM     10  C   UNL     1      -4.880  13.035  22.939  0.00  0.00    +0.000 A 
ATOM     11  C   UNL     1      -5.029  12.727  21.592  0.00  0.00    +0.000 A 
ATOM     12  C   UNL     1      -4.014  13.049  20.685  0.00  0.00    +0.000 A 
ATOM     13  O   UNL     1      -4.188  12.686  19.375  0.00  0.00    +0.000 OA
ATOM     14  C   UNL     1      -3.296  11.782  18.852  0.00  0.00    +0.000 A 
ATOM     15  C   UNL     1      -3.891  10.978  17.860  0.00  0.00    +0.000 A 
ATOM     16  C   UNL     1      -3.151  10.032  17.164  0.00  0.00    +0.000 A 
ATOM     17  C   UNL     1      -1.814   9.848  17.487  0.00  0.00    +0.000 A 
ATOM     18  C   UNL     1      -1.208  10.646  18.468  0.00  0.00    +0.000 A 
ATOM     19  C   UNL     1      -1.918  11.665  19.142  0.00  0.00    +0.000 A 
ATOM     20  C   UNL     1      -1.091  12.743  19.855  0.00  0.00    +0.000 C 
ENDROOT
BRANCH   1  23
ATOM     21  N   UNL     1      -0.111  10.214  23.268  0.00  0.00    +0.000 NA
ATOM     22  C   UNL     1       0.262  10.127  22.028  0.00  0.00    +0.000 C 
ATOM     23  N   UNL     1       0.492  11.242  21.232  0.00  0.00    +0.000 N 
ATOM     24  H   UNL     1      -0.174  11.193  23.542  0.00  0.00    +0.000 HD
ATOM     25  H   UNL     1       0.860  10.991  20.308  0.00  0.00    +0.000 HD
BRANCH  22  26
ATOM     26  C   UNL     1       0.561   8.702  21.418  0.00  0.00    +0.000 C 
ATOM     27  F   UNL     1      -0.542   7.901  21.493  0.00  0.00    +0.000 F 
ATOM     28  F   UNL     1       0.893   8.771  20.100  0.00  0.00    +0.000 F 
ATOM     29  F   UNL     1       1.564   8.045  22.056  0.00  0.00    +0.000 F 
ENDBRANCH  22  26
ENDBRANCH   1  23
TORSDOF 2
ENDMDL
MODEL 3
REMARK VINA RESULT:      -7.2      3.685      5.766
REMARK  Name = 
REMARK  2 active torsions:
REMARK  status: ('A' for Active; 'I' for Inactive)
REMARK    1  A    between atoms: C_2  and  C_24
REMARK    2  A    between atoms: N_3  and  C_4
REMARK                            x       y       z     vdW  Elec       q    Type
REMARK                         _______ _______ _______ _____ _____    ______ ____
ROOT
ATOM      1  C   UNL     1      -1.058  11.463  20.919  0.00  0.00    +0.000 C 
ATOM      2  C   UNL     1      -0.066  12.495  21.562  0.00  0.00    +0.000 C 
ATOM      3  C   UNL     1      -0.452  13.998  21.490  0.00  0.00    +0.000 C 
ATOM      4  C   UNL     1      -1.330  14.391  20.310  0.00  0.00    +0.000 C 
ATOM      5  N   UNL     1      -2.310  13.363  20.006  0.00  0.00    +0.000 N 
ATOM      6  C   UNL     1      -3.457  13.160  20.791  0.00  0.00    +0.000 A 
ATOM      7  C   UNL     1      -3.498  13.198  22.194  0.00  0.00    +0.000 A 
ATOM      8  C   UNL     1      -4.636  12.793  22.901  0.00  0.00    +0.000 A 
ATOM      9 CL   UNL     1      -4.563  12.664  24.618  0.00  0.00    +0.000 Cl
ATOM     10  C   UNL     1      -5.793  12.424  22.232  0.00  0.00    +0.000 A 
ATOM     11  C   UNL     1      -5.786  12.416  20.843  0.00  0.00    +0.000 A 
ATOM     12  C   UNL     1      -4.613  12.726  20.147  0.00  0.00    +0.000 A 
ATOM     13  O   UNL     1      -4.644  12.663  18.778  0.00  0.00    +0.000 OA
ATOM     14  C   UNL     1      -3.829  11.737  18.177  0.00  0.00    +0.000 A 
ATOM     15  C   UNL     1      -4.384  11.258  16.973  0.00  0.00    +0.000 A 
ATOM     16  C   UNL     1      -3.698  10.352  16.176  0.00  0.00    +0.000 A 
ATOM     17  C   UNL     1      -2.464   9.877  16.600  0.00  0.00    +0.000 A 
ATOM     18  C   UNL     1      -1.897  10.349  17.793  0.00  0.00    +0.000 A 
ATOM     19  C   UNL     1      -2.540  11.325  18.587  0.00  0.00    +0.000 A 
ATOM     20  C   UNL     1      -1.678  12.081  19.606  0.00  0.00    +0.000 C 
ENDROOT
BRANCH   1  23
ATOM     21  N   UNL     1       1.278  10.146  19.307  0.00  0.00    +0.000 NA
ATOM     22  C   UNL     1       0.668   9.619  20.324  0.00  0.00    +0.000 C 
ATOM     23  N   UNL     1      -0.553  10.087  20.794  0.00  0.00    +0.000 N 
ATOM     24  H   UNL     1       0.717  10.904  18.923  0.00  0.00    +0.000 HD
ATOM     25  H   UNL     1      -0.930   9.503  21.548  0.00  0.00    +0.000 HD
BRANCH  22  26
ATOM     26  C   UNL     1       1.283   8.333  21.002  0.00  0.00    +0.000 C 
ATOM     27  F   UNL     1       1.827   8.638  22.217  0.00  0.00    +0.000 F 
ATOM     28  F   UNL     1       0.340   7.379  21.235  0.00  0.00    +0.000 F 
ATOM     29  F   UNL     1       2.270   7.758  20.266  0.00  0.00    +0.000 F 
ENDBRANCH  22  26
ENDBRANCH   1  23
TORSDOF 2
ENDMDL
MODEL 4
REMARK VINA RESULT:      -7.1      3.926      6.233
REMARK  Name = 
REMARK  2 active torsions:
REMARK  status: ('A' for Active; 'I' for Inactive)
REMARK    1  A    between atoms: C_2  and  C_24
REMARK    2  A    between atoms: N_3  and  C_4
REMARK                            x       y       z     vdW  Elec       q    Type
REMARK                         _______ _______ _______ _____ _____    ______ ____
ROOT
ATOM      1  C   UNL     1      -1.916  12.040  21.557  0.00  0.00    +0.000 C 
ATOM      2  C   UNL     1      -1.316  13.255  22.348  0.00  0.00    +0.000 C 
ATOM      3  C   UNL     1      -1.930  14.656  22.080  0.00  0.00    +0.000 C 
ATOM      4  C   UNL     1      -2.539  14.850  20.699  0.00  0.00    +0.000 C 
ATOM      5  N   UNL     1      -3.214  13.649  20.238  0.00  0.00    +0.000 N 
ATOM      6  C   UNL     1      -4.467  13.252  20.734  0.00  0.00    +0.000 A 
ATOM      7  C   UNL     1      -4.865  13.314  22.079  0.00  0.00    +0.000 A 
ATOM      8  C   UNL     1      -6.053  12.719  22.516  0.00  0.00    +0.000 A 
ATOM      9 CL   UNL     1      -6.393  12.646  24.204  0.00  0.00    +0.000 Cl
ATOM     10  C   UNL     1      -6.922  12.123  21.614  0.00  0.00    +0.000 A 
ATOM     11  C   UNL     1      -6.565  12.084  20.272  0.00  0.00    +0.000 A 
ATOM     12  C   UNL     1      -5.329  12.594  19.861  0.00  0.00    +0.000 A 
ATOM     13  O   UNL     1      -5.004  12.494  18.533  0.00  0.00    +0.000 OA
ATOM     14  C   UNL     1      -3.913  11.724  18.213  0.00  0.00    +0.000 A 
ATOM     15  C   UNL     1      -4.055  11.121  16.946  0.00  0.00    +0.000 A 
ATOM     16  C   UNL     1      -3.042  10.343  16.404  0.00  0.00    +0.000 A 
ATOM     17  C   UNL     1      -1.890  10.118  17.146  0.00  0.00    +0.000 A 
ATOM     18  C   UNL     1      -1.734  10.716  18.405  0.00  0.00    +0.000 A 
ATOM     19  C   UNL     1      -2.717  11.572  18.951  0.00  0.00    +0.000 A 
ATOM     20  C   UNL     1      -2.285  12.500  20.093  0.00  0.00    +0.000 C 
ENDROOT
BRANCH   1  23
ATOM     21  N   UNL     1       1.095  11.279  21.172  0.00  0.00    +0.000 NA
ATOM     22  C   UNL     1       0.205  10.562  21.788  0.00  0.00    +0.000 C 
ATOM     23  N   UNL     1      -1.161  10.781  21.653  0.00  0.00    +0.000 N 
ATOM     24  H   UNL     1       0.634  11.973  20.587  0.00  0.00    +0.000 HD
ATOM     25  H   UNL     1      -1.719  10.072  22.141  0.00  0.00    +0.000 HD
BRANCH  22  26
ATOM     26  C   UNL     1       0.679   9.328  22.649  0.00  0.00    +0.000 C 
ATOM     27  F   UNL     1       0.308   8.153  22.059  0.00  0.00    +0.000 F 
ATOM     28  F   UNL     1       2.033   9.282  22.772  0.00  0.00    +0.000 F 
ATOM     29  F   UNL     1       0.156   9.315  23.903  0.00  0.00    +0.000 F 
ENDBRANCH  22  26
ENDBRANCH   1  23
TORSDOF 2
ENDMDL
MODEL 5
REMARK VINA RESULT:      -7.0      3.499      5.760
REMARK  Name = 
REMARK  2 active torsions:
REMARK  status: ('A' for Active; 'I' for Inactive)
REMARK    1  A    between atoms: C_2  and  C_24
REMARK    2  A    between atoms: N_3  and  C_4
REMARK                            x       y       z     vdW  Elec       q    Type
REMARK                         _______ _______ _______ _____ _____    ______ ____
ROOT
ATOM      1  C   UNL     1      -0.959  12.454  21.389  0.00  0.00    +0.000 C 
ATOM      2  C   UNL     1      -0.289  13.763  21.936  0.00  0.00    +0.000 C 
ATOM      3  C   UNL     1      -1.017  15.107  21.664  0.00  0.00    +0.000 C 
ATOM      4  C   UNL     1      -1.883  15.139  20.412  0.00  0.00    +0.000 C 
ATOM      5  N   UNL     1      -2.565  13.875  20.200  0.00  0.00    +0.000 N 
ATOM      6  C   UNL     1      -3.681  13.484  20.960  0.00  0.00    +0.000 A 
ATOM      7  C   UNL     1      -3.824  13.667  22.345  0.00  0.00    +0.000 A 
ATOM      8  C   UNL     1      -4.876  13.075  23.053  0.00  0.00    +0.000 A 
ATOM      9 CL   UNL     1      -4.890  13.159  24.774  0.00  0.00    +0.000 Cl
ATOM     10  C   UNL     1      -5.864  12.361  22.391  0.00  0.00    +0.000 A 
ATOM     11  C   UNL     1      -5.762  12.201  21.015  0.00  0.00    +0.000 A 
ATOM     12  C   UNL     1      -4.653  12.711  20.331  0.00  0.00    +0.000 A 
ATOM     13  O   UNL     1      -4.576  12.491  18.981  0.00  0.00    +0.000 OA
ATOM     14  C   UNL     1      -3.524  11.733  18.530  0.00  0.00    +0.000 A 
ATOM     15  C   UNL     1      -3.867  11.002  17.375  0.00  0.00    +0.000 A 
ATOM     16  C   UNL     1      -2.932  10.210  16.722  0.00  0.00    +0.000 A 
ATOM     17  C   UNL     1      -1.651  10.103  17.249  0.00  0.00    +0.000 A 
ATOM     18  C   UNL     1      -1.296  10.829  18.395  0.00  0.00    +0.000 A 
ATOM     19  C   UNL     1      -2.205  11.699  19.037  0.00  0.00    +0.000 A 
ATOM     20  C   UNL     1      -1.619  12.751  19.987  0.00  0.00    +0.000 C 
ENDROOT
BRANCH   1  23
ATOM     21  N   UNL     1      -0.727  10.092  23.428  0.00  0.00    +0.000 NA
ATOM     22  C   UNL     1      -0.296  10.081  22.203  0.00  0.00    +0.000 C 
ATOM     23  N   UNL     1      -0.132  11.239  21.454  0.00  0.00    +0.000 N 
ATOM     24  H   UNL     1      -0.887  11.051  23.729  0.00  0.00    +0.000 HD
ATOM     25  H   UNL     1       0.296  11.054  20.540  0.00  0.00    +0.000 HD
BRANCH  22  26
ATOM     26  C   UNL     1       0.153   8.710  21.563  0.00  0.00    +0.000 C 
ATOM     27  F   UNL     1       0.527   8.882  20.261  0.00  0.00    +0.000 F 
ATOM     28  F   UNL     1       1.230   8.177  22.202  0.00  0.00    +0.000 F 
ATOM     29  F   UNL     1      -0.827   7.770  21.565  0.00  0.00    +0.000 F 
ENDBRANCH  22  26
ENDBRANCH   1  23
TORSDOF 2
ENDMDL
MODEL 6
REMARK VINA RESULT:      -6.6      8.811     10.761
REMARK  Name = 
REMARK  2 active torsions:
REMARK  status: ('A' for Active; 'I' for Inactive)
REMARK    1  A    between atoms: C_2  and  C_24
REMARK    2  A    between atoms: N_3  and  C_4
REMARK                            x       y       z     vdW  Elec       q    Type
REMARK                         _______ _______ _______ _____ _____    ______ ____
ROOT
ATOM      1  C   UNL     1       8.799  15.943  19.541  0.00  0.00    +0.000 C 
ATOM      2  C   UNL     1       9.763  17.180  19.476  0.00  0.00    +0.000 C 
ATOM      3  C   UNL     1      11.108  17.081  20.246  0.00  0.00    +0.000 C 
ATOM      4  C   UNL     1      11.099  16.164  21.461  0.00  0.00    +0.000 C 
ATOM      5  N   UNL     1      10.292  14.978  21.231  0.00  0.00    +0.000 N 
ATOM      6  C   UNL     1      10.733  13.911  20.430  0.00  0.00    +0.000 A 
ATOM      7  C   UNL     1      11.419  14.041  19.211  0.00  0.00    +0.000 A 
ATOM      8  C   UNL     1      11.648  12.936  18.383  0.00  0.00    +0.000 A 
ATOM      9 CL   UNL     1      12.311  13.180  16.811  0.00  0.00    +0.000 Cl
ATOM     10  C   UNL     1      11.280  11.661  18.784  0.00  0.00    +0.000 A 
ATOM     11  C   UNL     1      10.633  11.506  20.003  0.00  0.00    +0.000 A 
ATOM     12  C   UNL     1      10.320  12.628  20.777  0.00  0.00    +0.000 A 
ATOM     13  O   UNL     1       9.644  12.428  21.952  0.00  0.00    +0.000 OA
ATOM     14  C   UNL     1       8.390  12.977  22.053  0.00  0.00    +0.000 A 
ATOM     15  C   UNL     1       7.548  12.206  22.880  0.00  0.00    +0.000 A 
ATOM     16  C   UNL     1       6.251  12.611  23.161  0.00  0.00    +0.000 A 
ATOM     17  C   UNL     1       5.763  13.773  22.577  0.00  0.00    +0.000 A 
ATOM     18  C   UNL     1       6.592  14.553  21.757  0.00  0.00    +0.000 A 
ATOM     19  C   UNL     1       7.939  14.203  21.512  0.00  0.00    +0.000 A 
ATOM     20  C   UNL     1       8.865  15.305  20.983  0.00  0.00    +0.000 C 
ENDROOT
BRANCH   1  23
ATOM     21  N   UNL     1       7.128  14.608  17.258  0.00  0.00    +0.000 NA
ATOM     22  C   UNL     1       6.650  15.337  18.220  0.00  0.00    +0.000 C 
ATOM     23  N   UNL     1       7.446  16.160  19.006  0.00  0.00    +0.000 N 
ATOM     24  H   UNL     1       8.131  14.762  17.173  0.00  0.00    +0.000 HD
ATOM     25  H   UNL     1       6.895  16.726  19.660  0.00  0.00    +0.000 HD
BRANCH  22  26
ATOM     26  C   UNL     1       5.089  15.370  18.451  0.00  0.00    +0.000 C 
ATOM     27  F   UNL     1       4.674  14.252  19.118  0.00  0.00    +0.000 F 
ATOM     28  F   UNL     1       4.709  16.431  19.213  0.00  0.00    +0.000 F 
ATOM     29  F   UNL     1       4.376  15.421  17.296  0.00  0.00    +0.000 F 
ENDBRANCH  22  26
ENDBRANCH   1  23
TORSDOF 2
ENDMDL
MODEL 7
REMARK VINA RESULT:      -6.6      9.314     11.701
REMARK  Name = 
REMARK  2 active torsions:
REMARK  status: ('A' for Active; 'I' for Inactive)
REMARK    1  A    between atoms: C_2  and  C_24
REMARK    2  A    between atoms: N_3  and  C_4
REMARK                            x       y       z     vdW  Elec       q    Type
REMARK                         _______ _______ _______ _____ _____    ______ ____
ROOT
ATOM      1  C   UNL     1       8.114  15.289  22.020  0.00  0.00    +0.000 C 
ATOM      2  C   UNL     1       8.184  16.767  22.542  0.00  0.00    +0.000 C 
ATOM      3  C   UNL     1       8.424  17.886  21.491  0.00  0.00    +0.000 C 
ATOM      4  C   UNL     1       9.192  17.461  20.248  0.00  0.00    +0.000 C 
ATOM      5  N   UNL     1       8.829  16.120  19.826  0.00  0.00    +0.000 N 
ATOM      6  C   UNL     1       7.618  15.838  19.172  0.00  0.00    +0.000 A 
ATOM      7  C   UNL     1       6.370  16.389  19.503  0.00  0.00    +0.000 A 
ATOM      8  C   UNL     1       5.186  15.908  18.931  0.00  0.00    +0.000 A 
ATOM      9 CL   UNL     1       3.670  16.477  19.520  0.00  0.00    +0.000 Cl
ATOM     10  C   UNL     1       5.219  14.928  17.951  0.00  0.00    +0.000 A 
ATOM     11  C   UNL     1       6.448  14.395  17.582  0.00  0.00    +0.000 A 
ATOM     12  C   UNL     1       7.615  14.812  18.231  0.00  0.00    +0.000 A 
ATOM     13  O   UNL     1       8.798  14.226  17.862  0.00  0.00    +0.000 OA
ATOM     14  C   UNL     1       9.459  13.496  18.818  0.00  0.00    +0.000 A 
ATOM     15  C   UNL     1      10.187  12.432  18.249  0.00  0.00    +0.000 A 
ATOM     16  C   UNL     1      10.973  11.599  19.034  0.00  0.00    +0.000 A 
ATOM     17  C   UNL     1      11.000  11.793  20.409  0.00  0.00    +0.000 A 
ATOM     18  C   UNL     1      10.284  12.851  20.987  0.00  0.00    +0.000 A 
ATOM     19  C   UNL     1       9.535  13.758  20.205  0.00  0.00    +0.000 A 
ATOM     20  C   UNL     1       9.157  15.097  20.851  0.00  0.00    +0.000 C 
ENDROOT
BRANCH   1  23
ATOM     21  N   UNL     1       5.955  13.331  23.156  0.00  0.00    +0.000 NA
ATOM     22  C   UNL     1       7.239  13.203  23.292  0.00  0.00    +0.000 C 
ATOM     23  N   UNL     1       8.127  14.246  23.057  0.00  0.00    +0.000 N 
ATOM     24  H   UNL     1       5.729  14.287  22.888  0.00  0.00    +0.000 HD
ATOM     25  H   UNL     1       9.093  13.995  23.293  0.00  0.00    +0.000 HD
BRANCH  22  26
ATOM     26  C   UNL     1       7.819  11.841  23.838  0.00  0.00    +0.000 C 
ATOM     27  F   UNL     1       8.271  11.060  22.812  0.00  0.00    +0.000 F 
ATOM     28  F   UNL     1       8.881  12.034  24.667  0.00  0.00    +0.000 F 
ATOM     29  F   UNL     1       6.903  11.101  24.515  0.00  0.00    +0.000 F 
ENDBRANCH  22  26
ENDBRANCH   1  23
TORSDOF 2
ENDMDL
MODEL 8
REMARK VINA RESULT:      -6.6      9.824     11.952
REMARK  Name = 
REMARK  2 active torsions:
REMARK  status: ('A' for Active; 'I' for Inactive)
REMARK    1  A    between atoms: C_2  and  C_24
REMARK    2  A    between atoms: N_3  and  C_4
REMARK                            x       y       z     vdW  Elec       q    Type
REMARK                         _______ _______ _______ _____ _____    ______ ____
ROOT
ATOM      1  C   UNL     1       9.327  14.630  22.083  0.00  0.00    +0.000 C 
ATOM      2  C   UNL     1      10.290  15.737  22.640  0.00  0.00    +0.000 C 
ATOM      3  C   UNL     1      10.935  16.706  21.612  0.00  0.00    +0.000 C 
ATOM      4  C   UNL     1      11.123  16.142  20.211  0.00  0.00    +0.000 C 
ATOM      5  N   UNL     1      10.014  15.289  19.823  0.00  0.00    +0.000 N 
ATOM      6  C   UNL     1       8.762  15.805  19.446  0.00  0.00    +0.000 A 
ATOM      7  C   UNL     1       8.104  16.877  20.072  0.00  0.00    +0.000 A 
ATOM      8  C   UNL     1       6.779  17.200  19.760  0.00  0.00    +0.000 A 
ATOM      9 CL   UNL     1       5.955  18.387  20.698  0.00  0.00    +0.000 Cl
ATOM     10  C   UNL     1       6.102  16.525  18.756  0.00  0.00    +0.000 A 
ATOM     11  C   UNL     1       6.747  15.486  18.098  0.00  0.00    +0.000 A 
ATOM     12  C   UNL     1       8.037  15.106  18.486  0.00  0.00    +0.000 A 
ATOM     13  O   UNL     1       8.615  14.047  17.836  0.00  0.00    +0.000 OA
ATOM     14  C   UNL     1       8.905  12.935  18.587  0.00  0.00    +0.000 A 
ATOM     15  C   UNL     1       8.816  11.754  17.823  0.00  0.00    +0.000 A 
ATOM     16  C   UNL     1       9.122  10.517  18.375  0.00  0.00    +0.000 A 
ATOM     17  C   UNL     1       9.477  10.444  19.716  0.00  0.00    +0.000 A 
ATOM     18  C   UNL     1       9.575  11.612  20.485  0.00  0.00    +0.000 A 
ATOM     19  C   UNL     1       9.339  12.891  19.931  0.00  0.00    +0.000 A 
ATOM     20  C   UNL     1       9.881  14.101  20.703  0.00  0.00    +0.000 C 
ENDROOT
BRANCH   1  23
ATOM     21  N   UNL     1       6.919  14.306  24.054  0.00  0.00    +0.000 NA
ATOM     22  C   UNL     1       7.700  13.351  23.648  0.00  0.00    +0.000 C 
ATOM     23  N   UNL     1       8.928  13.590  23.045  0.00  0.00    +0.000 N 
ATOM     24  H   UNL     1       7.359  15.208  23.882  0.00  0.00    +0.000 HD
ATOM     25  H   UNL     1       9.449  12.725  22.865  0.00  0.00    +0.000 HD
BRANCH  22  26
ATOM     26  C   UNL     1       7.290  11.855  23.935  0.00  0.00    +0.000 C 
ATOM     27  F   UNL     1       8.183  10.990  23.368  0.00  0.00    +0.000 F 
ATOM     28  F   UNL     1       7.282  11.574  25.267  0.00  0.00    +0.000 F 
ATOM     29  F   UNL     1       6.067  11.529  23.443  0.00  0.00    +0.000 F 
ENDBRANCH  22  26
ENDBRANCH   1  23
TORSDOF 2
ENDMDL
MODEL 9
REMARK VINA RESULT:      -6.5      3.981      6.428
REMARK  Name = 
REMARK  2 active torsions:
REMARK  status: ('A' for Active; 'I' for Inactive)
REMARK    1  A    between atoms: C_2  and  C_24
REMARK    2  A    between atoms: N_3  and  C_4
REMARK                            x       y       z     vdW  Elec       q    Type
REMARK                         _______ _______ _______ _____ _____    ______ ____
ROOT
ATOM      1  C   UNL     1      -4.509  11.996  19.141  0.00  0.00    +0.000 C 
ATOM      2  C   UNL     1      -5.268  10.885  18.333  0.00  0.00    +0.000 C 
ATOM      3  C   UNL     1      -6.812  10.816  18.489  0.00  0.00    +0.000 C 
ATOM      4  C   UNL     1      -7.358  11.327  19.814  0.00  0.00    +0.000 C 
ATOM      5  N   UNL     1      -6.621  12.486  20.287  0.00  0.00    +0.000 N 
ATOM      6  C   UNL     1      -6.787  13.764  19.727  0.00  0.00    +0.000 A 
ATOM      7  C   UNL     1      -6.919  14.039  18.356  0.00  0.00    +0.000 A 
ATOM      8  C   UNL     1      -6.883  15.350  17.870  0.00  0.00    +0.000 A 
ATOM      9 CL   UNL     1      -6.842  15.620  16.168  0.00  0.00    +0.000 Cl
ATOM     10  C   UNL     1      -6.805  16.428  18.739  0.00  0.00    +0.000 A 
ATOM     11  C   UNL     1      -6.712  16.179  20.102  0.00  0.00    +0.000 A 
ATOM     12  C   UNL     1      -6.648  14.862  20.571  0.00  0.00    +0.000 A 
ATOM     13  O   UNL     1      -6.513  14.669  21.921  0.00  0.00    +0.000 OA
ATOM     14  C   UNL     1      -5.365  14.052  22.353  0.00  0.00    +0.000 A 
ATOM     15  C   UNL     1      -4.985  14.498  23.634  0.00  0.00    +0.000 A 
ATOM     16  C   UNL     1      -3.880  13.963  24.282  0.00  0.00    +0.000 A 
ATOM     17  C   UNL     1      -3.112  13.006  23.632  0.00  0.00    +0.000 A 
ATOM     18  C   UNL     1      -3.482  12.549  22.359  0.00  0.00    +0.000 A 
ATOM     19  C   UNL     1      -4.643  13.023  21.706  0.00  0.00    +0.000 A 
ATOM     20  C   UNL     1      -5.193  12.177  20.551  0.00  0.00    +0.000 C 
ENDROOT
BRANCH   1  23
ATOM     21  N   UNL     1      -2.313  11.881  16.915  0.00  0.00    +0.000 NA
ATOM     22  C   UNL     1      -2.109  12.157  18.167  0.00  0.00    +0.000 C 
ATOM     23  N   UNL     1      -3.042  11.882  19.158  0.00  0.00    +0.000 N 
ATOM     24  H   UNL     1      -3.219  11.429  16.803  0.00  0.00    +0.000 HD
ATOM     25  H   UNL     1      -2.685  12.087  20.098  0.00  0.00    +0.000 HD
BRANCH  22  26
ATOM     26  C   UNL     1      -0.709  12.739  18.603  0.00  0.00    +0.000 C 
ATOM     27  F   UNL     1      -0.427  13.888  17.920  0.00  0.00    +0.000 F 
ATOM     28  F   UNL     1      -0.681  13.065  19.924  0.00  0.00    +0.000 F 
ATOM     29  F   UNL     1       0.323  11.886  18.373  0.00  0.00    +0.000 F 
ENDBRANCH  22  26
ENDBRANCH   1  23
TORSDOF 2
ENDMDL
