MODEL 1
REMARK VINA RESULT:      -7.7      0.000      0.000
REMARK  Name = 
REMARK  5 active torsions:
REMARK  status: ('A' for Active; 'I' for Inactive)
REMARK    1  A    between atoms: C_1  and  N_2
REMARK    2  A    between atoms: N_5  and  C_6
REMARK    3  A    between atoms: C_6  and  C_7
REMARK    4  A    between atoms: N_20  and  C_21
REMARK    5  A    between atoms: C_21  and  C_22
REMARK                            x       y       z     vdW  Elec       q    Type
REMARK                         _______ _______ _______ _____ _____    ______ ____
ROOT
ATOM      1  C   UNL     1      -0.097   9.379  23.610  0.00  0.00    +0.000 C 
ATOM      2  N   UNL     1       0.011  10.038  22.321  0.00  0.00    +0.000 N 
ATOM      3  C   UNL     1      -0.477  11.336  22.144  0.00  0.00    +0.000 A 
ATOM      4  O   UNL     1      -0.930  11.992  23.085  0.00  0.00    +0.000 OA
ATOM      5  N   UNL     1      -0.448  11.860  20.837  0.00  0.00    +0.000 N 
ATOM      6  C   UNL     1       0.132  11.235  19.730  0.00  0.00    +0.000 A 
ATOM      7  O   UNL     1       0.180  11.742  18.613  0.00  0.00    +0.000 OA
ATOM      8  C   UNL     1       0.690   9.963  20.033  0.00  0.00    +0.000 A 
ATOM      9  C   UNL     1       0.616   9.394  21.267  0.00  0.00    +0.000 A 
ATOM     10  N   UNL     1       1.220   8.172  21.311  0.00  0.00    +0.000 NA
ATOM     11  C   UNL     1       1.694   7.984  20.095  0.00  0.00    +0.000 A 
ATOM     12  N   UNL     1       1.375   9.053  19.281  0.00  0.00    +0.000 N 
ATOM     13  C   UNL     1       1.749   9.147  17.885  0.00  0.00    +0.000 C 
ATOM     14  C   UNL     1       2.840   8.146  17.518  0.00  0.00    +0.000 C 
ATOM     15  C   UNL     1       2.545   6.795  18.161  0.00  0.00    +0.000 C 
ATOM     16  N   UNL     1       2.449   6.967  19.605  0.00  0.00    +0.000 N 
ENDROOT
BRANCH   5  17
ATOM     17  C   UNL     1      -1.178  13.106  20.600  0.00  0.00    +0.000 C 
BRANCH  17  18
ATOM     18  C   UNL     1      -2.658  13.005  20.225  0.00  0.00    +0.000 C 
ATOM     19  N   UNL     1      -2.996  12.439  19.035  0.00  0.00    +0.000 N 
ATOM     20  O   UNL     1      -3.548  13.372  20.992  0.00  0.00    +0.000 OA
ATOM     21  H   UNL     1      -2.357  11.847  18.531  0.00  0.00    +0.000 HD
ATOM     22  H   UNL     1      -3.987  12.286  18.892  0.00  0.00    +0.000 HD
ENDBRANCH  17  18
ENDBRANCH   5  17
BRANCH  16  23
ATOM     23  C   UNL     1       2.800   5.835  20.459  0.00  0.00    +0.000 C 
BRANCH  23  24
ATOM     24  C   UNL     1       2.385   4.506  19.853  0.00  0.00    +0.000 A 
ATOM     25  C   UNL     1       3.339   3.660  19.260  0.00  0.00    +0.000 A 
ATOM     26  C   UNL     1       2.984   2.385  18.810  0.00  0.00    +0.000 A 
ATOM     27  C   UNL     1       1.670   1.938  18.939  0.00  0.00    +0.000 A 
ATOM     28  C   UNL     1       0.707   2.773  19.504  0.00  0.00    +0.000 A 
ATOM     29  C   UNL     1       1.062   4.047  19.955  0.00  0.00    +0.000 A 
ENDBRANCH  23  24
ENDBRANCH  16  23
TORSDOF 4
ENDMDL
MODEL 2
REMARK VINA RESULT:      -7.4      3.686      8.619
REMARK  Name = 
REMARK  5 active torsions:
REMARK  status: ('A' for Active; 'I' for Inactive)
REMARK    1  A    between atoms: C_1  and  N_2
REMARK    2  A    between atoms: N_5  and  C_6
REMARK    3  A    between atoms: C_6  and  C_7
REMARK    4  A    between atoms: N_20  and  C_21
REMARK    5  A    between atoms: C_21  and  C_22
REMARK                            x       y       z     vdW  Elec       q    Type
REMARK                         _______ _______ _______ _____ _____    ______ ____
ROOT
ATOM      1  C   UNL     1       4.813   6.693  16.190  0.00  0.00    +0.000 C 
ATOM      2  N   UNL     1       4.278   6.156  17.428  0.00  0.00    +0.000 N 
ATOM      3  C   UNL     1       4.689   4.905  17.897  0.00  0.00    +0.000 A 
ATOM      4  O   UNL     1       5.573   4.259  17.329  0.00  0.00    +0.000 OA
ATOM      5  N   UNL     1       4.034   4.399  19.037  0.00  0.00    +0.000 N 
ATOM      6  C   UNL     1       3.093   5.094  19.801  0.00  0.00    +0.000 A 
ATOM      7  O   UNL     1       2.576   4.640  20.817  0.00  0.00    +0.000 OA
ATOM      8  C   UNL     1       2.816   6.396  19.301  0.00  0.00    +0.000 A 
ATOM      9  C   UNL     1       3.375   6.889  18.162  0.00  0.00    +0.000 A 
ATOM     10  N   UNL     1       2.953   8.157  17.886  0.00  0.00    +0.000 NA
ATOM     11  C   UNL     1       2.137   8.466  18.874  0.00  0.00    +0.000 A 
ATOM     12  N   UNL     1       2.017   7.406  19.751  0.00  0.00    +0.000 N 
ATOM     13  C   UNL     1       1.188   7.429  20.939  0.00  0.00    +0.000 C 
ATOM     14  C   UNL     1       0.775   8.848  21.319  0.00  0.00    +0.000 C 
ATOM     15  C   UNL     1       0.377   9.627  20.071  0.00  0.00    +0.000 C 
ATOM     16  N   UNL     1       1.496   9.633  19.137  0.00  0.00    +0.000 N 
ENDROOT
BRANCH   5  17
ATOM     17  C   UNL     1       4.278   2.998  19.382  0.00  0.00    +0.000 C 
BRANCH  17  18
ATOM     18  C   UNL     1       3.535   1.927  18.583  0.00  0.00    +0.000 C 
ATOM     19  N   UNL     1       4.103   0.698  18.446  0.00  0.00    +0.000 N 
ATOM     20  O   UNL     1       2.418   2.130  18.107  0.00  0.00    +0.000 OA
ATOM     21  H   UNL     1       4.834   0.382  19.062  0.00  0.00    +0.000 HD
ATOM     22  H   UNL     1       3.517  -0.007  18.015  0.00  0.00    +0.000 HD
ENDBRANCH  17  18
ENDBRANCH   5  17
BRANCH  16  23
ATOM     23  C   UNL     1       1.623  10.765  18.221  0.00  0.00    +0.000 C 
BRANCH  23  24
ATOM     24  C   UNL     1       1.172  12.070  18.853  0.00  0.00    +0.000 A 
ATOM     25  C   UNL     1       2.015  12.766  19.738  0.00  0.00    +0.000 A 
ATOM     26  C   UNL     1       1.656  14.025  20.227  0.00  0.00    +0.000 A 
ATOM     27  C   UNL     1       0.448  14.606  19.845  0.00  0.00    +0.000 A 
ATOM     28  C   UNL     1      -0.409  13.919  18.986  0.00  0.00    +0.000 A 
ATOM     29  C   UNL     1      -0.051  12.661  18.497  0.00  0.00    +0.000 A 
ENDBRANCH  23  24
ENDBRANCH  16  23
TORSDOF 4
ENDMDL
MODEL 3
REMARK VINA RESULT:      -7.4      3.728      8.188
REMARK  Name = 
REMARK  5 active torsions:
REMARK  status: ('A' for Active; 'I' for Inactive)
REMARK    1  A    between atoms: C_1  and  N_2
REMARK    2  A    between atoms: N_5  and  C_6
REMARK    3  A    between atoms: C_6  and  C_7
REMARK    4  A    between atoms: N_20  and  C_21
REMARK    5  A    between atoms: C_21  and  C_22
REMARK                            x       y       z     vdW  Elec       q    Type
REMARK                         _______ _______ _______ _____ _____    ______ ____
ROOT
ATOM      1  C   UNL     1       2.689   3.695  20.890  0.00  0.00    +0.000 C 
ATOM      2  N   UNL     1       3.119   4.413  19.704  0.00  0.00    +0.000 N 
ATOM      3  C   UNL     1       3.869   3.769  18.716  0.00  0.00    +0.000 A 
ATOM      4  O   UNL     1       4.116   2.562  18.773  0.00  0.00    +0.000 OA
ATOM      5  N   UNL     1       4.353   4.563  17.657  0.00  0.00    +0.000 N 
ATOM      6  C   UNL     1       4.048   5.911  17.456  0.00  0.00    +0.000 A 
ATOM      7  O   UNL     1       4.451   6.561  16.495  0.00  0.00    +0.000 OA
ATOM      8  C   UNL     1       3.197   6.450  18.459  0.00  0.00    +0.000 A 
ATOM      9  C   UNL     1       2.770   5.733  19.534  0.00  0.00    +0.000 A 
ATOM     10  N   UNL     1       1.967   6.465  20.359  0.00  0.00    +0.000 NA
ATOM     11  C   UNL     1       1.875   7.647  19.782  0.00  0.00    +0.000 A 
ATOM     12  N   UNL     1       2.629   7.679  18.624  0.00  0.00    +0.000 N 
ATOM     13  C   UNL     1       2.740   8.838  17.763  0.00  0.00    +0.000 C 
ATOM     14  C   UNL     1       1.655   9.871  18.054  0.00  0.00    +0.000 C 
ATOM     15  C   UNL     1       1.475  10.028  19.560  0.00  0.00    +0.000 C 
ATOM     16  N   UNL     1       1.140   8.732  20.136  0.00  0.00    +0.000 N 
ENDROOT
BRANCH   5  17
ATOM     17  C   UNL     1       5.339   3.955  16.763  0.00  0.00    +0.000 C 
BRANCH  17  18
ATOM     18  C   UNL     1       6.801   4.375  16.922  0.00  0.00    +0.000 C 
ATOM     19  N   UNL     1       7.378   4.290  18.152  0.00  0.00    +0.000 N 
ATOM     20  O   UNL     1       7.482   4.735  15.962  0.00  0.00    +0.000 OA
ATOM     21  H   UNL     1       6.986   3.717  18.881  0.00  0.00    +0.000 HD
ATOM     22  H   UNL     1       8.375   4.462  18.177  0.00  0.00    +0.000 HD
ENDBRANCH  17  18
ENDBRANCH   5  17
BRANCH  16  23
ATOM     23  C   UNL     1       0.332   8.706  21.353  0.00  0.00    +0.000 C 
BRANCH  23  24
ATOM     24  C   UNL     1      -0.393  10.020  21.591  0.00  0.00    +0.000 A 
ATOM     25  C   UNL     1      -0.922  10.750  20.511  0.00  0.00    +0.000 A 
ATOM     26  C   UNL     1      -1.693  11.894  20.732  0.00  0.00    +0.000 A 
ATOM     27  C   UNL     1      -1.943  12.331  22.032  0.00  0.00    +0.000 A 
ATOM     28  C   UNL     1      -1.407  11.630  23.112  0.00  0.00    +0.000 A 
ATOM     29  C   UNL     1      -0.636  10.486  22.892  0.00  0.00    +0.000 A 
ENDBRANCH  23  24
ENDBRANCH  16  23
TORSDOF 4
ENDMDL
MODEL 4
REMARK VINA RESULT:      -7.4      1.008      1.178
REMARK  Name = 
REMARK  5 active torsions:
REMARK  status: ('A' for Active; 'I' for Inactive)
REMARK    1  A    between atoms: C_1  and  N_2
REMARK    2  A    between atoms: N_5  and  C_6
REMARK    3  A    between atoms: C_6  and  C_7
REMARK    4  A    between atoms: N_20  and  C_21
REMARK    5  A    between atoms: C_21  and  C_22
REMARK                            x       y       z     vdW  Elec       q    Type
REMARK                         _______ _______ _______ _____ _____    ______ ____
ROOT
ATOM      1  C   UNL     1      -0.097   9.434  23.589  0.00  0.00    +0.000 C 
ATOM      2  N   UNL     1       0.011  10.081  22.293  0.00  0.00    +0.000 N 
ATOM      3  C   UNL     1      -0.475  11.377  22.104  0.00  0.00    +0.000 A 
ATOM      4  O   UNL     1      -0.928  12.042  23.038  0.00  0.00    +0.000 OA
ATOM      5  N   UNL     1      -0.446  11.889  20.792  0.00  0.00    +0.000 N 
ATOM      6  C   UNL     1       0.133  11.252  19.691  0.00  0.00    +0.000 A 
ATOM      7  O   UNL     1       0.181  11.748  18.569  0.00  0.00    +0.000 OA
ATOM      8  C   UNL     1       0.690   9.983  20.006  0.00  0.00    +0.000 A 
ATOM      9  C   UNL     1       0.615   9.426  21.245  0.00  0.00    +0.000 A 
ATOM     10  N   UNL     1       1.218   8.204  21.301  0.00  0.00    +0.000 NA
ATOM     11  C   UNL     1       1.692   8.004  20.087  0.00  0.00    +0.000 A 
ATOM     12  N   UNL     1       1.373   9.066  19.263  0.00  0.00    +0.000 N 
ATOM     13  C   UNL     1       1.747   9.146  17.866  0.00  0.00    +0.000 C 
ATOM     14  C   UNL     1       2.837   8.140  17.508  0.00  0.00    +0.000 C 
ATOM     15  C   UNL     1       2.542   6.796  18.164  0.00  0.00    +0.000 C 
ATOM     16  N   UNL     1       2.445   6.982  19.606  0.00  0.00    +0.000 N 
ENDROOT
BRANCH   5  17
ATOM     17  C   UNL     1      -1.176  13.133  20.543  0.00  0.00    +0.000 C 
BRANCH  17  18
ATOM     18  C   UNL     1      -0.366  14.427  20.446  0.00  0.00    +0.000 C 
ATOM     19  N   UNL     1       0.007  14.877  19.218  0.00  0.00    +0.000 N 
ATOM     20  O   UNL     1      -0.091  15.096  21.441  0.00  0.00    +0.000 OA
ATOM     21  H   UNL     1      -0.450  14.561  18.377  0.00  0.00    +0.000 HD
ATOM     22  H   UNL     1       0.432  15.796  19.201  0.00  0.00    +0.000 HD
ENDBRANCH  17  18
ENDBRANCH   5  17
BRANCH  16  23
ATOM     23  C   UNL     1       2.796   5.857  20.471  0.00  0.00    +0.000 C 
BRANCH  23  24
ATOM     24  C   UNL     1       2.372   4.523  19.882  0.00  0.00    +0.000 A 
ATOM     25  C   UNL     1       3.323   3.658  19.311  0.00  0.00    +0.000 A 
ATOM     26  C   UNL     1       2.958   2.381  18.877  0.00  0.00    +0.000 A 
ATOM     27  C   UNL     1       1.638   1.950  19.001  0.00  0.00    +0.000 A 
ATOM     28  C   UNL     1       0.679   2.804  19.545  0.00  0.00    +0.000 A 
ATOM     29  C   UNL     1       1.043   4.081  19.979  0.00  0.00    +0.000 A 
ENDBRANCH  23  24
ENDBRANCH  16  23
TORSDOF 4
ENDMDL
MODEL 5
REMARK VINA RESULT:      -7.4      3.829      8.501
REMARK  Name = 
REMARK  5 active torsions:
REMARK  status: ('A' for Active; 'I' for Inactive)
REMARK    1  A    between atoms: C_1  and  N_2
REMARK    2  A    between atoms: N_5  and  C_6
REMARK    3  A    between atoms: C_6  and  C_7
REMARK    4  A    between atoms: N_20  and  C_21
REMARK    5  A    between atoms: C_21  and  C_22
REMARK                            x       y       z     vdW  Elec       q    Type
REMARK                         _______ _______ _______ _____ _____    ______ ____
ROOT
ATOM      1  C   UNL     1       4.672   6.703  16.346  0.00  0.00    +0.000 C 
ATOM      2  N   UNL     1       4.172   6.182  17.605  0.00  0.00    +0.000 N 
ATOM      3  C   UNL     1       4.648   4.968  18.110  0.00  0.00    +0.000 A 
ATOM      4  O   UNL     1       5.559   4.349  17.557  0.00  0.00    +0.000 OA
ATOM      5  N   UNL     1       4.026   4.469  19.272  0.00  0.00    +0.000 N 
ATOM      6  C   UNL     1       3.057   5.141  20.021  0.00  0.00    +0.000 A 
ATOM      7  O   UNL     1       2.570   4.695  21.055  0.00  0.00    +0.000 OA
ATOM      8  C   UNL     1       2.713   6.411  19.482  0.00  0.00    +0.000 A 
ATOM      9  C   UNL     1       3.239   6.893  18.323  0.00  0.00    +0.000 A 
ATOM     10  N   UNL     1       2.753   8.129  18.009  0.00  0.00    +0.000 NA
ATOM     11  C   UNL     1       1.930   8.430  18.993  0.00  0.00    +0.000 A 
ATOM     12  N   UNL     1       1.868   7.394  19.905  0.00  0.00    +0.000 N 
ATOM     13  C   UNL     1       1.047   7.415  21.098  0.00  0.00    +0.000 C 
ATOM     14  C   UNL     1       0.568   8.824  21.437  0.00  0.00    +0.000 C 
ATOM     15  C   UNL     1       0.123   9.541  20.167  0.00  0.00    +0.000 C 
ATOM     16  N   UNL     1       1.234   9.572  19.224  0.00  0.00    +0.000 N 
ENDROOT
BRANCH   5  17
ATOM     17  C   UNL     1       4.342   3.093  19.660  0.00  0.00    +0.000 C 
BRANCH  17  18
ATOM     18  C   UNL     1       3.530   1.967  19.018  0.00  0.00    +0.000 C 
ATOM     19  N   UNL     1       4.192   0.924  18.448  0.00  0.00    +0.000 N 
ATOM     20  O   UNL     1       2.300   1.954  19.051  0.00  0.00    +0.000 OA
ATOM     21  H   UNL     1       5.154   0.724  18.669  0.00  0.00    +0.000 HD
ATOM     22  H   UNL     1       3.611   0.151  18.148  0.00  0.00    +0.000 HD
ENDBRANCH  17  18
ENDBRANCH   5  17
BRANCH  16  23
ATOM     23  C   UNL     1       1.299  10.678  18.271  0.00  0.00    +0.000 C 
BRANCH  23  24
ATOM     24  C   UNL     1       1.889  11.935  18.887  0.00  0.00    +0.000 A 
ATOM     25  C   UNL     1       2.720  12.780  18.129  0.00  0.00    +0.000 A 
ATOM     26  C   UNL     1       3.167  13.997  18.650  0.00  0.00    +0.000 A 
ATOM     27  C   UNL     1       2.797  14.387  19.937  0.00  0.00    +0.000 A 
ATOM     28  C   UNL     1       1.991  13.550  20.708  0.00  0.00    +0.000 A 
ATOM     29  C   UNL     1       1.544  12.333  20.188  0.00  0.00    +0.000 A 
ENDBRANCH  23  24
ENDBRANCH  16  23
TORSDOF 4
ENDMDL
MODEL 6
REMARK VINA RESULT:      -7.3      3.712      8.270
REMARK  Name = 
REMARK  5 active torsions:
REMARK  status: ('A' for Active; 'I' for Inactive)
REMARK    1  A    between atoms: C_1  and  N_2
REMARK    2  A    between atoms: N_5  and  C_6
REMARK    3  A    between atoms: C_6  and  C_7
REMARK    4  A    between atoms: N_20  and  C_21
REMARK    5  A    between atoms: C_21  and  C_22
REMARK                            x       y       z     vdW  Elec       q    Type
REMARK                         _______ _______ _______ _____ _____    ______ ____
ROOT
ATOM      1  C   UNL     1       4.439   6.967  16.230  0.00  0.00    +0.000 C 
ATOM      2  N   UNL     1       4.062   6.307  17.467  0.00  0.00    +0.000 N 
ATOM      3  C   UNL     1       4.615   5.070  17.810  0.00  0.00    +0.000 A 
ATOM      4  O   UNL     1       5.494   4.541  17.125  0.00  0.00    +0.000 OA
ATOM      5  N   UNL     1       4.109   4.437  18.962  0.00  0.00    +0.000 N 
ATOM      6  C   UNL     1       3.187   4.997  19.850  0.00  0.00    +0.000 A 
ATOM      7  O   UNL     1       2.801   4.435  20.871  0.00  0.00    +0.000 OA
ATOM      8  C   UNL     1       2.761   6.298  19.469  0.00  0.00    +0.000 A 
ATOM      9  C   UNL     1       3.172   6.910  18.325  0.00  0.00    +0.000 A 
ATOM     10  N   UNL     1       2.625   8.151  18.176  0.00  0.00    +0.000 NA
ATOM     11  C   UNL     1       1.879   8.324  19.249  0.00  0.00    +0.000 A 
ATOM     12  N   UNL     1       1.925   7.204  20.055  0.00  0.00    +0.000 N 
ATOM     13  C   UNL     1       1.207   7.078  21.307  0.00  0.00    +0.000 C 
ATOM     14  C   UNL     1       0.716   8.428  21.821  0.00  0.00    +0.000 C 
ATOM     15  C   UNL     1       0.144   9.248  20.669  0.00  0.00    +0.000 C 
ATOM     16  N   UNL     1       1.171   9.412  19.648  0.00  0.00    +0.000 N 
ENDROOT
BRANCH   5  17
ATOM     17  C   UNL     1       4.497   3.044  19.184  0.00  0.00    +0.000 C 
BRANCH  17  18
ATOM     18  C   UNL     1       3.676   1.955  18.492  0.00  0.00    +0.000 C 
ATOM     19  N   UNL     1       4.131   0.673  18.518  0.00  0.00    +0.000 N 
ATOM     20  O   UNL     1       2.593   2.199  17.959  0.00  0.00    +0.000 OA
ATOM     21  H   UNL     1       4.815   0.369  19.191  0.00  0.00    +0.000 HD
ATOM     22  H   UNL     1       3.492  -0.023  18.154  0.00  0.00    +0.000 HD
ENDBRANCH  17  18
ENDBRANCH   5  17
BRANCH  16  23
ATOM     23  C   UNL     1       1.122  10.606  18.807  0.00  0.00    +0.000 C 
BRANCH  23  24
ATOM     24  C   UNL     1      -0.290  10.934  18.355  0.00  0.00    +0.000 A 
ATOM     25  C   UNL     1      -1.003  10.044  17.532  0.00  0.00    +0.000 A 
ATOM     26  C   UNL     1      -2.342  10.283  17.212  0.00  0.00    +0.000 A 
ATOM     27  C   UNL     1      -2.988  11.417  17.703  0.00  0.00    +0.000 A 
ATOM     28  C   UNL     1      -2.288  12.320  18.501  0.00  0.00    +0.000 A 
ATOM     29  C   UNL     1      -0.950  12.082  18.822  0.00  0.00    +0.000 A 
ENDBRANCH  23  24
ENDBRANCH  16  23
TORSDOF 4
ENDMDL
MODEL 7
REMARK VINA RESULT:      -7.2      3.700      8.561
REMARK  Name = 
REMARK  5 active torsions:
REMARK  status: ('A' for Active; 'I' for Inactive)
REMARK    1  A    between atoms: C_1  and  N_2
REMARK    2  A    between atoms: N_5  and  C_6
REMARK    3  A    between atoms: C_6  and  C_7
REMARK    4  A    between atoms: N_20  and  C_21
REMARK    5  A    between atoms: C_21  and  C_22
REMARK                            x       y       z     vdW  Elec       q    Type
REMARK                         _______ _______ _______ _____ _____    ______ ____
ROOT
ATOM      1  C   UNL     1       4.691   6.560  16.432  0.00  0.00    +0.000 C 
ATOM      2  N   UNL     1       4.126   6.075  17.678  0.00  0.00    +0.000 N 
ATOM      3  C   UNL     1       4.501   4.830  18.191  0.00  0.00    +0.000 A 
ATOM      4  O   UNL     1       5.378   4.146  17.656  0.00  0.00    +0.000 OA
ATOM      5  N   UNL     1       3.819   4.375  19.336  0.00  0.00    +0.000 N 
ATOM      6  C   UNL     1       2.884   5.115  20.064  0.00  0.00    +0.000 A 
ATOM      7  O   UNL     1       2.342   4.704  21.086  0.00  0.00    +0.000 OA
ATOM      8  C   UNL     1       2.645   6.406  19.521  0.00  0.00    +0.000 A 
ATOM      9  C   UNL     1       3.230   6.850  18.375  0.00  0.00    +0.000 A 
ATOM     10  N   UNL     1       2.842   8.118  18.054  0.00  0.00    +0.000 NA
ATOM     11  C   UNL     1       2.020   8.477  19.020  0.00  0.00    +0.000 A 
ATOM     12  N   UNL     1       1.863   7.448  19.927  0.00  0.00    +0.000 N 
ATOM     13  C   UNL     1       1.018   7.527  21.101  0.00  0.00    +0.000 C 
ATOM     14  C   UNL     1       0.633   8.966  21.432  0.00  0.00    +0.000 C 
ATOM     15  C   UNL     1       0.271   9.715  20.154  0.00  0.00    +0.000 C 
ATOM     16  N   UNL     1       1.403   9.666  19.237  0.00  0.00    +0.000 N 
ENDROOT
BRANCH   5  17
ATOM     17  C   UNL     1       4.026   2.980  19.727  0.00  0.00    +0.000 C 
BRANCH  17  18
ATOM     18  C   UNL     1       3.268   1.901  18.951  0.00  0.00    +0.000 C 
ATOM     19  N   UNL     1       1.910   1.874  19.023  0.00  0.00    +0.000 N 
ATOM     20  O   UNL     1       3.850   1.095  18.226  0.00  0.00    +0.000 OA
ATOM     21  H   UNL     1       1.380   2.675  19.325  0.00  0.00    +0.000 HD
ATOM     22  H   UNL     1       1.455   1.221  18.397  0.00  0.00    +0.000 HD
ENDBRANCH  17  18
ENDBRANCH   5  17
BRANCH  16  23
ATOM     23  C   UNL     1       1.569  10.765  18.289  0.00  0.00    +0.000 C 
BRANCH  23  24
ATOM     24  C   UNL     1       1.194  12.108  18.892  0.00  0.00    +0.000 A 
ATOM     25  C   UNL     1       0.022  12.772  18.487  0.00  0.00    +0.000 A 
ATOM     26  C   UNL     1      -0.390  13.946  19.123  0.00  0.00    +0.000 A 
ATOM     27  C   UNL     1       0.363  14.479  20.168  0.00  0.00    +0.000 A 
ATOM     28  C   UNL     1       1.539  13.844  20.566  0.00  0.00    +0.000 A 
ATOM     29  C   UNL     1       1.952  12.671  19.931  0.00  0.00    +0.000 A 
ENDBRANCH  23  24
ENDBRANCH  16  23
TORSDOF 4
ENDMDL
MODEL 8
REMARK VINA RESULT:      -7.2      1.264      1.877
REMARK  Name = 
REMARK  5 active torsions:
REMARK  status: ('A' for Active; 'I' for Inactive)
REMARK    1  A    between atoms: C_1  and  N_2
REMARK    2  A    between atoms: N_5  and  C_6
REMARK    3  A    between atoms: C_6  and  C_7
REMARK    4  A    between atoms: N_20  and  C_21
REMARK    5  A    between atoms: C_21  and  C_22
REMARK                            x       y       z     vdW  Elec       q    Type
REMARK                         _______ _______ _______ _____ _____    ______ ____
ROOT
ATOM      1  C   UNL     1      -0.269   9.630  23.354  0.00  0.00    +0.000 C 
ATOM      2  N   UNL     1       0.110  10.201  22.074  0.00  0.00    +0.000 N 
ATOM      3  C   UNL     1      -0.117  11.554  21.805  0.00  0.00    +0.000 A 
ATOM      4  O   UNL     1      -0.563  12.320  22.663  0.00  0.00    +0.000 OA
ATOM      5  N   UNL     1       0.164  12.005  20.501  0.00  0.00    +0.000 N 
ATOM      6  C   UNL     1       0.758  11.241  19.493  0.00  0.00    +0.000 A 
ATOM      7  O   UNL     1       1.032  11.681  18.380  0.00  0.00    +0.000 OA
ATOM      8  C   UNL     1       1.044   9.908  19.896  0.00  0.00    +0.000 A 
ATOM      9  C   UNL     1       0.719   9.417  21.123  0.00  0.00    +0.000 A 
ATOM     10  N   UNL     1       1.091   8.113  21.274  0.00  0.00    +0.000 NA
ATOM     11  C   UNL     1       1.672   7.792  20.135  0.00  0.00    +0.000 A 
ATOM     12  N   UNL     1       1.647   8.862  19.261  0.00  0.00    +0.000 N 
ATOM     13  C   UNL     1       2.201   8.827  17.924  0.00  0.00    +0.000 C 
ATOM     14  C   UNL     1       3.138   7.639  17.725  0.00  0.00    +0.000 C 
ATOM     15  C   UNL     1       2.535   6.389  18.356  0.00  0.00    +0.000 C 
ATOM     16  N   UNL     1       2.292   6.640  19.770  0.00  0.00    +0.000 N 
ENDROOT
BRANCH   5  17
ATOM     17  C   UNL     1      -0.303  13.345  20.142  0.00  0.00    +0.000 C 
BRANCH  17  18
ATOM     18  C   UNL     1       0.674  14.510  20.310  0.00  0.00    +0.000 C 
ATOM     19  N   UNL     1       0.258  15.766  19.994  0.00  0.00    +0.000 N 
ATOM     20  O   UNL     1       1.803  14.348  20.772  0.00  0.00    +0.000 OA
ATOM     21  H   UNL     1      -0.720  15.998  19.925  0.00  0.00    +0.000 HD
ATOM     22  H   UNL     1       0.899  16.511  20.239  0.00  0.00    +0.000 HD
ENDBRANCH  17  18
ENDBRANCH   5  17
BRANCH  16  23
ATOM     23  C   UNL     1       2.333   5.505  20.689  0.00  0.00    +0.000 C 
BRANCH  23  24
ATOM     24  C   UNL     1       2.231   4.174  19.965  0.00  0.00    +0.000 A 
ATOM     25  C   UNL     1       0.976   3.638  19.623  0.00  0.00    +0.000 A 
ATOM     26  C   UNL     1       0.880   2.477  18.853  0.00  0.00    +0.000 A 
ATOM     27  C   UNL     1       2.034   1.829  18.415  0.00  0.00    +0.000 A 
ATOM     28  C   UNL     1       3.286   2.334  18.764  0.00  0.00    +0.000 A 
ATOM     29  C   UNL     1       3.383   3.496  19.535  0.00  0.00    +0.000 A 
ENDBRANCH  23  24
ENDBRANCH  16  23
TORSDOF 4
ENDMDL
MODEL 9
REMARK VINA RESULT:      -7.1      3.281      5.402
REMARK  Name = 
REMARK  5 active torsions:
REMARK  status: ('A' for Active; 'I' for Inactive)
REMARK    1  A    between atoms: C_1  and  N_2
REMARK    2  A    between atoms: N_5  and  C_6
REMARK    3  A    between atoms: C_6  and  C_7
REMARK    4  A    between atoms: N_20  and  C_21
REMARK    5  A    between atoms: C_21  and  C_22
REMARK                            x       y       z     vdW  Elec       q    Type
REMARK                         _______ _______ _______ _____ _____    ______ ____
ROOT
ATOM      1  C   UNL     1      -1.026  13.719  23.403  0.00  0.00    +0.000 C 
ATOM      2  N   UNL     1      -2.262  13.505  22.674  0.00  0.00    +0.000 N 
ATOM      3  C   UNL     1      -3.479  13.962  23.189  0.00  0.00    +0.000 A 
ATOM      4  O   UNL     1      -3.534  14.630  24.224  0.00  0.00    +0.000 OA
ATOM      5  N   UNL     1      -4.647  13.609  22.486  0.00  0.00    +0.000 N 
ATOM      6  C   UNL     1      -4.679  12.941  21.259  0.00  0.00    +0.000 A 
ATOM      7  O   UNL     1      -5.716  12.689  20.651  0.00  0.00    +0.000 OA
ATOM      8  C   UNL     1      -3.388  12.607  20.768  0.00  0.00    +0.000 A 
ATOM      9  C   UNL     1      -2.242  12.868  21.455  0.00  0.00    +0.000 A 
ATOM     10  N   UNL     1      -1.130  12.452  20.783  0.00  0.00    +0.000 NA
ATOM     11  C   UNL     1      -1.584  11.945  19.655  0.00  0.00    +0.000 A 
ATOM     12  N   UNL     1      -2.964  12.008  19.618  0.00  0.00    +0.000 N 
ATOM     13  C   UNL     1      -3.767  11.527  18.513  0.00  0.00    +0.000 C 
ATOM     14  C   UNL     1      -2.931  11.302  17.256  0.00  0.00    +0.000 C 
ATOM     15  C   UNL     1      -1.614  10.626  17.620  0.00  0.00    +0.000 C 
ATOM     16  N   UNL     1      -0.905  11.456  18.586  0.00  0.00    +0.000 N 
ENDROOT
BRANCH   5  17
ATOM     17  C   UNL     1      -5.928  13.865  23.146  0.00  0.00    +0.000 C 
BRANCH  17  18
ATOM     18  C   UNL     1      -6.491  12.774  24.058  0.00  0.00    +0.000 C 
ATOM     19  N   UNL     1      -5.634  12.069  24.844  0.00  0.00    +0.000 N 
ATOM     20  O   UNL     1      -7.700  12.554  24.137  0.00  0.00    +0.000 OA
ATOM     21  H   UNL     1      -4.710  12.410  25.058  0.00  0.00    +0.000 HD
ATOM     22  H   UNL     1      -6.069  11.447  25.514  0.00  0.00    +0.000 HD
ENDBRANCH  17  18
ENDBRANCH   5  17
BRANCH  16  23
ATOM     23  C   UNL     1       0.555  11.393  18.610  0.00  0.00    +0.000 C 
BRANCH  23  24
ATOM     24  C   UNL     1       1.065   9.991  18.897  0.00  0.00    +0.000 A 
ATOM     25  C   UNL     1       1.714   9.246  17.896  0.00  0.00    +0.000 A 
ATOM     26  C   UNL     1       2.291   8.008  18.187  0.00  0.00    +0.000 A 
ATOM     27  C   UNL     1       2.226   7.491  19.480  0.00  0.00    +0.000 A 
ATOM     28  C   UNL     1       1.567   8.207  20.478  0.00  0.00    +0.000 A 
ATOM     29  C   UNL     1       0.989   9.445  20.189  0.00  0.00    +0.000 A 
ENDBRANCH  23  24
ENDBRANCH  16  23
TORSDOF 4
ENDMDL
