MODEL 1
REMARK VINA RESULT:      -7.5      0.000      0.000
REMARK  Name = 
REMARK  5 active torsions:
REMARK  status: ('A' for Active; 'I' for Inactive)
REMARK    1  A    between atoms: C_1  and  O_2
REMARK    2  A    between atoms: O_2  and  C_3
REMARK    3  A    between atoms: C_6  and  N_7
REMARK    4  A    between atoms: C_12  and  C_13
REMARK    5  A    between atoms: C_17  and  N_18
REMARK                            x       y       z     vdW  Elec       q    Type
REMARK                         _______ _______ _______ _____ _____    ______ ____
ROOT
ATOM      1  N   UNL     1       4.251   2.985  18.126  0.00  0.00    +0.000 N 
ATOM      2  C   UNL     1       3.433   3.640  19.061  0.00  0.00    +0.000 A 
ATOM      3  N   UNL     1       3.169   3.015  20.215  0.00  0.00    +0.000 NA
ATOM      4  C   UNL     1       2.480   3.722  21.134  0.00  0.00    +0.000 A 
ATOM      5  C   UNL     1       2.076   5.027  20.960  0.00  0.00    +0.000 A 
ATOM      6  C   UNL     1       2.370   5.587  19.740  0.00  0.00    +0.000 A 
ATOM      7  N   UNL     1       3.016   4.882  18.791  0.00  0.00    +0.000 NA
ATOM      8  H   UNL     1       4.680   2.210  18.620  0.00  0.00    +0.000 HD
ENDROOT
BRANCH   1  12
ATOM      9  C   UNL     1       6.968   5.028  15.596  0.00  0.00    +0.000 A 
ATOM     10  C   UNL     1       5.821   4.451  15.068  0.00  0.00    +0.000 A 
ATOM     11  C   UNL     1       4.916   3.792  15.901  0.00  0.00    +0.000 A 
ATOM     12  C   UNL     1       5.162   3.651  17.273  0.00  0.00    +0.000 A 
ATOM     13  C   UNL     1       6.309   4.254  17.801  0.00  0.00    +0.000 A 
ATOM     14  C   UNL     1       7.218   4.925  16.966  0.00  0.00    +0.000 A 
BRANCH   9  16
ATOM     15  C   UNL     1       7.662   5.166  13.343  0.00  0.00    +0.000 C 
ATOM     16  O   UNL     1       7.779   5.638  14.679  0.00  0.00    +0.000 OA
ENDBRANCH   9  16
ENDBRANCH   1  12
BRANCH   6  17
ATOM     17  C   UNL     1       2.069   6.979  19.357  0.00  0.00    +0.000 A 
ATOM     18  C   UNL     1       2.401   7.437  18.068  0.00  0.00    +0.000 A 
ATOM     19  C   UNL     1       2.172   8.759  17.683  0.00  0.00    +0.000 A 
ATOM     20  C   UNL     1       1.625   9.655  18.594  0.00  0.00    +0.000 A 
ATOM     21  C   UNL     1       1.338   9.257  19.900  0.00  0.00    +0.000 A 
ATOM     22  C   UNL     1       1.513   7.910  20.255  0.00  0.00    +0.000 A 
BRANCH  21  23
ATOM     23  N   UNL     1       0.684  10.136  20.775  0.00  0.00    +0.000 N 
ATOM     24  H   UNL     1       1.208  10.314  21.627  0.00  0.00    +0.000 HD
ATOM     25  H   UNL     1      -0.278   9.879  20.968  0.00  0.00    +0.000 HD
ENDBRANCH  21  23
ENDBRANCH   6  17
TORSDOF 4
ENDMDL
MODEL 2
REMARK VINA RESULT:      -7.4      0.132      1.030
REMARK  Name = 
REMARK  5 active torsions:
REMARK  status: ('A' for Active; 'I' for Inactive)
REMARK    1  A    between atoms: C_1  and  O_2
REMARK    2  A    between atoms: O_2  and  C_3
REMARK    3  A    between atoms: C_6  and  N_7
REMARK    4  A    between atoms: C_12  and  C_13
REMARK    5  A    between atoms: C_17  and  N_18
REMARK                            x       y       z     vdW  Elec       q    Type
REMARK                         _______ _______ _______ _____ _____    ______ ____
ROOT
ATOM      1  N   UNL     1       4.276   2.997  18.070  0.00  0.00    +0.000 N 
ATOM      2  C   UNL     1       3.489   3.648  19.034  0.00  0.00    +0.000 A 
ATOM      3  N   UNL     1       3.275   3.026  20.200  0.00  0.00    +0.000 NA
ATOM      4  C   UNL     1       2.618   3.731  21.142  0.00  0.00    +0.000 A 
ATOM      5  C   UNL     1       2.195   5.032  20.979  0.00  0.00    +0.000 A 
ATOM      6  C   UNL     1       2.436   5.589  19.746  0.00  0.00    +0.000 A 
ATOM      7  N   UNL     1       3.050   4.885  18.775  0.00  0.00    +0.000 NA
ATOM      8  H   UNL     1       4.730   2.228  18.550  0.00  0.00    +0.000 HD
ENDROOT
BRANCH   1  12
ATOM      9  C   UNL     1       6.902   4.951  15.380  0.00  0.00    +0.000 A 
ATOM     10  C   UNL     1       7.155   4.976  16.745  0.00  0.00    +0.000 A 
ATOM     11  C   UNL     1       6.301   4.319  17.632  0.00  0.00    +0.000 A 
ATOM     12  C   UNL     1       5.147   3.666  17.179  0.00  0.00    +0.000 A 
ATOM     13  C   UNL     1       4.911   3.627  15.801  0.00  0.00    +0.000 A 
ATOM     14  C   UNL     1       5.773   4.280  14.905  0.00  0.00    +0.000 A 
BRANCH   9  16
ATOM     15  C   UNL     1       7.810   5.317  13.231  0.00  0.00    +0.000 C 
ATOM     16  O   UNL     1       7.805   5.637  14.616  0.00  0.00    +0.000 OA
ENDBRANCH   9  16
ENDBRANCH   1  12
BRANCH   6  17
ATOM     17  C   UNL     1       2.108   6.977  19.369  0.00  0.00    +0.000 A 
ATOM     18  C   UNL     1       2.440   7.450  18.086  0.00  0.00    +0.000 A 
ATOM     19  C   UNL     1       2.185   8.770  17.707  0.00  0.00    +0.000 A 
ATOM     20  C   UNL     1       1.612   9.648  18.619  0.00  0.00    +0.000 A 
ATOM     21  C   UNL     1       1.323   9.235  19.920  0.00  0.00    +0.000 A 
ATOM     22  C   UNL     1       1.524   7.890  20.268  0.00  0.00    +0.000 A 
BRANCH  21  23
ATOM     23  N   UNL     1       0.643  10.093  20.796  0.00  0.00    +0.000 N 
ATOM     24  H   UNL     1       1.265  10.674  21.349  0.00  0.00    +0.000 HD
ATOM     25  H   UNL     1      -0.051   9.626  21.370  0.00  0.00    +0.000 HD
ENDBRANCH  21  23
ENDBRANCH   6  17
TORSDOF 4
ENDMDL
MODEL 3
REMARK VINA RESULT:      -7.4      2.507      6.209
REMARK  Name = 
REMARK  5 active torsions:
REMARK  status: ('A' for Active; 'I' for Inactive)
REMARK    1  A    between atoms: C_1  and  O_2
REMARK    2  A    between atoms: O_2  and  C_3
REMARK    3  A    between atoms: C_6  and  N_7
REMARK    4  A    between atoms: C_12  and  C_13
REMARK    5  A    between atoms: C_17  and  N_18
REMARK                            x       y       z     vdW  Elec       q    Type
REMARK                         _______ _______ _______ _____ _____    ______ ____
ROOT
ATOM      1  N   UNL     1       2.201   5.864  20.899  0.00  0.00    +0.000 N 
ATOM      2  C   UNL     1       2.832   4.778  20.270  0.00  0.00    +0.000 A 
ATOM      3  N   UNL     1       2.447   3.542  20.610  0.00  0.00    +0.000 NA
ATOM      4  C   UNL     1       2.989   2.531  19.900  0.00  0.00    +0.000 A 
ATOM      5  C   UNL     1       3.868   2.706  18.854  0.00  0.00    +0.000 A 
ATOM      6  C   UNL     1       4.225   4.005  18.584  0.00  0.00    +0.000 A 
ATOM      7  N   UNL     1       3.732   5.025  19.311  0.00  0.00    +0.000 NA
ATOM      8  H   UNL     1       1.383   5.484  21.363  0.00  0.00    +0.000 HD
ENDROOT
BRANCH   1  12
ATOM      9  C   UNL     1       1.349   9.552  18.994  0.00  0.00    +0.000 A 
ATOM     10  C   UNL     1       2.024   8.550  18.308  0.00  0.00    +0.000 A 
ATOM     11  C   UNL     1       2.291   7.329  18.927  0.00  0.00    +0.000 A 
ATOM     12  C   UNL     1       1.935   7.099  20.263  0.00  0.00    +0.000 A 
ATOM     13  C   UNL     1       1.237   8.104  20.939  0.00  0.00    +0.000 A 
ATOM     14  C   UNL     1       0.959   9.332  20.317  0.00  0.00    +0.000 A 
BRANCH   9  16
ATOM     15  C   UNL     1       0.881  11.865  19.056  0.00  0.00    +0.000 C 
ATOM     16  O   UNL     1       1.154  10.704  18.283  0.00  0.00    +0.000 OA
ENDBRANCH   9  16
ENDBRANCH   1  12
BRANCH   6  17
ATOM     17  C   UNL     1       5.116   4.423  17.485  0.00  0.00    +0.000 A 
ATOM     18  C   UNL     1       5.170   3.664  16.301  0.00  0.00    +0.000 A 
ATOM     19  C   UNL     1       6.032   4.002  15.257  0.00  0.00    +0.000 A 
ATOM     20  C   UNL     1       6.876   5.099  15.390  0.00  0.00    +0.000 A 
ATOM     21  C   UNL     1       6.896   5.841  16.571  0.00  0.00    +0.000 A 
ATOM     22  C   UNL     1       5.980   5.531  17.587  0.00  0.00    +0.000 A 
BRANCH  21  23
ATOM     23  N   UNL     1       7.667   7.010  16.653  0.00  0.00    +0.000 N 
ATOM     24  H   UNL     1       8.661   6.843  16.529  0.00  0.00    +0.000 HD
ATOM     25  H   UNL     1       7.475   7.569  17.478  0.00  0.00    +0.000 HD
ENDBRANCH  21  23
ENDBRANCH   6  17
TORSDOF 4
ENDMDL
MODEL 4
REMARK VINA RESULT:      -7.4      2.554      6.266
REMARK  Name = 
REMARK  5 active torsions:
REMARK  status: ('A' for Active; 'I' for Inactive)
REMARK    1  A    between atoms: C_1  and  O_2
REMARK    2  A    between atoms: O_2  and  C_3
REMARK    3  A    between atoms: C_6  and  N_7
REMARK    4  A    between atoms: C_12  and  C_13
REMARK    5  A    between atoms: C_17  and  N_18
REMARK                            x       y       z     vdW  Elec       q    Type
REMARK                         _______ _______ _______ _____ _____    ______ ____
ROOT
ATOM      1  N   UNL     1       2.212   5.841  20.965  0.00  0.00    +0.000 N 
ATOM      2  C   UNL     1       2.868   4.766  20.343  0.00  0.00    +0.000 A 
ATOM      3  N   UNL     1       2.529   3.524  20.707  0.00  0.00    +0.000 NA
ATOM      4  C   UNL     1       3.092   2.520  20.004  0.00  0.00    +0.000 A 
ATOM      5  C   UNL     1       3.950   2.707  18.942  0.00  0.00    +0.000 A 
ATOM      6  C   UNL     1       4.261   4.013  18.647  0.00  0.00    +0.000 A 
ATOM      7  N   UNL     1       3.745   5.028  19.367  0.00  0.00    +0.000 NA
ATOM      8  H   UNL     1       1.413   5.442  21.447  0.00  0.00    +0.000 HD
ENDROOT
BRANCH   1  12
ATOM      9  C   UNL     1       1.324   9.497  19.015  0.00  0.00    +0.000 A 
ATOM     10  C   UNL     1       0.915   9.286  20.326  0.00  0.00    +0.000 A 
ATOM     11  C   UNL     1       1.220   8.090  20.976  0.00  0.00    +0.000 A 
ATOM     12  C   UNL     1       1.897   7.056  20.315  0.00  0.00    +0.000 A 
ATOM     13  C   UNL     1       2.324   7.285  19.003  0.00  0.00    +0.000 A 
ATOM     14  C   UNL     1       2.026   8.491  18.348  0.00  0.00    +0.000 A 
BRANCH   9  16
ATOM     15  C   UNL     1      -0.421  11.031  18.593  0.00  0.00    +0.000 C 
ATOM     16  O   UNL     1       0.958  10.703  18.486  0.00  0.00    +0.000 OA
ENDBRANCH   9  16
ENDBRANCH   1  12
BRANCH   6  17
ATOM     17  C   UNL     1       5.121   4.442  17.529  0.00  0.00    +0.000 A 
ATOM     18  C   UNL     1       5.128   3.706  16.329  0.00  0.00    +0.000 A 
ATOM     19  C   UNL     1       5.961   4.056  15.265  0.00  0.00    +0.000 A 
ATOM     20  C   UNL     1       6.821   5.139  15.393  0.00  0.00    +0.000 A 
ATOM     21  C   UNL     1       6.889   5.858  16.586  0.00  0.00    +0.000 A 
ATOM     22  C   UNL     1       6.001   5.538  17.625  0.00  0.00    +0.000 A 
BRANCH  21  23
ATOM     23  N   UNL     1       7.676   7.015  16.667  0.00  0.00    +0.000 N 
ATOM     24  H   UNL     1       7.925   7.393  15.758  0.00  0.00    +0.000 HD
ATOM     25  H   UNL     1       8.483   6.919  17.273  0.00  0.00    +0.000 HD
ENDBRANCH  21  23
ENDBRANCH   6  17
TORSDOF 4
ENDMDL
MODEL 5
REMARK VINA RESULT:      -7.2      2.121      2.751
REMARK  Name = 
REMARK  5 active torsions:
REMARK  status: ('A' for Active; 'I' for Inactive)
REMARK    1  A    between atoms: C_1  and  O_2
REMARK    2  A    between atoms: O_2  and  C_3
REMARK    3  A    between atoms: C_6  and  N_7
REMARK    4  A    between atoms: C_12  and  C_13
REMARK    5  A    between atoms: C_17  and  N_18
REMARK                            x       y       z     vdW  Elec       q    Type
REMARK                         _______ _______ _______ _____ _____    ______ ____
ROOT
ATOM      1  N   UNL     1       5.033   4.410  18.540  0.00  0.00    +0.000 N 
ATOM      2  C   UNL     1       3.861   4.560  19.299  0.00  0.00    +0.000 A 
ATOM      3  N   UNL     1       3.454   3.523  20.042  0.00  0.00    +0.000 NA
ATOM      4  C   UNL     1       2.395   3.744  20.846  0.00  0.00    +0.000 A 
ATOM      5  C   UNL     1       1.751   4.957  20.961  0.00  0.00    +0.000 A 
ATOM      6  C   UNL     1       2.219   5.961  20.148  0.00  0.00    +0.000 A 
ATOM      7  N   UNL     1       3.246   5.748  19.303  0.00  0.00    +0.000 NA
ATOM      8  H   UNL     1       5.486   3.570  18.883  0.00  0.00    +0.000 HD
ENDROOT
BRANCH   1  12
ATOM      9  C   UNL     1       7.776   7.567  17.855  0.00  0.00    +0.000 A 
ATOM     10  C   UNL     1       6.617   7.471  17.096  0.00  0.00    +0.000 A 
ATOM     11  C   UNL     1       5.704   6.442  17.330  0.00  0.00    +0.000 A 
ATOM     12  C   UNL     1       5.953   5.456  18.294  0.00  0.00    +0.000 A 
ATOM     13  C   UNL     1       7.112   5.572  19.069  0.00  0.00    +0.000 A 
ATOM     14  C   UNL     1       8.029   6.611  18.841  0.00  0.00    +0.000 A 
BRANCH   9  16
ATOM     15  C   UNL     1       8.615   9.692  18.449  0.00  0.00    +0.000 C 
ATOM     16  O   UNL     1       8.594   8.612  17.525  0.00  0.00    +0.000 OA
ENDBRANCH   9  16
ENDBRANCH   1  12
BRANCH   6  17
ATOM     17  C   UNL     1       1.707   7.345  20.137  0.00  0.00    +0.000 A 
ATOM     18  C   UNL     1       0.991   7.834  21.246  0.00  0.00    +0.000 A 
ATOM     19  C   UNL     1       0.454   9.122  21.256  0.00  0.00    +0.000 A 
ATOM     20  C   UNL     1       0.604   9.938  20.142  0.00  0.00    +0.000 A 
ATOM     21  C   UNL     1       1.255   9.470  19.000  0.00  0.00    +0.000 A 
ATOM     22  C   UNL     1       1.847   8.198  19.026  0.00  0.00    +0.000 A 
BRANCH  21  23
ATOM     23  N   UNL     1       1.501  10.337  17.925  0.00  0.00    +0.000 N 
ATOM     24  H   UNL     1       0.694  10.899  17.673  0.00  0.00    +0.000 HD
ATOM     25  H   UNL     1       1.913   9.881  17.118  0.00  0.00    +0.000 HD
ENDBRANCH  21  23
ENDBRANCH   6  17
TORSDOF 4
ENDMDL
MODEL 6
REMARK VINA RESULT:      -7.2      3.656      5.312
REMARK  Name = 
REMARK  5 active torsions:
REMARK  status: ('A' for Active; 'I' for Inactive)
REMARK    1  A    between atoms: C_1  and  O_2
REMARK    2  A    between atoms: O_2  and  C_3
REMARK    3  A    between atoms: C_6  and  N_7
REMARK    4  A    between atoms: C_12  and  C_13
REMARK    5  A    between atoms: C_17  and  N_18
REMARK                            x       y       z     vdW  Elec       q    Type
REMARK                         _______ _______ _______ _____ _____    ______ ____
ROOT
ATOM      1  N   UNL     1       7.575   5.056  14.905  0.00  0.00    +0.000 N 
ATOM      2  C   UNL     1       7.123   5.302  16.212  0.00  0.00    +0.000 A 
ATOM      3  N   UNL     1       7.555   6.407  16.831  0.00  0.00    +0.000 NA
ATOM      4  C   UNL     1       7.009   6.670  18.035  0.00  0.00    +0.000 A 
ATOM      5  C   UNL     1       6.034   5.896  18.627  0.00  0.00    +0.000 A 
ATOM      6  C   UNL     1       5.662   4.769  17.934  0.00  0.00    +0.000 A 
ATOM      7  N   UNL     1       6.230   4.464  16.751  0.00  0.00    +0.000 NA
ATOM      8  H   UNL     1       8.000   5.920  14.586  0.00  0.00    +0.000 HD
ENDROOT
BRANCH   1  12
ATOM      9  C   UNL     1       5.230   3.256  11.868  0.00  0.00    +0.000 A 
ATOM     10  C   UNL     1       4.652   3.607  13.082  0.00  0.00    +0.000 A 
ATOM     11  C   UNL     1       5.418   4.215  14.077  0.00  0.00    +0.000 A 
ATOM     12  C   UNL     1       6.790   4.440  13.902  0.00  0.00    +0.000 A 
ATOM     13  C   UNL     1       7.360   4.103  12.670  0.00  0.00    +0.000 A 
ATOM     14  C   UNL     1       6.590   3.498  11.662  0.00  0.00    +0.000 A 
BRANCH   9  16
ATOM     15  C   UNL     1       3.385   3.507  10.417  0.00  0.00    +0.000 C 
ATOM     16  O   UNL     1       4.380   2.661  10.978  0.00  0.00    +0.000 OA
ENDBRANCH   9  16
ENDBRANCH   1  12
BRANCH   6  17
ATOM     17  C   UNL     1       4.611   3.826  18.360  0.00  0.00    +0.000 A 
ATOM     18  C   UNL     1       3.905   3.084  17.395  0.00  0.00    +0.000 A 
ATOM     19  C   UNL     1       2.874   2.214  17.755  0.00  0.00    +0.000 A 
ATOM     20  C   UNL     1       2.517   2.090  19.092  0.00  0.00    +0.000 A 
ATOM     21  C   UNL     1       3.151   2.852  20.073  0.00  0.00    +0.000 A 
ATOM     22  C   UNL     1       4.228   3.674  19.706  0.00  0.00    +0.000 A 
BRANCH  21  23
ATOM     23  N   UNL     1       2.861   2.637  21.428  0.00  0.00    +0.000 N 
ATOM     24  H   UNL     1       2.730   1.657  21.658  0.00  0.00    +0.000 HD
ATOM     25  H   UNL     1       2.106   3.215  21.781  0.00  0.00    +0.000 HD
ENDBRANCH  21  23
ENDBRANCH   6  17
TORSDOF 4
ENDMDL
MODEL 7
REMARK VINA RESULT:      -7.2      2.393      6.355
REMARK  Name = 
REMARK  5 active torsions:
REMARK  status: ('A' for Active; 'I' for Inactive)
REMARK    1  A    between atoms: C_1  and  O_2
REMARK    2  A    between atoms: O_2  and  C_3
REMARK    3  A    between atoms: C_6  and  N_7
REMARK    4  A    between atoms: C_12  and  C_13
REMARK    5  A    between atoms: C_17  and  N_18
REMARK                            x       y       z     vdW  Elec       q    Type
REMARK                         _______ _______ _______ _____ _____    ______ ____
ROOT
ATOM      1  N   UNL     1       2.224   5.821  20.872  0.00  0.00    +0.000 N 
ATOM      2  C   UNL     1       2.889   4.740  20.272  0.00  0.00    +0.000 A 
ATOM      3  N   UNL     1       2.500   3.501  20.598  0.00  0.00    +0.000 NA
ATOM      4  C   UNL     1       3.080   2.493  19.915  0.00  0.00    +0.000 A 
ATOM      5  C   UNL     1       4.001   2.672  18.907  0.00  0.00    +0.000 A 
ATOM      6  C   UNL     1       4.360   3.974  18.649  0.00  0.00    +0.000 A 
ATOM      7  N   UNL     1       3.828   4.992  19.352  0.00  0.00    +0.000 NA
ATOM      8  H   UNL     1       1.390   5.437  21.301  0.00  0.00    +0.000 HD
ENDROOT
BRANCH   1  12
ATOM      9  C   UNL     1       1.426   9.499  18.924  0.00  0.00    +0.000 A 
ATOM     10  C   UNL     1       2.109   8.490  18.258  0.00  0.00    +0.000 A 
ATOM     11  C   UNL     1       2.359   7.272  18.891  0.00  0.00    +0.000 A 
ATOM     12  C   UNL     1       1.976   7.053  20.222  0.00  0.00    +0.000 A 
ATOM     13  C   UNL     1       1.269   8.066  20.877  0.00  0.00    +0.000 A 
ATOM     14  C   UNL     1       1.009   9.291  20.241  0.00  0.00    +0.000 A 
BRANCH   9  16
ATOM     15  C   UNL     1       1.106  11.839  18.964  0.00  0.00    +0.000 C 
ATOM     16  O   UNL     1       1.249  10.647  18.202  0.00  0.00    +0.000 OA
ENDBRANCH   9  16
ENDBRANCH   1  12
BRANCH   6  17
ATOM     17  C   UNL     1       5.293   4.397  17.588  0.00  0.00    +0.000 A 
ATOM     18  C   UNL     1       6.140   5.501  17.801  0.00  0.00    +0.000 A 
ATOM     19  C   UNL     1       7.005   5.958  16.806  0.00  0.00    +0.000 A 
ATOM     20  C   UNL     1       7.022   5.328  15.567  0.00  0.00    +0.000 A 
ATOM     21  C   UNL     1       6.157   4.268  15.296  0.00  0.00    +0.000 A 
ATOM     22  C   UNL     1       5.338   3.777  16.325  0.00  0.00    +0.000 A 
BRANCH  21  23
ATOM     23  N   UNL     1       6.260   3.568  14.085  0.00  0.00    +0.000 N 
ATOM     24  H   UNL     1       6.171   4.165  13.270  0.00  0.00    +0.000 HD
ATOM     25  H   UNL     1       5.654   2.756  14.030  0.00  0.00    +0.000 HD
ENDBRANCH  21  23
ENDBRANCH   6  17
TORSDOF 4
ENDMDL
MODEL 8
REMARK VINA RESULT:      -7.2      2.421      6.417
REMARK  Name = 
REMARK  5 active torsions:
REMARK  status: ('A' for Active; 'I' for Inactive)
REMARK    1  A    between atoms: C_1  and  O_2
REMARK    2  A    between atoms: O_2  and  C_3
REMARK    3  A    between atoms: C_6  and  N_7
REMARK    4  A    between atoms: C_12  and  C_13
REMARK    5  A    between atoms: C_17  and  N_18
REMARK                            x       y       z     vdW  Elec       q    Type
REMARK                         _______ _______ _______ _____ _____    ______ ____
ROOT
ATOM      1  N   UNL     1       2.209   5.849  20.884  0.00  0.00    +0.000 N 
ATOM      2  C   UNL     1       2.897   4.767  20.311  0.00  0.00    +0.000 A 
ATOM      3  N   UNL     1       2.535   3.529  20.669  0.00  0.00    +0.000 NA
ATOM      4  C   UNL     1       3.135   2.517  20.010  0.00  0.00    +0.000 A 
ATOM      5  C   UNL     1       4.051   2.691  18.996  0.00  0.00    +0.000 A 
ATOM      6  C   UNL     1       4.381   3.993  18.704  0.00  0.00    +0.000 A 
ATOM      7  N   UNL     1       3.828   5.017  19.383  0.00  0.00    +0.000 NA
ATOM      8  H   UNL     1       1.384   5.458  21.325  0.00  0.00    +0.000 HD
ENDROOT
BRANCH   1  12
ATOM      9  C   UNL     1       1.440   9.483  18.845  0.00  0.00    +0.000 A 
ATOM     10  C   UNL     1       1.016   9.315  20.157  0.00  0.00    +0.000 A 
ATOM     11  C   UNL     1       1.283   8.126  20.836  0.00  0.00    +0.000 A 
ATOM     12  C   UNL     1       1.934   7.058  20.204  0.00  0.00    +0.000 A 
ATOM     13  C   UNL     1       2.376   7.244  18.890  0.00  0.00    +0.000 A 
ATOM     14  C   UNL     1       2.117   8.443  18.205  0.00  0.00    +0.000 A 
BRANCH   9  16
ATOM     15  C   UNL     1      -0.041  11.323  18.821  0.00  0.00    +0.000 C 
ATOM     16  O   UNL     1       1.113  10.687  18.286  0.00  0.00    +0.000 OA
ENDBRANCH   9  16
ENDBRANCH   1  12
BRANCH   6  17
ATOM     17  C   UNL     1       5.303   4.409  17.631  0.00  0.00    +0.000 A 
ATOM     18  C   UNL     1       6.147   5.519  17.826  0.00  0.00    +0.000 A 
ATOM     19  C   UNL     1       7.002   5.969  16.818  0.00  0.00    +0.000 A 
ATOM     20  C   UNL     1       7.011   5.327  15.586  0.00  0.00    +0.000 A 
ATOM     21  C   UNL     1       6.148   4.260  15.333  0.00  0.00    +0.000 A 
ATOM     22  C   UNL     1       5.340   3.776  16.374  0.00  0.00    +0.000 A 
BRANCH  21  23
ATOM     23  N   UNL     1       6.244   3.548  14.129  0.00  0.00    +0.000 N 
ATOM     24  H   UNL     1       6.821   4.013  13.435  0.00  0.00    +0.000 HD
ATOM     25  H   UNL     1       5.347   3.265  13.749  0.00  0.00    +0.000 HD
ENDBRANCH  21  23
ENDBRANCH   6  17
TORSDOF 4
ENDMDL
MODEL 9
REMARK VINA RESULT:      -7.2      3.619      7.467
REMARK  Name = 
REMARK  5 active torsions:
REMARK  status: ('A' for Active; 'I' for Inactive)
REMARK    1  A    between atoms: C_1  and  O_2
REMARK    2  A    between atoms: O_2  and  C_3
REMARK    3  A    between atoms: C_6  and  N_7
REMARK    4  A    between atoms: C_12  and  C_13
REMARK    5  A    between atoms: C_17  and  N_18
REMARK                            x       y       z     vdW  Elec       q    Type
REMARK                         _______ _______ _______ _____ _____    ______ ____
ROOT
ATOM      1  N   UNL     1       2.035   9.085  18.198  0.00  0.00    +0.000 N 
ATOM      2  C   UNL     1       2.705   7.890  17.888  0.00  0.00    +0.000 A 
ATOM      3  N   UNL     1       3.854   7.970  17.206  0.00  0.00    +0.000 NA
ATOM      4  C   UNL     1       4.527   6.815  17.030  0.00  0.00    +0.000 A 
ATOM      5  C   UNL     1       4.118   5.599  17.531  0.00  0.00    +0.000 A 
ATOM      6  C   UNL     1       2.919   5.601  18.202  0.00  0.00    +0.000 A 
ATOM      7  N   UNL     1       2.208   6.736  18.347  0.00  0.00    +0.000 NA
ATOM      8  H   UNL     1       2.695   9.833  18.018  0.00  0.00    +0.000 HD
ENDROOT
BRANCH   1  12
ATOM      9  C   UNL     1      -0.190   9.647  21.760  0.00  0.00    +0.000 A 
ATOM     10  C   UNL     1      -0.486  10.392  20.626  0.00  0.00    +0.000 A 
ATOM     11  C   UNL     1       0.234  10.197  19.448  0.00  0.00    +0.000 A 
ATOM     12  C   UNL     1       1.300   9.290  19.389  0.00  0.00    +0.000 A 
ATOM     13  C   UNL     1       1.577   8.528  20.529  0.00  0.00    +0.000 A 
ATOM     14  C   UNL     1       0.849   8.715  21.715  0.00  0.00    +0.000 A 
BRANCH   9  16
ATOM     15  C   UNL     1      -1.282  11.306  23.037  0.00  0.00    +0.000 C 
ATOM     16  O   UNL     1      -0.960   9.934  22.853  0.00  0.00    +0.000 OA
ENDBRANCH   9  16
ENDBRANCH   1  12
BRANCH   6  17
ATOM     17  C   UNL     1       2.315   4.424  18.854  0.00  0.00    +0.000 A 
ATOM     18  C   UNL     1       1.525   3.535  18.101  0.00  0.00    +0.000 A 
ATOM     19  C   UNL     1       0.902   2.435  18.691  0.00  0.00    +0.000 A 
ATOM     20  C   UNL     1       1.041   2.217  20.056  0.00  0.00    +0.000 A 
ATOM     21  C   UNL     1       1.765   3.107  20.849  0.00  0.00    +0.000 A 
ATOM     22  C   UNL     1       2.440   4.173  20.234  0.00  0.00    +0.000 A 
BRANCH  21  23
ATOM     23  N   UNL     1       1.994   2.818  22.202  0.00  0.00    +0.000 N 
ATOM     24  H   UNL     1       2.977   2.839  22.455  0.00  0.00    +0.000 HD
ATOM     25  H   UNL     1       1.538   1.970  22.522  0.00  0.00    +0.000 HD
ENDBRANCH  21  23
ENDBRANCH   6  17
TORSDOF 4
ENDMDL
