MODEL 1
REMARK VINA RESULT:      -8.4      0.000      0.000
REMARK  Name = 
REMARK  10 active torsions:
REMARK  status: ('A' for Active; 'I' for Inactive)
REMARK    1  A    between atoms: C_1  and  C_2
REMARK    2  A    between atoms: C_2  and  C_3
REMARK    3  A    between atoms: C_3  and  N_4
REMARK    4  A    between atoms: C_13  and  C_14
REMARK    5  A    between atoms: C_14  and  C_15
REMARK    6  A    between atoms: C_15  and  C_16
REMARK    7  A    between atoms: C_16  and  C_17
REMARK    8  A    between atoms: N_19  and  C_20
REMARK    9  A    between atoms: C_23  and  O_24
REMARK   10  A    between atoms: O_24  and  C_25
REMARK                            x       y       z     vdW  Elec       q    Type
REMARK                         _______ _______ _______ _____ _____    ______ ____
ROOT
ATOM      1  C   UNL     1       1.867   7.547  21.234  0.00  0.00    +0.000 C 
ENDROOT
BRANCH   1   2
ATOM      2  C   UNL     1       1.186   8.626  20.383  0.00  0.00    +0.000 C 
BRANCH   2  12
ATOM      3  N   UNL     1      -1.904  12.224  21.717  0.00  0.00    +0.000 N 
ATOM      4  C   UNL     1      -2.576  12.429  20.492  0.00  0.00    +0.000 A 
ATOM      5  O   UNL     1      -3.470  13.266  20.374  0.00  0.00    +0.000 OA
ATOM      6  C   UNL     1      -2.135  11.580  19.387  0.00  0.00    +0.000 A 
ATOM      7  S   UNL     1      -2.813  11.659  17.828  0.00  0.00    +0.000 S 
ATOM      8  C   UNL     1      -1.764  10.428  17.254  0.00  0.00    +0.000 A 
ATOM      9  C   UNL     1      -0.911   9.964  18.235  0.00  0.00    +0.000 A 
ATOM     10  C   UNL     1      -1.140  10.631  19.464  0.00  0.00    +0.000 A 
ATOM     11  N   UNL     1      -0.522  10.473  20.721  0.00  0.00    +0.000 N 
ATOM     12  C   UNL     1       0.469   9.643  21.196  0.00  0.00    +0.000 A 
ATOM     13  N   UNL     1       0.660   9.902  22.476  0.00  0.00    +0.000 NA
ATOM     14  N   UNL     1      -0.205  10.897  22.853  0.00  0.00    +0.000 NA
ATOM     15  C   UNL     1      -0.911  11.243  21.799  0.00  0.00    +0.000 A 
BRANCH   3  16
ATOM     16  C   UNL     1      -2.260  13.029  22.884  0.00  0.00    +0.000 C 
BRANCH  16  18
ATOM     17  C   UNL     1      -4.702  12.954  23.609  0.00  0.00    +0.000 C 
ATOM     18  C   UNL     1      -3.307  12.373  23.790  0.00  0.00    +0.000 C 
ENDBRANCH  16  18
ENDBRANCH   3  16
ENDBRANCH   2  12
ENDBRANCH   1   2
BRANCH   1  19
ATOM     19  C   UNL     1       1.469   6.141  20.783  0.00  0.00    +0.000 C 
BRANCH  19  20
ATOM     20  C   UNL     1       2.311   5.710  19.595  0.00  0.00    +0.000 C 
ATOM     21  O   UNL     1       1.908   4.833  18.840  0.00  0.00    +0.000 OA
ATOM     22  N   UNL     1       3.526   6.365  19.507  0.00  0.00    +0.000 N 
ATOM     23  H   UNL     1       3.787   6.987  20.260  0.00  0.00    +0.000 HD
BRANCH  22  24
ATOM     24  C   UNL     1       4.505   6.138  18.513  0.00  0.00    +0.000 A 
ATOM     25  C   UNL     1       4.569   6.876  17.328  0.00  0.00    +0.000 A 
ATOM     26  C   UNL     1       5.555   6.615  16.376  0.00  0.00    +0.000 A 
ATOM     27  C   UNL     1       6.495   5.618  16.605  0.00  0.00    +0.000 A 
ATOM     28  C   UNL     1       6.413   4.842  17.765  0.00  0.00    +0.000 A 
ATOM     29  C   UNL     1       5.445   5.128  18.732  0.00  0.00    +0.000 A 
BRANCH  27  30
ATOM     30  O   UNL     1       7.425   5.430  15.614  0.00  0.00    +0.000 OA
BRANCH  30  31
ATOM     31  C   UNL     1       7.051   4.811  14.444  0.00  0.00    +0.000 A 
ATOM     32  C   UNL     1       7.782   5.173  13.311  0.00  0.00    +0.000 A 
ATOM     33  C   UNL     1       7.474   4.616  12.071  0.00  0.00    +0.000 A 
ATOM     34  C   UNL     1       6.433   3.694  11.962  0.00  0.00    +0.000 A 
ATOM     35  C   UNL     1       5.725   3.301  13.097  0.00  0.00    +0.000 A 
ATOM     36  C   UNL     1       6.053   3.838  14.342  0.00  0.00    +0.000 A 
ENDBRANCH  30  31
ENDBRANCH  27  30
ENDBRANCH  22  24
ENDBRANCH  19  20
ENDBRANCH   1  19
TORSDOF 9
ENDMDL
MODEL 2
REMARK VINA RESULT:      -8.0      2.114      3.526
REMARK  Name = 
REMARK  10 active torsions:
REMARK  status: ('A' for Active; 'I' for Inactive)
REMARK    1  A    between atoms: C_1  and  C_2
REMARK    2  A    between atoms: C_2  and  C_3
REMARK    3  A    between atoms: C_3  and  N_4
REMARK    4  A    between atoms: C_13  and  C_14
REMARK    5  A    between atoms: C_14  and  C_15
REMARK    6  A    between atoms: C_15  and  C_16
REMARK    7  A    between atoms: C_16  and  C_17
REMARK    8  A    between atoms: N_19  and  C_20
REMARK    9  A    between atoms: C_23  and  O_24
REMARK   10  A    between atoms: O_24  and  C_25
REMARK                            x       y       z     vdW  Elec       q    Type
REMARK                         _______ _______ _______ _____ _____    ______ ____
ROOT
ATOM      1  C   UNL     1       1.613   6.202  20.254  0.00  0.00    +0.000 C 
ENDROOT
BRANCH   1   2
ATOM      2  C   UNL     1       2.264   7.591  20.202  0.00  0.00    +0.000 C 
BRANCH   2  12
ATOM      3  N   UNL     1      -0.859  11.205  18.999  0.00  0.00    +0.000 N 
ATOM      4  C   UNL     1      -1.326  11.558  20.285  0.00  0.00    +0.000 A 
ATOM      5  O   UNL     1      -2.147  12.458  20.454  0.00  0.00    +0.000 OA
ATOM      6  C   UNL     1      -0.763  10.781  21.387  0.00  0.00    +0.000 A 
ATOM      7  S   UNL     1      -1.182  11.044  23.016  0.00  0.00    +0.000 S 
ATOM      8  C   UNL     1      -0.140   9.785  23.540  0.00  0.00    +0.000 A 
ATOM      9  C   UNL     1       0.517   9.174  22.491  0.00  0.00    +0.000 A 
ATOM     10  C   UNL     1       0.155   9.764  21.254  0.00  0.00    +0.000 A 
ATOM     11  N   UNL     1       0.584   9.475  19.943  0.00  0.00    +0.000 N 
ATOM     12  C   UNL     1       1.478   8.573  19.411  0.00  0.00    +0.000 A 
ATOM     13  N   UNL     1       1.515   8.737  18.102  0.00  0.00    +0.000 NA
ATOM     14  N   UNL     1       0.653   9.749  17.764  0.00  0.00    +0.000 NA
ATOM     15  C   UNL     1       0.091  10.188  18.868  0.00  0.00    +0.000 A 
BRANCH   3  16
ATOM     16  C   UNL     1      -1.367  11.913  17.824  0.00  0.00    +0.000 C 
BRANCH  16  18
ATOM     17  C   UNL     1      -2.529  10.370  16.162  0.00  0.00    +0.000 C 
ATOM     18  C   UNL     1      -2.698  11.364  17.301  0.00  0.00    +0.000 C 
ENDBRANCH  16  18
ENDBRANCH   3  16
ENDBRANCH   2  12
ENDBRANCH   1   2
BRANCH   1  19
ATOM     19  C   UNL     1       2.664   5.091  20.312  0.00  0.00    +0.000 C 
BRANCH  19  20
ATOM     20  C   UNL     1       3.108   4.713  18.910  0.00  0.00    +0.000 C 
ATOM     21  O   UNL     1       2.464   3.899  18.258  0.00  0.00    +0.000 OA
ATOM     22  N   UNL     1       4.277   5.334  18.511  0.00  0.00    +0.000 N 
ATOM     23  H   UNL     1       4.773   5.898  19.188  0.00  0.00    +0.000 HD
BRANCH  22  24
ATOM     24  C   UNL     1       4.919   5.142  17.266  0.00  0.00    +0.000 A 
ATOM     25  C   UNL     1       5.565   3.951  16.920  0.00  0.00    +0.000 A 
ATOM     26  C   UNL     1       6.185   3.809  15.678  0.00  0.00    +0.000 A 
ATOM     27  C   UNL     1       6.155   4.855  14.763  0.00  0.00    +0.000 A 
ATOM     28  C   UNL     1       5.552   6.066  15.115  0.00  0.00    +0.000 A 
ATOM     29  C   UNL     1       4.904   6.194  16.348  0.00  0.00    +0.000 A 
BRANCH  27  30
ATOM     30  O   UNL     1       6.791   4.627  13.569  0.00  0.00    +0.000 OA
BRANCH  30  31
ATOM     31  C   UNL     1       6.267   3.711  12.687  0.00  0.00    +0.000 A 
ATOM     32  C   UNL     1       4.923   3.895  12.358  0.00  0.00    +0.000 A 
ATOM     33  C   UNL     1       4.289   3.011  11.485  0.00  0.00    +0.000 A 
ATOM     34  C   UNL     1       5.000   1.943  10.938  0.00  0.00    +0.000 A 
ATOM     35  C   UNL     1       6.352   1.778  11.235  0.00  0.00    +0.000 A 
ATOM     36  C   UNL     1       6.993   2.678  12.087  0.00  0.00    +0.000 A 
ENDBRANCH  30  31
ENDBRANCH  27  30
ENDBRANCH  22  24
ENDBRANCH  19  20
ENDBRANCH   1  19
TORSDOF 9
ENDMDL
MODEL 3
REMARK VINA RESULT:      -7.9      2.317      4.689
REMARK  Name = 
REMARK  10 active torsions:
REMARK  status: ('A' for Active; 'I' for Inactive)
REMARK    1  A    between atoms: C_1  and  C_2
REMARK    2  A    between atoms: C_2  and  C_3
REMARK    3  A    between atoms: C_3  and  N_4
REMARK    4  A    between atoms: C_13  and  C_14
REMARK    5  A    between atoms: C_14  and  C_15
REMARK    6  A    between atoms: C_15  and  C_16
REMARK    7  A    between atoms: C_16  and  C_17
REMARK    8  A    between atoms: N_19  and  C_20
REMARK    9  A    between atoms: C_23  and  O_24
REMARK   10  A    between atoms: O_24  and  C_25
REMARK                            x       y       z     vdW  Elec       q    Type
REMARK                         _______ _______ _______ _____ _____    ______ ____
ROOT
ATOM      1  C   UNL     1       0.544  11.008  21.586  0.00  0.00    +0.000 C 
ENDROOT
BRANCH   1   2
ATOM      2  C   UNL     1      -0.588  11.941  21.136  0.00  0.00    +0.000 C 
BRANCH   2  12
ATOM      3  N   UNL     1      -3.996  11.236  17.649  0.00  0.00    +0.000 N 
ATOM      4  C   UNL     1      -5.052  12.004  18.188  0.00  0.00    +0.000 A 
ATOM      5  O   UNL     1      -6.134  12.115  17.612  0.00  0.00    +0.000 OA
ATOM      6  C   UNL     1      -4.764  12.653  19.465  0.00  0.00    +0.000 A 
ATOM      7  S   UNL     1      -5.892  13.629  20.285  0.00  0.00    +0.000 S 
ATOM      8  C   UNL     1      -4.788  13.918  21.566  0.00  0.00    +0.000 A 
ATOM      9  C   UNL     1      -3.578  13.282  21.372  0.00  0.00    +0.000 A 
ATOM     10  C   UNL     1      -3.574  12.562  20.152  0.00  0.00    +0.000 A 
ATOM     11  N   UNL     1      -2.562  11.788  19.549  0.00  0.00    +0.000 N 
ATOM     12  C   UNL     1      -1.267  11.478  19.898  0.00  0.00    +0.000 A 
ATOM     13  N   UNL     1      -0.745  10.717  18.954  0.00  0.00    +0.000 NA
ATOM     14  N   UNL     1      -1.689  10.525  17.977  0.00  0.00    +0.000 NA
ATOM     15  C   UNL     1      -2.780  11.164  18.336  0.00  0.00    +0.000 A 
BRANCH   3  16
ATOM     16  C   UNL     1      -4.182  10.536  16.379  0.00  0.00    +0.000 C 
BRANCH  16  18
ATOM     17  C   UNL     1      -3.042  10.015  14.161  0.00  0.00    +0.000 C 
ATOM     18  C   UNL     1      -3.277  11.047  15.254  0.00  0.00    +0.000 C 
ENDBRANCH  16  18
ENDBRANCH   3  16
ENDBRANCH   2  12
ENDBRANCH   1   2
BRANCH   1  19
ATOM     19  C   UNL     1       0.003   9.790  22.337  0.00  0.00    +0.000 C 
BRANCH  19  20
ATOM     20  C   UNL     1       0.248   8.524  21.535  0.00  0.00    +0.000 C 
ATOM     21  O   UNL     1      -0.628   7.672  21.446  0.00  0.00    +0.000 OA
ATOM     22  N   UNL     1       1.517   8.447  20.990  0.00  0.00    +0.000 N 
ATOM     23  H   UNL     1       2.184   9.166  21.234  0.00  0.00    +0.000 HD
BRANCH  22  24
ATOM     24  C   UNL     1       2.010   7.369  20.220  0.00  0.00    +0.000 A 
ATOM     25  C   UNL     1       2.105   6.064  20.713  0.00  0.00    +0.000 A 
ATOM     26  C   UNL     1       2.599   5.033  19.914  0.00  0.00    +0.000 A 
ATOM     27  C   UNL     1       2.993   5.295  18.607  0.00  0.00    +0.000 A 
ATOM     28  C   UNL     1       2.946   6.603  18.118  0.00  0.00    +0.000 A 
ATOM     29  C   UNL     1       2.420   7.629  18.910  0.00  0.00    +0.000 A 
BRANCH  27  30
ATOM     30  O   UNL     1       3.468   4.221  17.896  0.00  0.00    +0.000 OA
BRANCH  30  31
ATOM     31  C   UNL     1       4.670   4.325  17.236  0.00  0.00    +0.000 A 
ATOM     32  C   UNL     1       5.792   4.482  18.053  0.00  0.00    +0.000 A 
ATOM     33  C   UNL     1       7.058   4.613  17.484  0.00  0.00    +0.000 A 
ATOM     34  C   UNL     1       7.204   4.586  16.097  0.00  0.00    +0.000 A 
ATOM     35  C   UNL     1       6.091   4.393  15.280  0.00  0.00    +0.000 A 
ATOM     36  C   UNL     1       4.828   4.234  15.851  0.00  0.00    +0.000 A 
ENDBRANCH  30  31
ENDBRANCH  27  30
ENDBRANCH  22  24
ENDBRANCH  19  20
ENDBRANCH   1  19
TORSDOF 9
ENDMDL
MODEL 4
REMARK VINA RESULT:      -7.9      4.429      6.752
REMARK  Name = 
REMARK  10 active torsions:
REMARK  status: ('A' for Active; 'I' for Inactive)
REMARK    1  A    between atoms: C_1  and  C_2
REMARK    2  A    between atoms: C_2  and  C_3
REMARK    3  A    between atoms: C_3  and  N_4
REMARK    4  A    between atoms: C_13  and  C_14
REMARK    5  A    between atoms: C_14  and  C_15
REMARK    6  A    between atoms: C_15  and  C_16
REMARK    7  A    between atoms: C_16  and  C_17
REMARK    8  A    between atoms: N_19  and  C_20
REMARK    9  A    between atoms: C_23  and  O_24
REMARK   10  A    between atoms: O_24  and  C_25
REMARK                            x       y       z     vdW  Elec       q    Type
REMARK                         _______ _______ _______ _____ _____    ______ ____
ROOT
ATOM      1  C   UNL     1      -1.426  12.539  21.076  0.00  0.00    +0.000 C 
ENDROOT
BRANCH   1   2
ATOM      2  C   UNL     1      -0.897  13.976  21.181  0.00  0.00    +0.000 C 
BRANCH   2  12
ATOM      3  N   UNL     1       3.310  15.532  19.146  0.00  0.00    +0.000 N 
ATOM      4  C   UNL     1       2.820  16.609  18.374  0.00  0.00    +0.000 A 
ATOM      5  O   UNL     1       3.563  17.307  17.686  0.00  0.00    +0.000 OA
ATOM      6  C   UNL     1       1.377  16.829  18.456  0.00  0.00    +0.000 A 
ATOM      7  S   UNL     1       0.579  18.074  17.612  0.00  0.00    +0.000 S 
ATOM      8  C   UNL     1      -0.942  17.597  18.246  0.00  0.00    +0.000 A 
ATOM      9  C   UNL     1      -0.844  16.508  19.089  0.00  0.00    +0.000 A 
ATOM     10  C   UNL     1       0.501  16.079  19.208  0.00  0.00    +0.000 A 
ATOM     11  N   UNL     1       1.063  15.028  19.961  0.00  0.00    +0.000 N 
ATOM     12  C   UNL     1       0.542  14.094  20.827  0.00  0.00    +0.000 A 
ATOM     13  N   UNL     1       1.526  13.341  21.280  0.00  0.00    +0.000 NA
ATOM     14  N   UNL     1       2.701  13.777  20.722  0.00  0.00    +0.000 NA
ATOM     15  C   UNL     1       2.423  14.786  19.927  0.00  0.00    +0.000 A 
BRANCH   3  16
ATOM     16  C   UNL     1       4.738  15.218  19.127  0.00  0.00    +0.000 C 
BRANCH  16  18
ATOM     17  C   UNL     1       6.656  14.130  17.850  0.00  0.00    +0.000 C 
ATOM     18  C   UNL     1       5.227  14.649  17.791  0.00  0.00    +0.000 C 
ENDBRANCH  16  18
ENDBRANCH   3  16
ENDBRANCH   2  12
ENDBRANCH   1   2
BRANCH   1  19
ATOM     19  C   UNL     1      -1.876  12.210  19.651  0.00  0.00    +0.000 C 
BRANCH  19  20
ATOM     20  C   UNL     1      -1.234  10.916  19.182  0.00  0.00    +0.000 C 
ATOM     21  O   UNL     1      -1.866  10.132  18.484  0.00  0.00    +0.000 OA
ATOM     22  N   UNL     1       0.055  10.734  19.649  0.00  0.00    +0.000 N 
ATOM     23  H   UNL     1       0.421  11.404  20.312  0.00  0.00    +0.000 HD
BRANCH  22  24
ATOM     24  C   UNL     1       0.869   9.609  19.380  0.00  0.00    +0.000 A 
ATOM     25  C   UNL     1       1.402   9.343  18.115  0.00  0.00    +0.000 A 
ATOM     26  C   UNL     1       2.200   8.219  17.899  0.00  0.00    +0.000 A 
ATOM     27  C   UNL     1       2.482   7.354  18.950  0.00  0.00    +0.000 A 
ATOM     28  C   UNL     1       1.916   7.585  20.208  0.00  0.00    +0.000 A 
ATOM     29  C   UNL     1       1.144   8.729  20.429  0.00  0.00    +0.000 A 
BRANCH  27  30
ATOM     30  O   UNL     1       3.272   6.274  18.645  0.00  0.00    +0.000 OA
BRANCH  30  31
ATOM     31  C   UNL     1       2.764   5.004  18.782  0.00  0.00    +0.000 A 
ATOM     32  C   UNL     1       3.250   4.277  19.871  0.00  0.00    +0.000 A 
ATOM     33  C   UNL     1       2.811   2.972  20.092  0.00  0.00    +0.000 A 
ATOM     34  C   UNL     1       1.885   2.393  19.226  0.00  0.00    +0.000 A 
ATOM     35  C   UNL     1       1.370   3.128  18.159  0.00  0.00    +0.000 A 
ATOM     36  C   UNL     1       1.788   4.443  17.954  0.00  0.00    +0.000 A 
ENDBRANCH  30  31
ENDBRANCH  27  30
ENDBRANCH  22  24
ENDBRANCH  19  20
ENDBRANCH   1  19
TORSDOF 9
ENDMDL
MODEL 5
REMARK VINA RESULT:      -7.8      7.665      9.283
REMARK  Name = 
REMARK  10 active torsions:
REMARK  status: ('A' for Active; 'I' for Inactive)
REMARK    1  A    between atoms: C_1  and  C_2
REMARK    2  A    between atoms: C_2  and  C_3
REMARK    3  A    between atoms: C_3  and  N_4
REMARK    4  A    between atoms: C_13  and  C_14
REMARK    5  A    between atoms: C_14  and  C_15
REMARK    6  A    between atoms: C_15  and  C_16
REMARK    7  A    between atoms: C_16  and  C_17
REMARK    8  A    between atoms: N_19  and  C_20
REMARK    9  A    between atoms: C_23  and  O_24
REMARK   10  A    between atoms: O_24  and  C_25
REMARK                            x       y       z     vdW  Elec       q    Type
REMARK                         _______ _______ _______ _____ _____    ______ ____
ROOT
ATOM      1  C   UNL     1       9.192  10.879  18.274  0.00  0.00    +0.000 C 
ENDROOT
BRANCH   1   2
ATOM      2  C   UNL     1      10.186  11.822  18.964  0.00  0.00    +0.000 C 
BRANCH   2  12
ATOM      3  N   UNL     1       8.552  16.093  20.796  0.00  0.00    +0.000 N 
ATOM      4  C   UNL     1       9.032  16.978  19.805  0.00  0.00    +0.000 A 
ATOM      5  O   UNL     1       8.833  18.190  19.866  0.00  0.00    +0.000 OA
ATOM      6  C   UNL     1       9.773  16.351  18.713  0.00  0.00    +0.000 A 
ATOM      7  S   UNL     1      10.433  17.230  17.413  0.00  0.00    +0.000 S 
ATOM      8  C   UNL     1      11.067  15.803  16.703  0.00  0.00    +0.000 A 
ATOM      9  C   UNL     1      10.780  14.673  17.443  0.00  0.00    +0.000 A 
ATOM     10  C   UNL     1      10.026  15.002  18.597  0.00  0.00    +0.000 A 
ATOM     11  N   UNL     1       9.507  14.178  19.617  0.00  0.00    +0.000 N 
ATOM     12  C   UNL     1       9.526  12.820  19.845  0.00  0.00    +0.000 A 
ATOM     13  N   UNL     1       8.863  12.569  20.958  0.00  0.00    +0.000 NA
ATOM     14  N   UNL     1       8.399  13.756  21.467  0.00  0.00    +0.000 NA
ATOM     15  C   UNL     1       8.789  14.722  20.664  0.00  0.00    +0.000 A 
BRANCH   3  16
ATOM     16  C   UNL     1       7.807  16.618  21.939  0.00  0.00    +0.000 C 
BRANCH  16  18
ATOM     17  C   UNL     1       9.482  16.195  23.812  0.00  0.00    +0.000 C 
ATOM     18  C   UNL     1       8.696  17.233  23.025  0.00  0.00    +0.000 C 
ENDBRANCH  16  18
ENDBRANCH   3  16
ENDBRANCH   2  12
ENDBRANCH   1   2
BRANCH   1  19
ATOM     19  C   UNL     1       9.261   9.466  18.856  0.00  0.00    +0.000 C 
BRANCH  19  20
ATOM     20  C   UNL     1       8.207   8.580  18.215  0.00  0.00    +0.000 C 
ATOM     21  O   UNL     1       7.417   9.050  17.404  0.00  0.00    +0.000 OA
ATOM     22  N   UNL     1       8.229   7.273  18.666  0.00  0.00    +0.000 N 
ATOM     23  H   UNL     1       8.859   7.041  19.423  0.00  0.00    +0.000 HD
BRANCH  22  24
ATOM     24  C   UNL     1       7.346   6.251  18.250  0.00  0.00    +0.000 A 
ATOM     25  C   UNL     1       7.203   5.868  16.913  0.00  0.00    +0.000 A 
ATOM     26  C   UNL     1       6.318   4.853  16.551  0.00  0.00    +0.000 A 
ATOM     27  C   UNL     1       5.572   4.202  17.526  0.00  0.00    +0.000 A 
ATOM     28  C   UNL     1       5.671   4.607  18.860  0.00  0.00    +0.000 A 
ATOM     29  C   UNL     1       6.584   5.602  19.224  0.00  0.00    +0.000 A 
BRANCH  27  30
ATOM     30  O   UNL     1       4.725   3.218  17.078  0.00  0.00    +0.000 OA
BRANCH  30  31
ATOM     31  C   UNL     1       3.465   3.113  17.619  0.00  0.00    +0.000 A 
ATOM     32  C   UNL     1       3.228   1.962  18.373  0.00  0.00    +0.000 A 
ATOM     33  C   UNL     1       1.978   1.750  18.952  0.00  0.00    +0.000 A 
ATOM     34  C   UNL     1       0.962   2.690  18.779  0.00  0.00    +0.000 A 
ATOM     35  C   UNL     1       1.206   3.858  18.057  0.00  0.00    +0.000 A 
ATOM     36  C   UNL     1       2.465   4.083  17.502  0.00  0.00    +0.000 A 
ENDBRANCH  30  31
ENDBRANCH  27  30
ENDBRANCH  22  24
ENDBRANCH  19  20
ENDBRANCH   1  19
TORSDOF 9
ENDMDL
MODEL 6
REMARK VINA RESULT:      -7.8      2.964      5.318
REMARK  Name = 
REMARK  10 active torsions:
REMARK  status: ('A' for Active; 'I' for Inactive)
REMARK    1  A    between atoms: C_1  and  C_2
REMARK    2  A    between atoms: C_2  and  C_3
REMARK    3  A    between atoms: C_3  and  N_4
REMARK    4  A    between atoms: C_13  and  C_14
REMARK    5  A    between atoms: C_14  and  C_15
REMARK    6  A    between atoms: C_15  and  C_16
REMARK    7  A    between atoms: C_16  and  C_17
REMARK    8  A    between atoms: N_19  and  C_20
REMARK    9  A    between atoms: C_23  and  O_24
REMARK   10  A    between atoms: O_24  and  C_25
REMARK                            x       y       z     vdW  Elec       q    Type
REMARK                         _______ _______ _______ _____ _____    ______ ____
ROOT
ATOM      1  C   UNL     1      -0.868  11.615  22.184  0.00  0.00    +0.000 C 
ENDROOT
BRANCH   1   2
ATOM      2  C   UNL     1      -1.344  12.794  23.043  0.00  0.00    +0.000 C 
BRANCH   2  12
ATOM      3  N   UNL     1      -6.137  13.924  23.167  0.00  0.00    +0.000 N 
ATOM      4  C   UNL     1      -6.131  15.085  22.362  0.00  0.00    +0.000 A 
ATOM      5  O   UNL     1      -7.161  15.710  22.115  0.00  0.00    +0.000 OA
ATOM      6  C   UNL     1      -4.822  15.482  21.850  0.00  0.00    +0.000 A 
ATOM      7  S   UNL     1      -4.588  16.845  20.857  0.00  0.00    +0.000 S 
ATOM      8  C   UNL     1      -2.899  16.556  20.770  0.00  0.00    +0.000 A 
ATOM      9  C   UNL     1      -2.519  15.437  21.484  0.00  0.00    +0.000 A 
ATOM     10  C   UNL     1      -3.638  14.822  22.097  0.00  0.00    +0.000 A 
ATOM     11  N   UNL     1      -3.723  13.666  22.898  0.00  0.00    +0.000 N 
ATOM     12  C   UNL     1      -2.799  12.747  23.343  0.00  0.00    +0.000 A 
ATOM     13  N   UNL     1      -3.423  11.833  24.061  0.00  0.00    +0.000 NA
ATOM     14  N   UNL     1      -4.760  12.139  24.091  0.00  0.00    +0.000 NA
ATOM     15  C   UNL     1      -4.939  13.242  23.397  0.00  0.00    +0.000 A 
BRANCH   3  16
ATOM     16  C   UNL     1      -7.394  13.445  23.740  0.00  0.00    +0.000 C 
BRANCH  16  18
ATOM     17  C   UNL     1      -7.913  12.089  21.647  0.00  0.00    +0.000 C 
ATOM     18  C   UNL     1      -7.863  12.104  23.167  0.00  0.00    +0.000 C 
ENDBRANCH  16  18
ENDBRANCH   3  16
ENDBRANCH   2  12
ENDBRANCH   1   2
BRANCH   1  19
ATOM     19  C   UNL     1      -1.303  11.771  20.726  0.00  0.00    +0.000 C 
BRANCH  19  20
ATOM     20  C   UNL     1      -0.744  10.637  19.885  0.00  0.00    +0.000 C 
ATOM     21  O   UNL     1      -1.429  10.126  19.007  0.00  0.00    +0.000 OA
ATOM     22  N   UNL     1       0.536  10.256  20.244  0.00  0.00    +0.000 N 
ATOM     23  H   UNL     1       0.948  10.684  21.063  0.00  0.00    +0.000 HD
BRANCH  22  24
ATOM     24  C   UNL     1       1.277   9.215  19.640  0.00  0.00    +0.000 A 
ATOM     25  C   UNL     1       1.608   8.032  20.308  0.00  0.00    +0.000 A 
ATOM     26  C   UNL     1       2.342   7.032  19.668  0.00  0.00    +0.000 A 
ATOM     27  C   UNL     1       2.745   7.203  18.349  0.00  0.00    +0.000 A 
ATOM     28  C   UNL     1       2.461   8.400  17.686  0.00  0.00    +0.000 A 
ATOM     29  C   UNL     1       1.696   9.386  18.319  0.00  0.00    +0.000 A 
BRANCH  27  30
ATOM     30  O   UNL     1       3.464   6.169  17.802  0.00  0.00    +0.000 OA
BRANCH  30  31
ATOM     31  C   UNL     1       4.815   6.083  18.045  0.00  0.00    +0.000 A 
ATOM     32  C   UNL     1       5.631   6.790  17.159  0.00  0.00    +0.000 A 
ATOM     33  C   UNL     1       7.017   6.756  17.306  0.00  0.00    +0.000 A 
ATOM     34  C   UNL     1       7.589   6.017  18.341  0.00  0.00    +0.000 A 
ATOM     35  C   UNL     1       6.777   5.340  19.249  0.00  0.00    +0.000 A 
ATOM     36  C   UNL     1       5.389   5.397  19.118  0.00  0.00    +0.000 A 
ENDBRANCH  30  31
ENDBRANCH  27  30
ENDBRANCH  22  24
ENDBRANCH  19  20
ENDBRANCH   1  19
TORSDOF 9
ENDMDL
MODEL 7
REMARK VINA RESULT:      -7.8      1.682      1.907
REMARK  Name = 
REMARK  10 active torsions:
REMARK  status: ('A' for Active; 'I' for Inactive)
REMARK    1  A    between atoms: C_1  and  C_2
REMARK    2  A    between atoms: C_2  and  C_3
REMARK    3  A    between atoms: C_3  and  N_4
REMARK    4  A    between atoms: C_13  and  C_14
REMARK    5  A    between atoms: C_14  and  C_15
REMARK    6  A    between atoms: C_15  and  C_16
REMARK    7  A    between atoms: C_16  and  C_17
REMARK    8  A    between atoms: N_19  and  C_20
REMARK    9  A    between atoms: C_23  and  O_24
REMARK   10  A    between atoms: O_24  and  C_25
REMARK                            x       y       z     vdW  Elec       q    Type
REMARK                         _______ _______ _______ _____ _____    ______ ____
ROOT
ATOM      1  C   UNL     1       0.642   7.761  21.044  0.00  0.00    +0.000 C 
ENDROOT
BRANCH   1   2
ATOM      2  C   UNL     1       1.315   8.932  21.771  0.00  0.00    +0.000 C 
BRANCH   2  12
ATOM      3  N   UNL     1      -1.403  13.023  22.147  0.00  0.00    +0.000 N 
ATOM      4  C   UNL     1      -0.981  13.700  20.981  0.00  0.00    +0.000 A 
ATOM      5  O   UNL     1      -1.432  14.801  20.670  0.00  0.00    +0.000 OA
ATOM      6  C   UNL     1       0.019  12.998  20.180  0.00  0.00    +0.000 A 
ATOM      7  S   UNL     1       0.660  13.630  18.735  0.00  0.00    +0.000 S 
ATOM      8  C   UNL     1       1.668  12.257  18.522  0.00  0.00    +0.000 A 
ATOM      9  C   UNL     1       1.518  11.332  19.535  0.00  0.00    +0.000 A 
ATOM     10  C   UNL     1       0.558  11.767  20.482  0.00  0.00    +0.000 A 
ATOM     11  N   UNL     1       0.081  11.146  21.654  0.00  0.00    +0.000 N 
ATOM     12  C   UNL     1       0.347   9.943  22.269  0.00  0.00    +0.000 A 
ATOM     13  N   UNL     1      -0.400   9.848  23.352  0.00  0.00    +0.000 NA
ATOM     14  N   UNL     1      -1.165  10.982  23.456  0.00  0.00    +0.000 NA
ATOM     15  C   UNL     1      -0.873  11.763  22.440  0.00  0.00    +0.000 A 
BRANCH   3  16
ATOM     16  C   UNL     1      -2.394  13.642  23.027  0.00  0.00    +0.000 C 
BRANCH  16  18
ATOM     17  C   UNL     1      -2.819  15.058  25.102  0.00  0.00    +0.000 C 
ATOM     18  C   UNL     1      -1.781  14.492  24.144  0.00  0.00    +0.000 C 
ENDBRANCH  16  18
ENDBRANCH   3  16
ENDBRANCH   2  12
ENDBRANCH   1   2
BRANCH   1  19
ATOM     19  C   UNL     1       1.583   6.561  20.920  0.00  0.00    +0.000 C 
BRANCH  19  20
ATOM     20  C   UNL     1       2.511   6.740  19.732  0.00  0.00    +0.000 C 
ATOM     21  O   UNL     1       2.308   7.636  18.921  0.00  0.00    +0.000 OA
ATOM     22  N   UNL     1       3.522   5.798  19.668  0.00  0.00    +0.000 N 
ATOM     23  H   UNL     1       3.510   5.041  20.338  0.00  0.00    +0.000 HD
BRANCH  22  24
ATOM     24  C   UNL     1       4.506   5.724  18.656  0.00  0.00    +0.000 A 
ATOM     25  C   UNL     1       5.838   5.387  18.915  0.00  0.00    +0.000 A 
ATOM     26  C   UNL     1       6.774   5.327  17.881  0.00  0.00    +0.000 A 
ATOM     27  C   UNL     1       6.383   5.594  16.575  0.00  0.00    +0.000 A 
ATOM     28  C   UNL     1       5.065   5.978  16.310  0.00  0.00    +0.000 A 
ATOM     29  C   UNL     1       4.123   6.005  17.342  0.00  0.00    +0.000 A 
BRANCH  27  30
ATOM     30  O   UNL     1       7.370   5.513  15.624  0.00  0.00    +0.000 OA
BRANCH  30  31
ATOM     31  C   UNL     1       7.096   4.922  14.414  0.00  0.00    +0.000 A 
ATOM     32  C   UNL     1       7.844   5.391  13.332  0.00  0.00    +0.000 A 
ATOM     33  C   UNL     1       7.632   4.870  12.056  0.00  0.00    +0.000 A 
ATOM     34  C   UNL     1       6.674   3.876  11.861  0.00  0.00    +0.000 A 
ATOM     35  C   UNL     1       5.951   3.379  12.944  0.00  0.00    +0.000 A 
ATOM     36  C   UNL     1       6.182   3.881  14.224  0.00  0.00    +0.000 A 
ENDBRANCH  30  31
ENDBRANCH  27  30
ENDBRANCH  22  24
ENDBRANCH  19  20
ENDBRANCH   1  19
TORSDOF 9
ENDMDL
MODEL 8
REMARK VINA RESULT:      -7.8      5.987      9.115
REMARK  Name = 
REMARK  10 active torsions:
REMARK  status: ('A' for Active; 'I' for Inactive)
REMARK    1  A    between atoms: C_1  and  C_2
REMARK    2  A    between atoms: C_2  and  C_3
REMARK    3  A    between atoms: C_3  and  N_4
REMARK    4  A    between atoms: C_13  and  C_14
REMARK    5  A    between atoms: C_14  and  C_15
REMARK    6  A    between atoms: C_15  and  C_16
REMARK    7  A    between atoms: C_16  and  C_17
REMARK    8  A    between atoms: N_19  and  C_20
REMARK    9  A    between atoms: C_23  and  O_24
REMARK   10  A    between atoms: O_24  and  C_25
REMARK                            x       y       z     vdW  Elec       q    Type
REMARK                         _______ _______ _______ _____ _____    ______ ____
ROOT
ATOM      1  C   UNL     1       7.163   6.470  16.296  0.00  0.00    +0.000 C 
ENDROOT
BRANCH   1   2
ATOM      2  C   UNL     1       5.683   6.131  16.074  0.00  0.00    +0.000 C 
BRANCH   2  12
ATOM      3  N   UNL     1       2.937   4.589  19.861  0.00  0.00    +0.000 N 
ATOM      4  C   UNL     1       2.137   5.736  20.061  0.00  0.00    +0.000 A 
ATOM      5  O   UNL     1       1.275   5.782  20.937  0.00  0.00    +0.000 OA
ATOM      6  C   UNL     1       2.408   6.850  19.156  0.00  0.00    +0.000 A 
ATOM      7  S   UNL     1       1.557   8.323  19.217  0.00  0.00    +0.000 S 
ATOM      8  C   UNL     1       2.475   8.967  17.918  0.00  0.00    +0.000 A 
ATOM      9  C   UNL     1       3.414   8.073  17.444  0.00  0.00    +0.000 A 
ATOM     10  C   UNL     1       3.360   6.853  18.161  0.00  0.00    +0.000 A 
ATOM     11  N   UNL     1       4.113   5.670  18.013  0.00  0.00    +0.000 N 
ATOM     12  C   UNL     1       5.113   5.280  17.150  0.00  0.00    +0.000 A 
ATOM     13  N   UNL     1       5.463   4.042  17.440  0.00  0.00    +0.000 NA
ATOM     14  N   UNL     1       4.694   3.605  18.489  0.00  0.00    +0.000 NA
ATOM     15  C   UNL     1       3.887   4.584  18.836  0.00  0.00    +0.000 A 
BRANCH   3  16
ATOM     16  C   UNL     1       2.756   3.419  20.721  0.00  0.00    +0.000 C 
BRANCH  16  18
ATOM     17  C   UNL     1       0.911   2.667  19.133  0.00  0.00    +0.000 C 
ATOM     18  C   UNL     1       2.069   2.241  20.023  0.00  0.00    +0.000 C 
ENDBRANCH  16  18
ENDBRANCH   3  16
ENDBRANCH   2  12
ENDBRANCH   1   2
BRANCH   1  19
ATOM     19  C   UNL     1       7.439   6.855  17.750  0.00  0.00    +0.000 C 
BRANCH  19  20
ATOM     20  C   UNL     1       7.764   8.335  17.851  0.00  0.00    +0.000 C 
ATOM     21  O   UNL     1       7.164   9.146  17.155  0.00  0.00    +0.000 OA
ATOM     22  N   UNL     1       8.783   8.622  18.740  0.00  0.00    +0.000 N 
ATOM     23  H   UNL     1       9.274   7.848  19.168  0.00  0.00    +0.000 HD
BRANCH  22  24
ATOM     24  C   UNL     1       9.294   9.913  19.006  0.00  0.00    +0.000 A 
ATOM     25  C   UNL     1       9.261  10.495  20.277  0.00  0.00    +0.000 A 
ATOM     26  C   UNL     1       9.779  11.773  20.491  0.00  0.00    +0.000 A 
ATOM     27  C   UNL     1      10.345  12.478  19.435  0.00  0.00    +0.000 A 
ATOM     28  C   UNL     1      10.342  11.926  18.151  0.00  0.00    +0.000 A 
ATOM     29  C   UNL     1       9.853  10.632  17.947  0.00  0.00    +0.000 A 
BRANCH  27  30
ATOM     30  O   UNL     1      10.827  13.728  19.737  0.00  0.00    +0.000 OA
BRANCH  30  31
ATOM     31  C   UNL     1      10.806  14.711  18.776  0.00  0.00    +0.000 A 
ATOM     32  C   UNL     1       9.583  15.364  18.611  0.00  0.00    +0.000 A 
ATOM     33  C   UNL     1       9.450  16.366  17.651  0.00  0.00    +0.000 A 
ATOM     34  C   UNL     1      10.540  16.718  16.855  0.00  0.00    +0.000 A 
ATOM     35  C   UNL     1      11.772  16.093  17.042  0.00  0.00    +0.000 A 
ATOM     36  C   UNL     1      11.913  15.110  18.021  0.00  0.00    +0.000 A 
ENDBRANCH  30  31
ENDBRANCH  27  30
ENDBRANCH  22  24
ENDBRANCH  19  20
ENDBRANCH   1  19
TORSDOF 9
ENDMDL
MODEL 9
REMARK VINA RESULT:      -7.7      2.796     12.125
REMARK  Name = 
REMARK  10 active torsions:
REMARK  status: ('A' for Active; 'I' for Inactive)
REMARK    1  A    between atoms: C_1  and  C_2
REMARK    2  A    between atoms: C_2  and  C_3
REMARK    3  A    between atoms: C_3  and  N_4
REMARK    4  A    between atoms: C_13  and  C_14
REMARK    5  A    between atoms: C_14  and  C_15
REMARK    6  A    between atoms: C_15  and  C_16
REMARK    7  A    between atoms: C_16  and  C_17
REMARK    8  A    between atoms: N_19  and  C_20
REMARK    9  A    between atoms: C_23  and  O_24
REMARK   10  A    between atoms: O_24  and  C_25
REMARK                            x       y       z     vdW  Elec       q    Type
REMARK                         _______ _______ _______ _____ _____    ______ ____
ROOT
ATOM      1  C   UNL     1       2.217   9.369  18.442  0.00  0.00    +0.000 C 
ENDROOT
BRANCH   1   2
ATOM      2  C   UNL     1       2.169   7.896  18.868  0.00  0.00    +0.000 C 
BRANCH   2  12
ATOM      3  N   UNL     1       4.560   3.954  17.134  0.00  0.00    +0.000 N 
ATOM      4  C   UNL     1       3.838   2.930  17.785  0.00  0.00    +0.000 A 
ATOM      5  O   UNL     1       4.107   1.741  17.623  0.00  0.00    +0.000 OA
ATOM      6  C   UNL     1       2.757   3.385  18.656  0.00  0.00    +0.000 A 
ATOM      7  S   UNL     1       1.758   2.319  19.531  0.00  0.00    +0.000 S 
ATOM      8  C   UNL     1       0.875   3.624  20.212  0.00  0.00    +0.000 A 
ATOM      9  C   UNL     1       1.333   4.852  19.779  0.00  0.00    +0.000 A 
ATOM     10  C   UNL     1       2.414   4.701  18.876  0.00  0.00    +0.000 A 
ATOM     11  N   UNL     1       3.171   5.668  18.184  0.00  0.00    +0.000 N 
ATOM     12  C   UNL     1       3.129   7.043  18.121  0.00  0.00    +0.000 A 
ATOM     13  N   UNL     1       4.069   7.457  17.294  0.00  0.00    +0.000 NA
ATOM     14  N   UNL     1       4.732   6.362  16.802  0.00  0.00    +0.000 NA
ATOM     15  C   UNL     1       4.196   5.288  17.340  0.00  0.00    +0.000 A 
BRANCH   3  16
ATOM     16  C   UNL     1       5.671   3.608  16.248  0.00  0.00    +0.000 C 
BRANCH  16  18
ATOM     17  C   UNL     1       6.664   4.648  14.145  0.00  0.00    +0.000 C 
ATOM     18  C   UNL     1       5.443   4.009  14.787  0.00  0.00    +0.000 C 
ENDBRANCH  16  18
ENDBRANCH   3  16
ENDBRANCH   2  12
ENDBRANCH   1   2
BRANCH   1  19
ATOM     19  C   UNL     1       0.831   9.887  18.053  0.00  0.00    +0.000 C 
BRANCH  19  20
ATOM     20  C   UNL     1       0.377  10.960  19.027  0.00  0.00    +0.000 C 
ATOM     21  O   UNL     1       0.933  12.052  19.045  0.00  0.00    +0.000 OA
ATOM     22  N   UNL     1      -0.649  10.556  19.862  0.00  0.00    +0.000 N 
ATOM     23  H   UNL     1      -0.943   9.589  19.822  0.00  0.00    +0.000 HD
BRANCH  22  24
ATOM     24  C   UNL     1      -1.241  11.349  20.871  0.00  0.00    +0.000 A 
ATOM     25  C   UNL     1      -0.954  11.189  22.230  0.00  0.00    +0.000 A 
ATOM     26  C   UNL     1      -1.564  11.997  23.189  0.00  0.00    +0.000 A 
ATOM     27  C   UNL     1      -2.461  12.983  22.797  0.00  0.00    +0.000 A 
ATOM     28  C   UNL     1      -2.792  13.123  21.446  0.00  0.00    +0.000 A 
ATOM     29  C   UNL     1      -2.154  12.334  20.484  0.00  0.00    +0.000 A 
BRANCH  27  30
ATOM     30  O   UNL     1      -3.014  13.729  23.809  0.00  0.00    +0.000 OA
BRANCH  30  31
ATOM     31  C   UNL     1      -4.377  13.906  23.850  0.00  0.00    +0.000 A 
ATOM     32  C   UNL     1      -5.125  12.756  24.110  0.00  0.00    +0.000 A 
ATOM     33  C   UNL     1      -6.517  12.823  24.158  0.00  0.00    +0.000 A 
ATOM     34  C   UNL     1      -7.163  14.041  23.947  0.00  0.00    +0.000 A 
ATOM     35  C   UNL     1      -6.418  15.198  23.724  0.00  0.00    +0.000 A 
ATOM     36  C   UNL     1      -5.025  15.136  23.704  0.00  0.00    +0.000 A 
ENDBRANCH  30  31
ENDBRANCH  27  30
ENDBRANCH  22  24
ENDBRANCH  19  20
ENDBRANCH   1  19
TORSDOF 9
ENDMDL
