MODEL 1
REMARK VINA RESULT:      -8.5      0.000      0.000
REMARK  Name = 
REMARK  5 active torsions:
REMARK  status: ('A' for Active; 'I' for Inactive)
REMARK    1  A    between atoms: C_1  and  C_2
REMARK    2  A    between atoms: C_2  and  C_3
REMARK    3  A    between atoms: C_2  and  C_4
REMARK    4  A    between atoms: C_7  and  S_8
REMARK    5  A    between atoms: S_8  and  N_11
REMARK                            x       y       z     vdW  Elec       q    Type
REMARK                         _______ _______ _______ _____ _____    ______ ____
ROOT
ATOM      1  N   UNL     1       5.972   6.183  17.754  0.00  0.00    +0.000 NA
ATOM      2  C   UNL     1       4.806   6.771  17.071  0.00  0.00    +0.000 C 
ATOM      3  C   UNL     1       3.598   5.831  17.088  0.00  0.00    +0.000 C 
ATOM      4  N   UNL     1       3.321   5.204  18.389  0.00  0.00    +0.000 N 
ATOM      5  C   UNL     1       2.147   4.426  18.381  0.00  0.00    +0.000 C 
ATOM      6  O   UNL     1       1.401   4.247  17.426  0.00  0.00    +0.000 OA
ATOM      7  N   UNL     1       1.882   3.746  19.573  0.00  0.00    +0.000 N 
ATOM      8  C   UNL     1       1.907   4.214  20.873  0.00  0.00    +0.000 A 
ATOM      9  C   UNL     1       1.638   3.122  21.664  0.00  0.00    +0.000 A 
ATOM     10  N   UNL     1       1.412   2.011  20.898  0.00  0.00    +0.000 NA
ATOM     11  C   UNL     1       1.504   2.426  19.655  0.00  0.00    +0.000 A 
ATOM     12  C   UNL     1       4.521   4.699  19.093  0.00  0.00    +0.000 C 
ATOM     13  C   UNL     1       5.686   5.693  19.112  0.00  0.00    +0.000 C 
ENDROOT
BRANCH   1  14
ATOM     14  S   UNL     1       7.339   5.684  16.920  0.00  0.00    +0.000 S 
ATOM     15  O   UNL     1       7.893   4.557  17.642  0.00  0.00    +0.000 OA
ATOM     16  O   UNL     1       8.146   6.848  16.629  0.00  0.00    +0.000 OA
BRANCH  14  20
ATOM     17  C   UNL     1       5.960   3.796  12.958  0.00  0.00    +0.000 A 
ATOM     18  C   UNL     1       6.979   4.766  12.970  0.00  0.00    +0.000 A 
ATOM     19  C   UNL     1       7.374   5.385  14.165  0.00  0.00    +0.000 A 
ATOM     20  C   UNL     1       6.738   5.050  15.365  0.00  0.00    +0.000 A 
ATOM     21  C   UNL     1       5.734   4.077  15.373  0.00  0.00    +0.000 A 
ATOM     22  C   UNL     1       5.349   3.463  14.178  0.00  0.00    +0.000 A 
BRANCH  17  24
ATOM     23  C   UNL     1       5.971   1.657  11.592  0.00  0.00    +0.000 C 
ATOM     24  C   UNL     1       5.534   3.125  11.661  0.00  0.00    +0.000 C 
ATOM     25  C   UNL     1       4.019   3.241  11.454  0.00  0.00    +0.000 C 
ENDBRANCH  17  24
ENDBRANCH  14  20
ENDBRANCH   1  14
TORSDOF 3
ENDMDL
MODEL 2
REMARK VINA RESULT:      -7.6      3.536      4.643
REMARK  Name = 
REMARK  5 active torsions:
REMARK  status: ('A' for Active; 'I' for Inactive)
REMARK    1  A    between atoms: C_1  and  C_2
REMARK    2  A    between atoms: C_2  and  C_3
REMARK    3  A    between atoms: C_2  and  C_4
REMARK    4  A    between atoms: C_7  and  S_8
REMARK    5  A    between atoms: S_8  and  N_11
REMARK                            x       y       z     vdW  Elec       q    Type
REMARK                         _______ _______ _______ _____ _____    ______ ____
ROOT
ATOM      1  N   UNL     1       3.375   5.213  18.933  0.00  0.00    +0.000 NA
ATOM      2  C   UNL     1       2.423   4.867  20.004  0.00  0.00    +0.000 C 
ATOM      3  C   UNL     1       2.019   6.092  20.829  0.00  0.00    +0.000 C 
ATOM      4  N   UNL     1       1.678   7.284  20.038  0.00  0.00    +0.000 N 
ATOM      5  C   UNL     1       1.219   8.352  20.833  0.00  0.00    +0.000 C 
ATOM      6  O   UNL     1       1.103   8.354  22.052  0.00  0.00    +0.000 OA
ATOM      7  N   UNL     1       0.956   9.535  20.135  0.00  0.00    +0.000 N 
ATOM      8  C   UNL     1       0.245   9.722  18.965  0.00  0.00    +0.000 A 
ATOM      9  C   UNL     1       0.349  11.063  18.679  0.00  0.00    +0.000 A 
ATOM     10  N   UNL     1       1.064  11.712  19.649  0.00  0.00    +0.000 NA
ATOM     11  C   UNL     1       1.361  10.787  20.534  0.00  0.00    +0.000 A 
ATOM     12  C   UNL     1       2.601   7.559  18.915  0.00  0.00    +0.000 C 
ATOM     13  C   UNL     1       2.931   6.322  18.074  0.00  0.00    +0.000 C 
ENDROOT
BRANCH   1  14
ATOM     14  S   UNL     1       4.982   4.737  18.978  0.00  0.00    +0.000 S 
ATOM     15  O   UNL     1       5.013   3.388  19.506  0.00  0.00    +0.000 OA
ATOM     16  O   UNL     1       5.754   5.793  19.595  0.00  0.00    +0.000 OA
BRANCH  14  20
ATOM     17  C   UNL     1       6.419   4.187  14.643  0.00  0.00    +0.000 A 
ATOM     18  C   UNL     1       7.152   4.982  15.542  0.00  0.00    +0.000 A 
ATOM     19  C   UNL     1       6.698   5.199  16.852  0.00  0.00    +0.000 A 
ATOM     20  C   UNL     1       5.491   4.631  17.272  0.00  0.00    +0.000 A 
ATOM     21  C   UNL     1       4.758   3.824  16.396  0.00  0.00    +0.000 A 
ATOM     22  C   UNL     1       5.220   3.612  15.093  0.00  0.00    +0.000 A 
BRANCH  17  24
ATOM     23  C   UNL     1       5.794   3.498  12.281  0.00  0.00    +0.000 C 
ATOM     24  C   UNL     1       6.914   3.953  13.223  0.00  0.00    +0.000 C 
ATOM     25  C   UNL     1       7.602   5.206  12.668  0.00  0.00    +0.000 C 
ENDBRANCH  17  24
ENDBRANCH  14  20
ENDBRANCH   1  14
TORSDOF 3
ENDMDL
MODEL 3
REMARK VINA RESULT:      -7.4      3.485      4.712
REMARK  Name = 
REMARK  5 active torsions:
REMARK  status: ('A' for Active; 'I' for Inactive)
REMARK    1  A    between atoms: C_1  and  C_2
REMARK    2  A    between atoms: C_2  and  C_3
REMARK    3  A    between atoms: C_2  and  C_4
REMARK    4  A    between atoms: C_7  and  S_8
REMARK    5  A    between atoms: S_8  and  N_11
REMARK                            x       y       z     vdW  Elec       q    Type
REMARK                         _______ _______ _______ _____ _____    ______ ____
ROOT
ATOM      1  N   UNL     1       3.416   5.128  18.924  0.00  0.00    +0.000 NA
ATOM      2  C   UNL     1       2.441   4.790  19.977  0.00  0.00    +0.000 C 
ATOM      3  C   UNL     1       2.031   6.017  20.794  0.00  0.00    +0.000 C 
ATOM      4  N   UNL     1       1.713   7.211  19.997  0.00  0.00    +0.000 N 
ATOM      5  C   UNL     1       1.248   8.284  20.783  0.00  0.00    +0.000 C 
ATOM      6  O   UNL     1       1.109   8.286  22.000  0.00  0.00    +0.000 OA
ATOM      7  N   UNL     1       1.005   9.468  20.080  0.00  0.00    +0.000 N 
ATOM      8  C   UNL     1       0.318   9.659  18.897  0.00  0.00    +0.000 A 
ATOM      9  C   UNL     1       0.437  11.000  18.613  0.00  0.00    +0.000 A 
ATOM     10  N   UNL     1       1.138  11.644  19.595  0.00  0.00    +0.000 NA
ATOM     11  C   UNL     1       1.412  10.717  20.486  0.00  0.00    +0.000 A 
ATOM     12  C   UNL     1       2.659   7.480  18.891  0.00  0.00    +0.000 C 
ATOM     13  C   UNL     1       2.996   6.240  18.056  0.00  0.00    +0.000 C 
ENDROOT
BRANCH   1  14
ATOM     14  S   UNL     1       5.019   4.641  18.999  0.00  0.00    +0.000 S 
ATOM     15  O   UNL     1       5.028   3.280  19.498  0.00  0.00    +0.000 OA
ATOM     16  O   UNL     1       5.781   5.678  19.658  0.00  0.00    +0.000 OA
BRANCH  14  20
ATOM     17  C   UNL     1       6.313   4.733  14.586  0.00  0.00    +0.000 A 
ATOM     18  C   UNL     1       5.166   4.020  14.978  0.00  0.00    +0.000 A 
ATOM     19  C   UNL     1       4.788   3.943  16.327  0.00  0.00    +0.000 A 
ATOM     20  C   UNL     1       5.570   4.568  17.304  0.00  0.00    +0.000 A 
ATOM     21  C   UNL     1       6.704   5.295  16.930  0.00  0.00    +0.000 A 
ATOM     22  C   UNL     1       7.070   5.369  15.582  0.00  0.00    +0.000 A 
BRANCH  17  24
ATOM     23  C   UNL     1       8.163   5.298  12.942  0.00  0.00    +0.000 C 
ATOM     24  C   UNL     1       6.719   4.817  13.122  0.00  0.00    +0.000 C 
ATOM     25  C   UNL     1       6.514   3.470  12.418  0.00  0.00    +0.000 C 
ENDBRANCH  17  24
ENDBRANCH  14  20
ENDBRANCH   1  14
TORSDOF 3
ENDMDL
MODEL 4
REMARK VINA RESULT:      -7.3      3.675      4.633
REMARK  Name = 
REMARK  5 active torsions:
REMARK  status: ('A' for Active; 'I' for Inactive)
REMARK    1  A    between atoms: C_1  and  C_2
REMARK    2  A    between atoms: C_2  and  C_3
REMARK    3  A    between atoms: C_2  and  C_4
REMARK    4  A    between atoms: C_7  and  S_8
REMARK    5  A    between atoms: S_8  and  N_11
REMARK                            x       y       z     vdW  Elec       q    Type
REMARK                         _______ _______ _______ _____ _____    ______ ____
ROOT
ATOM      1  N   UNL     1       3.764   6.297  18.043  0.00  0.00    +0.000 NA
ATOM      2  C   UNL     1       2.949   5.641  19.082  0.00  0.00    +0.000 C 
ATOM      3  C   UNL     1       2.393   6.647  20.094  0.00  0.00    +0.000 C 
ATOM      4  N   UNL     1       1.810   7.860  19.501  0.00  0.00    +0.000 N 
ATOM      5  C   UNL     1       1.225   8.708  20.461  0.00  0.00    +0.000 C 
ATOM      6  O   UNL     1       1.182   8.517  21.670  0.00  0.00    +0.000 OA
ATOM      7  N   UNL     1       0.725   9.913  19.957  0.00  0.00    +0.000 N 
ATOM      8  C   UNL     1      -0.075  10.135  18.852  0.00  0.00    +0.000 A 
ATOM      9  C   UNL     1      -0.216  11.500  18.766  0.00  0.00    +0.000 A 
ATOM     10  N   UNL     1       0.435  12.121  19.797  0.00  0.00    +0.000 NA
ATOM     11  C   UNL     1       0.936  11.148  20.524  0.00  0.00    +0.000 A 
ATOM     12  C   UNL     1       2.606   8.449  18.401  0.00  0.00    +0.000 C 
ATOM     13  C   UNL     1       3.090   7.420  17.374  0.00  0.00    +0.000 C 
ENDROOT
BRANCH   1  14
ATOM     14  S   UNL     1       5.429   6.109  17.962  0.00  0.00    +0.000 S 
ATOM     15  O   UNL     1       5.813   5.234  19.052  0.00  0.00    +0.000 OA
ATOM     16  O   UNL     1       6.029   7.417  17.814  0.00  0.00    +0.000 OA
BRANCH  14  20
ATOM     17  C   UNL     1       6.136   4.046  13.912  0.00  0.00    +0.000 A 
ATOM     18  C   UNL     1       4.924   3.865  14.603  0.00  0.00    +0.000 A 
ATOM     19  C   UNL     1       4.715   4.449  15.862  0.00  0.00    +0.000 A 
ATOM     20  C   UNL     1       5.730   5.209  16.453  0.00  0.00    +0.000 A 
ATOM     21  C   UNL     1       6.935   5.412  15.772  0.00  0.00    +0.000 A 
ATOM     22  C   UNL     1       7.132   4.829  14.516  0.00  0.00    +0.000 A 
BRANCH  17  24
ATOM     23  C   UNL     1       5.042   3.098  11.827  0.00  0.00    +0.000 C 
ATOM     24  C   UNL     1       6.358   3.414  12.546  0.00  0.00    +0.000 C 
ATOM     25  C   UNL     1       7.245   4.304  11.667  0.00  0.00    +0.000 C 
ENDBRANCH  17  24
ENDBRANCH  14  20
ENDBRANCH   1  14
TORSDOF 3
ENDMDL
MODEL 5
REMARK VINA RESULT:      -7.1      7.929     10.351
REMARK  Name = 
REMARK  5 active torsions:
REMARK  status: ('A' for Active; 'I' for Inactive)
REMARK    1  A    between atoms: C_1  and  C_2
REMARK    2  A    between atoms: C_2  and  C_3
REMARK    3  A    between atoms: C_2  and  C_4
REMARK    4  A    between atoms: C_7  and  S_8
REMARK    5  A    between atoms: S_8  and  N_11
REMARK                            x       y       z     vdW  Elec       q    Type
REMARK                         _______ _______ _______ _____ _____    ______ ____
ROOT
ATOM      1  N   UNL     1       0.829  12.165  18.959  0.00  0.00    +0.000 NA
ATOM      2  C   UNL     1      -0.130  13.136  18.402  0.00  0.00    +0.000 C 
ATOM      3  C   UNL     1       0.147  14.560  18.891  0.00  0.00    +0.000 C 
ATOM      4  N   UNL     1       1.560  14.965  18.843  0.00  0.00    +0.000 N 
ATOM      5  C   UNL     1       1.754  16.311  19.208  0.00  0.00    +0.000 C 
ATOM      6  O   UNL     1       0.885  17.105  19.547  0.00  0.00    +0.000 OA
ATOM      7  N   UNL     1       3.089  16.723  19.253  0.00  0.00    +0.000 N 
ATOM      8  C   UNL     1       4.098  16.529  18.328  0.00  0.00    +0.000 A 
ATOM      9  C   UNL     1       5.227  17.073  18.893  0.00  0.00    +0.000 A 
ATOM     10  N   UNL     1       4.942  17.627  20.111  0.00  0.00    +0.000 NA
ATOM     11  C   UNL     1       3.649  17.457  20.273  0.00  0.00    +0.000 A 
ATOM     12  C   UNL     1       2.509  13.938  19.327  0.00  0.00    +0.000 C 
ATOM     13  C   UNL     1       2.239  12.538  18.765  0.00  0.00    +0.000 C 
ENDROOT
BRANCH   1  14
ATOM     14  S   UNL     1       0.382  11.020  20.100  0.00  0.00    +0.000 S 
ATOM     15  O   UNL     1      -1.059  10.885  20.027  0.00  0.00    +0.000 OA
ATOM     16  O   UNL     1       1.035  11.342  21.349  0.00  0.00    +0.000 OA
BRANCH  14  20
ATOM     17  C   UNL     1       2.433   7.148  18.701  0.00  0.00    +0.000 A 
ATOM     18  C   UNL     1       2.143   8.173  17.783  0.00  0.00    +0.000 A 
ATOM     19  C   UNL     1       1.473   9.338  18.188  0.00  0.00    +0.000 A 
ATOM     20  C   UNL     1       1.070   9.481  19.520  0.00  0.00    +0.000 A 
ATOM     21  C   UNL     1       1.365   8.478  20.448  0.00  0.00    +0.000 A 
ATOM     22  C   UNL     1       2.035   7.322  20.036  0.00  0.00    +0.000 A 
BRANCH  17  24
ATOM     23  C   UNL     1       4.147   5.380  19.319  0.00  0.00    +0.000 C 
ATOM     24  C   UNL     1       3.161   5.886  18.260  0.00  0.00    +0.000 C 
ATOM     25  C   UNL     1       2.166   4.781  17.886  0.00  0.00    +0.000 C 
ENDBRANCH  17  24
ENDBRANCH  14  20
ENDBRANCH   1  14
TORSDOF 3
ENDMDL
MODEL 6
REMARK VINA RESULT:      -7.0      6.880     10.248
REMARK  Name = 
REMARK  5 active torsions:
REMARK  status: ('A' for Active; 'I' for Inactive)
REMARK    1  A    between atoms: C_1  and  C_2
REMARK    2  A    between atoms: C_2  and  C_3
REMARK    3  A    between atoms: C_2  and  C_4
REMARK    4  A    between atoms: C_7  and  S_8
REMARK    5  A    between atoms: S_8  and  N_11
REMARK                            x       y       z     vdW  Elec       q    Type
REMARK                         _______ _______ _______ _____ _____    ______ ____
ROOT
ATOM      1  N   UNL     1       0.709   9.474  20.010  0.00  0.00    +0.000 NA
ATOM      2  C   UNL     1       0.810   9.575  18.543  0.00  0.00    +0.000 C 
ATOM      3  C   UNL     1       2.059   8.872  18.004  0.00  0.00    +0.000 C 
ATOM      4  N   UNL     1       2.305   7.536  18.566  0.00  0.00    +0.000 N 
ATOM      5  C   UNL     1       3.406   6.889  17.972  0.00  0.00    +0.000 C 
ATOM      6  O   UNL     1       4.123   7.340  17.087  0.00  0.00    +0.000 OA
ATOM      7  N   UNL     1       3.729   5.646  18.525  0.00  0.00    +0.000 N 
ATOM      8  C   UNL     1       2.902   4.582  18.831  0.00  0.00    +0.000 A 
ATOM      9  C   UNL     1       3.715   3.639  19.414  0.00  0.00    +0.000 A 
ATOM     10  N   UNL     1       5.014   4.067  19.443  0.00  0.00    +0.000 NA
ATOM     11  C   UNL     1       5.002   5.241  18.852  0.00  0.00    +0.000 A 
ATOM     12  C   UNL     1       2.112   7.441  20.030  0.00  0.00    +0.000 C 
ATOM     13  C   UNL     1       0.820   8.099  20.523  0.00  0.00    +0.000 C 
ENDROOT
BRANCH   1  14
ATOM     14  S   UNL     1       0.930  10.798  21.015  0.00  0.00    +0.000 S 
ATOM     15  O   UNL     1       1.537  11.843  20.216  0.00  0.00    +0.000 OA
ATOM     16  O   UNL     1       1.553  10.343  22.238  0.00  0.00    +0.000 OA
BRANCH  14  20
ATOM     17  C   UNL     1      -3.192  12.529  22.095  0.00  0.00    +0.000 A 
ATOM     18  C   UNL     1      -2.393  11.923  23.081  0.00  0.00    +0.000 A 
ATOM     19  C   UNL     1      -1.155  11.347  22.754  0.00  0.00    +0.000 A 
ATOM     20  C   UNL     1      -0.712  11.357  21.428  0.00  0.00    +0.000 A 
ATOM     21  C   UNL     1      -1.487  11.970  20.438  0.00  0.00    +0.000 A 
ATOM     22  C   UNL     1      -2.718  12.543  20.774  0.00  0.00    +0.000 A 
BRANCH  17  24
ATOM     23  C   UNL     1      -5.665  12.667  21.540  0.00  0.00    +0.000 C 
ATOM     24  C   UNL     1      -4.533  13.154  22.451  0.00  0.00    +0.000 C 
ATOM     25  C   UNL     1      -4.885  12.897  23.921  0.00  0.00    +0.000 C 
ENDBRANCH  17  24
ENDBRANCH  14  20
ENDBRANCH   1  14
TORSDOF 3
ENDMDL
MODEL 7
REMARK VINA RESULT:      -6.9     10.002     11.676
REMARK  Name = 
REMARK  5 active torsions:
REMARK  status: ('A' for Active; 'I' for Inactive)
REMARK    1  A    between atoms: C_1  and  C_2
REMARK    2  A    between atoms: C_2  and  C_3
REMARK    3  A    between atoms: C_2  and  C_4
REMARK    4  A    between atoms: C_7  and  S_8
REMARK    5  A    between atoms: S_8  and  N_11
REMARK                            x       y       z     vdW  Elec       q    Type
REMARK                         _______ _______ _______ _____ _____    ______ ____
ROOT
ATOM      1  N   UNL     1      -0.380  12.486  22.366  0.00  0.00    +0.000 NA
ATOM      2  C   UNL     1      -0.417  13.958  22.454  0.00  0.00    +0.000 C 
ATOM      3  C   UNL     1      -1.707  14.535  21.866  0.00  0.00    +0.000 C 
ATOM      4  N   UNL     1      -2.937  13.845  22.281  0.00  0.00    +0.000 N 
ATOM      5  C   UNL     1      -4.103  14.469  21.795  0.00  0.00    +0.000 C 
ATOM      6  O   UNL     1      -4.152  15.472  21.095  0.00  0.00    +0.000 OA
ATOM      7  N   UNL     1      -5.296  13.806  22.098  0.00  0.00    +0.000 N 
ATOM      8  C   UNL     1      -5.729  13.287  23.303  0.00  0.00    +0.000 A 
ATOM      9  C   UNL     1      -6.934  12.682  23.034  0.00  0.00    +0.000 A 
ATOM     10  N   UNL     1      -7.275  12.843  21.718  0.00  0.00    +0.000 NA
ATOM     11  C   UNL     1      -6.309  13.568  21.199  0.00  0.00    +0.000 A 
ATOM     12  C   UNL     1      -2.846  12.368  22.266  0.00  0.00    +0.000 C 
ATOM     13  C   UNL     1      -1.571  11.825  22.921  0.00  0.00    +0.000 C 
ENDROOT
BRANCH   1  14
ATOM     14  S   UNL     1       0.659  11.679  21.326  0.00  0.00    +0.000 S 
ATOM     15  O   UNL     1       0.870  10.355  21.876  0.00  0.00    +0.000 OA
ATOM     16  O   UNL     1       1.777  12.547  21.033  0.00  0.00    +0.000 OA
BRANCH  14  20
ATOM     17  C   UNL     1      -1.962  11.235  17.572  0.00  0.00    +0.000 A 
ATOM     18  C   UNL     1      -1.700  10.124  18.393  0.00  0.00    +0.000 A 
ATOM     19  C   UNL     1      -0.861  10.236  19.513  0.00  0.00    +0.000 A 
ATOM     20  C   UNL     1      -0.261  11.463  19.813  0.00  0.00    +0.000 A 
ATOM     21  C   UNL     1      -0.525  12.581  19.016  0.00  0.00    +0.000 A 
ATOM     22  C   UNL     1      -1.364  12.461  17.904  0.00  0.00    +0.000 A 
BRANCH  17  24
ATOM     23  C   UNL     1      -2.776   9.735  15.693  0.00  0.00    +0.000 C 
ATOM     24  C   UNL     1      -2.873  11.112  16.359  0.00  0.00    +0.000 C 
ATOM     25  C   UNL     1      -4.327  11.423  16.731  0.00  0.00    +0.000 C 
ENDBRANCH  17  24
ENDBRANCH  14  20
ENDBRANCH   1  14
TORSDOF 3
ENDMDL
MODEL 8
REMARK VINA RESULT:      -6.8      3.082      7.414
REMARK  Name = 
REMARK  5 active torsions:
REMARK  status: ('A' for Active; 'I' for Inactive)
REMARK    1  A    between atoms: C_1  and  C_2
REMARK    2  A    between atoms: C_2  and  C_3
REMARK    3  A    between atoms: C_2  and  C_4
REMARK    4  A    between atoms: C_7  and  S_8
REMARK    5  A    between atoms: S_8  and  N_11
REMARK                            x       y       z     vdW  Elec       q    Type
REMARK                         _______ _______ _______ _____ _____    ______ ____
ROOT
ATOM      1  N   UNL     1       3.840   3.182  18.775  0.00  0.00    +0.000 NA
ATOM      2  C   UNL     1       4.398   2.736  17.485  0.00  0.00    +0.000 C 
ATOM      3  C   UNL     1       5.009   3.895  16.693  0.00  0.00    +0.000 C 
ATOM      4  N   UNL     1       5.868   4.794  17.478  0.00  0.00    +0.000 N 
ATOM      5  C   UNL     1       6.484   5.785  16.690  0.00  0.00    +0.000 C 
ATOM      6  O   UNL     1       6.353   5.938  15.482  0.00  0.00    +0.000 OA
ATOM      7  N   UNL     1       7.251   6.712  17.402  0.00  0.00    +0.000 N 
ATOM      8  C   UNL     1       8.199   6.496  18.384  0.00  0.00    +0.000 A 
ATOM      9  C   UNL     1       8.595   7.746  18.797  0.00  0.00    +0.000 A 
ATOM     10  N   UNL     1       7.956   8.720  18.080  0.00  0.00    +0.000 NA
ATOM     11  C   UNL     1       7.206   8.074  17.216  0.00  0.00    +0.000 A 
ATOM     12  C   UNL     1       5.324   5.157  18.806  0.00  0.00    +0.000 C 
ATOM     13  C   UNL     1       4.781   3.962  19.595  0.00  0.00    +0.000 C 
ENDROOT
BRANCH   1  14
ATOM     14  S   UNL     1       2.190   3.222  19.069  0.00  0.00    +0.000 S 
ATOM     15  O   UNL     1       1.963   2.531  20.322  0.00  0.00    +0.000 OA
ATOM     16  O   UNL     1       1.501   2.818  17.863  0.00  0.00    +0.000 OA
BRANCH  14  20
ATOM     17  C   UNL     1       1.495   7.704  19.836  0.00  0.00    +0.000 A 
ATOM     18  C   UNL     1       1.326   6.769  20.872  0.00  0.00    +0.000 A 
ATOM     19  C   UNL     1       1.486   5.394  20.639  0.00  0.00    +0.000 A 
ATOM     20  C   UNL     1       1.802   4.939  19.355  0.00  0.00    +0.000 A 
ATOM     21  C   UNL     1       1.990   5.858  18.317  0.00  0.00    +0.000 A 
ATOM     22  C   UNL     1       1.831   7.225  18.560  0.00  0.00    +0.000 A 
BRANCH  17  24
ATOM     23  C   UNL     1       1.045   9.980  18.805  0.00  0.00    +0.000 C 
ATOM     24  C   UNL     1       1.322   9.194  20.092  0.00  0.00    +0.000 C 
ATOM     25  C   UNL     1       0.214   9.449  21.120  0.00  0.00    +0.000 C 
ENDBRANCH  17  24
ENDBRANCH  14  20
ENDBRANCH   1  14
TORSDOF 3
ENDMDL
MODEL 9
REMARK VINA RESULT:      -6.8      8.158      9.809
REMARK  Name = 
REMARK  5 active torsions:
REMARK  status: ('A' for Active; 'I' for Inactive)
REMARK    1  A    between atoms: C_1  and  C_2
REMARK    2  A    between atoms: C_2  and  C_3
REMARK    3  A    between atoms: C_2  and  C_4
REMARK    4  A    between atoms: C_7  and  S_8
REMARK    5  A    between atoms: S_8  and  N_11
REMARK                            x       y       z     vdW  Elec       q    Type
REMARK                         _______ _______ _______ _____ _____    ______ ____
ROOT
ATOM      1  N   UNL     1      -1.117  11.023  18.427  0.00  0.00    +0.000 NA
ATOM      2  C   UNL     1      -1.693   9.798  17.841  0.00  0.00    +0.000 C 
ATOM      3  C   UNL     1      -3.185   9.661  18.154  0.00  0.00    +0.000 C 
ATOM      4  N   UNL     1      -3.972  10.888  17.960  0.00  0.00    +0.000 N 
ATOM      5  C   UNL     1      -5.351  10.690  18.165  0.00  0.00    +0.000 C 
ATOM      6  O   UNL     1      -5.895   9.638  18.479  0.00  0.00    +0.000 OA
ATOM      7  N   UNL     1      -6.134  11.844  18.068  0.00  0.00    +0.000 N 
ATOM      8  C   UNL     1      -6.127  12.829  17.098  0.00  0.00    +0.000 A 
ATOM      9  C   UNL     1      -7.039  13.768  17.518  0.00  0.00    +0.000 A 
ATOM     10  N   UNL     1      -7.634  13.379  18.687  0.00  0.00    +0.000 NA
ATOM     11  C   UNL     1      -7.118  12.201  18.960  0.00  0.00    +0.000 A 
ATOM     12  C   UNL     1      -3.331  12.116  18.480  0.00  0.00    +0.000 C 
ATOM     13  C   UNL     1      -1.855  12.251  18.092  0.00  0.00    +0.000 C 
ENDROOT
BRANCH   1  14
ATOM     14  S   UNL     1      -0.042  10.978  19.714  0.00  0.00    +0.000 S 
ATOM     15  O   UNL     1      -0.798  10.592  20.888  0.00  0.00    +0.000 OA
ATOM     16  O   UNL     1       0.737  12.196  19.700  0.00  0.00    +0.000 OA
BRANCH  14  20
ATOM     17  C   UNL     1       2.588   7.360  18.640  0.00  0.00    +0.000 A 
ATOM     18  C   UNL     1       2.018   7.472  19.921  0.00  0.00    +0.000 A 
ATOM     19  C   UNL     1       1.255   8.595  20.277  0.00  0.00    +0.000 A 
ATOM     20  C   UNL     1       1.068   9.629  19.354  0.00  0.00    +0.000 A 
ATOM     21  C   UNL     1       1.615   9.525  18.071  0.00  0.00    +0.000 A 
ATOM     22  C   UNL     1       2.371   8.401  17.725  0.00  0.00    +0.000 A 
BRANCH  17  24
ATOM     23  C   UNL     1       2.540   4.954  17.831  0.00  0.00    +0.000 C 
ATOM     24  C   UNL     1       3.413   6.140  18.256  0.00  0.00    +0.000 C 
ATOM     25  C   UNL     1       4.420   6.484  17.152  0.00  0.00    +0.000 C 
ENDBRANCH  17  24
ENDBRANCH  14  20
ENDBRANCH   1  14
TORSDOF 3
ENDMDL
