MODEL 1
REMARK VINA RESULT:      -7.4      0.000      0.000
REMARK  Name = 
REMARK  5 active torsions:
REMARK  status: ('A' for Active; 'I' for Inactive)
REMARK    1  A    between atoms: C_2  and  C_3
REMARK    2  A    between atoms: C_3  and  N_4
REMARK    3  A    between atoms: N_4  and  C_5
REMARK    4  A    between atoms: C_5  and  C_6
REMARK    5  A    between atoms: C_7  and  C_8
REMARK                            x       y       z     vdW  Elec       q    Type
REMARK                         _______ _______ _______ _____ _____    ______ ____
ROOT
ATOM      1  C   UNL     1       2.426   6.234  20.079  0.00  0.00    +0.000 C 
ATOM      2  C   UNL     1       1.975   7.348  19.962  0.00  0.00    +0.000 C 
ENDROOT
BRANCH   2   3
ATOM      3  C   UNL     1       1.413   8.674  19.815  0.00  0.00    +0.000 A 
ATOM      4  C   UNL     1       1.518   9.283  18.557  0.00  0.00    +0.000 A 
ATOM      5  C   UNL     1       0.957  10.538  18.325  0.00  0.00    +0.000 A 
ATOM      6  C   UNL     1       0.262  11.188  19.342  0.00  0.00    +0.000 A 
ATOM      7  C   UNL     1       0.131  10.605  20.607  0.00  0.00    +0.000 A 
ATOM      8  C   UNL     1      -0.602  11.271  21.606  0.00  0.00    +0.000 A 
ATOM      9  C   UNL     1      -0.738  10.726  22.879  0.00  0.00    +0.000 A 
ATOM     10  C   UNL     1      -0.119   9.521  23.179  0.00  0.00    +0.000 A 
ATOM     11  C   UNL     1       0.608   8.846  22.193  0.00  0.00    +0.000 A 
ATOM     12  C   UNL     1       0.733   9.346  20.874  0.00  0.00    +0.000 A 
ENDBRANCH   2   3
BRANCH   1  13
ATOM     13  C   UNL     1       2.934   4.860  20.287  0.00  0.00    +0.000 C 
BRANCH  13  14
ATOM     14  N   UNL     1       3.900   4.425  19.144  0.00  0.00    +0.000 N 
ATOM     15  C   UNL     1       3.245   4.652  17.770  0.00  0.00    +0.000 C 
ATOM     16  C   UNL     1       2.165   3.618  17.463  0.00  0.00    +0.000 C 
ATOM     17  C   UNL     1       2.704   2.201  17.554  0.00  0.00    +0.000 C 
ATOM     18  C   UNL     1       3.278   1.940  18.936  0.00  0.00    +0.000 C 
ATOM     19  C   UNL     1       4.346   2.957  19.312  0.00  0.00    +0.000 C 
BRANCH  14  20
ATOM     20  C   UNL     1       5.176   5.297  19.298  0.00  0.00    +0.000 C 
BRANCH  20  22
ATOM     21  C   UNL     1       7.096   4.674  17.565  0.00  0.00    +0.000 C 
ATOM     22  C   UNL     1       6.231   4.939  18.355  0.00  0.00    +0.000 C 
ENDBRANCH  20  22
ENDBRANCH  14  20
ENDBRANCH  13  14
ENDBRANCH   1  13
TORSDOF 5
ENDMDL
MODEL 2
REMARK VINA RESULT:      -7.4      1.045      1.077
REMARK  Name = 
REMARK  5 active torsions:
REMARK  status: ('A' for Active; 'I' for Inactive)
REMARK    1  A    between atoms: C_2  and  C_3
REMARK    2  A    between atoms: C_3  and  N_4
REMARK    3  A    between atoms: N_4  and  C_5
REMARK    4  A    between atoms: C_5  and  C_6
REMARK    5  A    between atoms: C_7  and  C_8
REMARK                            x       y       z     vdW  Elec       q    Type
REMARK                         _______ _______ _______ _____ _____    ______ ____
ROOT
ATOM      1  C   UNL     1       2.570   6.701  19.720  0.00  0.00    +0.000 C 
ATOM      2  C   UNL     1       1.952   7.739  19.698  0.00  0.00    +0.000 C 
ENDROOT
BRANCH   2   3
ATOM      3  C   UNL     1       1.195   8.972  19.687  0.00  0.00    +0.000 A 
ATOM      4  C   UNL     1       1.062   9.638  18.460  0.00  0.00    +0.000 A 
ATOM      5  C   UNL     1       0.307  10.805  18.362  0.00  0.00    +0.000 A 
ATOM      6  C   UNL     1      -0.346  11.307  19.484  0.00  0.00    +0.000 A 
ATOM      7  C   UNL     1      -0.243  10.665  20.723  0.00  0.00    +0.000 A 
ATOM      8  C   UNL     1      -0.938  11.177  21.832  0.00  0.00    +0.000 A 
ATOM      9  C   UNL     1      -0.843  10.571  23.081  0.00  0.00    +0.000 A 
ATOM     10  C   UNL     1      -0.029   9.460  23.243  0.00  0.00    +0.000 A 
ATOM     11  C   UNL     1       0.663   8.936  22.146  0.00  0.00    +0.000 A 
ATOM     12  C   UNL     1       0.558   9.498  20.851  0.00  0.00    +0.000 A 
ENDBRANCH   2   3
BRANCH   1  13
ATOM     13  C   UNL     1       3.353   5.450  19.820  0.00  0.00    +0.000 C 
BRANCH  13  14
ATOM     14  N   UNL     1       3.532   4.771  18.430  0.00  0.00    +0.000 N 
ATOM     15  C   UNL     1       2.171   4.615  17.728  0.00  0.00    +0.000 C 
ATOM     16  C   UNL     1       1.327   3.500  18.339  0.00  0.00    +0.000 C 
ATOM     17  C   UNL     1       2.066   2.173  18.339  0.00  0.00    +0.000 C 
ATOM     18  C   UNL     1       3.374   2.295  19.102  0.00  0.00    +0.000 C 
ATOM     19  C   UNL     1       4.252   3.412  18.556  0.00  0.00    +0.000 C 
BRANCH  14  20
ATOM     20  C   UNL     1       4.472   5.698  17.611  0.00  0.00    +0.000 C 
BRANCH  20  22
ATOM     21  C   UNL     1       5.364   4.599  15.358  0.00  0.00    +0.000 C 
ATOM     22  C   UNL     1       4.956   5.079  16.381  0.00  0.00    +0.000 C 
ENDBRANCH  20  22
ENDBRANCH  14  20
ENDBRANCH  13  14
ENDBRANCH   1  13
TORSDOF 5
ENDMDL
MODEL 3
REMARK VINA RESULT:      -7.3      2.049      7.423
REMARK  Name = 
REMARK  5 active torsions:
REMARK  status: ('A' for Active; 'I' for Inactive)
REMARK    1  A    between atoms: C_2  and  C_3
REMARK    2  A    between atoms: C_3  and  N_4
REMARK    3  A    between atoms: N_4  and  C_5
REMARK    4  A    between atoms: C_5  and  C_6
REMARK    5  A    between atoms: C_7  and  C_8
REMARK                            x       y       z     vdW  Elec       q    Type
REMARK                         _______ _______ _______ _____ _____    ______ ____
ROOT
ATOM      1  C   UNL     1       2.102   8.433  18.212  0.00  0.00    +0.000 C 
ATOM      2  C   UNL     1       2.541   7.309  18.163  0.00  0.00    +0.000 C 
ENDROOT
BRANCH   2   3
ATOM      3  C   UNL     1       3.051   5.957  18.086  0.00  0.00    +0.000 A 
ATOM      4  C   UNL     1       4.086   5.708  17.173  0.00  0.00    +0.000 A 
ATOM      5  C   UNL     1       4.661   4.442  17.077  0.00  0.00    +0.000 A 
ATOM      6  C   UNL     1       4.227   3.416  17.911  0.00  0.00    +0.000 A 
ATOM      7  C   UNL     1       3.202   3.630  18.840  0.00  0.00    +0.000 A 
ATOM      8  C   UNL     1       2.805   2.584  19.689  0.00  0.00    +0.000 A 
ATOM      9  C   UNL     1       1.778   2.759  20.613  0.00  0.00    +0.000 A 
ATOM     10  C   UNL     1       1.117   3.977  20.678  0.00  0.00    +0.000 A 
ATOM     11  C   UNL     1       1.507   5.029  19.842  0.00  0.00    +0.000 A 
ATOM     12  C   UNL     1       2.574   4.902  18.921  0.00  0.00    +0.000 A 
ENDBRANCH   2   3
BRANCH   1  13
ATOM     13  C   UNL     1       1.604   9.826  18.206  0.00  0.00    +0.000 C 
BRANCH  13  14
ATOM     14  N   UNL     1       0.684  10.115  19.430  0.00  0.00    +0.000 N 
ATOM     15  C   UNL     1      -0.798  10.020  19.024  0.00  0.00    +0.000 C 
ATOM     16  C   UNL     1      -1.252  11.222  18.201  0.00  0.00    +0.000 C 
ATOM     17  C   UNL     1      -0.996  12.529  18.930  0.00  0.00    +0.000 C 
ATOM     18  C   UNL     1       0.479  12.671  19.262  0.00  0.00    +0.000 C 
ATOM     19  C   UNL     1       1.001  11.486  20.062  0.00  0.00    +0.000 C 
BRANCH  14  20
ATOM     20  C   UNL     1       1.034   9.041  20.497  0.00  0.00    +0.000 C 
BRANCH  20  22
ATOM     21  C   UNL     1      -0.385   9.330  22.730  0.00  0.00    +0.000 C 
ATOM     22  C   UNL     1       0.270   9.194  21.732  0.00  0.00    +0.000 C 
ENDBRANCH  20  22
ENDBRANCH  14  20
ENDBRANCH  13  14
ENDBRANCH   1  13
TORSDOF 5
ENDMDL
MODEL 4
REMARK VINA RESULT:      -7.3      1.217      1.698
REMARK  Name = 
REMARK  5 active torsions:
REMARK  status: ('A' for Active; 'I' for Inactive)
REMARK    1  A    between atoms: C_2  and  C_3
REMARK    2  A    between atoms: C_3  and  N_4
REMARK    3  A    between atoms: N_4  and  C_5
REMARK    4  A    between atoms: C_5  and  C_6
REMARK    5  A    between atoms: C_7  and  C_8
REMARK                            x       y       z     vdW  Elec       q    Type
REMARK                         _______ _______ _______ _____ _____    ______ ____
ROOT
ATOM      1  C   UNL     1       2.879   6.601  19.394  0.00  0.00    +0.000 C 
ATOM      2  C   UNL     1       2.191   7.593  19.394  0.00  0.00    +0.000 C 
ENDROOT
BRANCH   2   3
ATOM      3  C   UNL     1       1.347   8.769  19.389  0.00  0.00    +0.000 A 
ATOM      4  C   UNL     1       1.067   9.358  18.147  0.00  0.00    +0.000 A 
ATOM      5  C   UNL     1       0.223  10.463  18.058  0.00  0.00    +0.000 A 
ATOM      6  C   UNL     1      -0.374  10.977  19.206  0.00  0.00    +0.000 A 
ATOM      7  C   UNL     1      -0.124  10.410  20.460  0.00  0.00    +0.000 A 
ATOM      8  C   UNL     1      -0.763  10.931  21.598  0.00  0.00    +0.000 A 
ATOM      9  C   UNL     1      -0.525  10.400  22.863  0.00  0.00    +0.000 A 
ATOM     10  C   UNL     1       0.380   9.358  23.008  0.00  0.00    +0.000 A 
ATOM     11  C   UNL     1       1.018   8.826  21.883  0.00  0.00    +0.000 A 
ATOM     12  C   UNL     1       0.769   9.310  20.576  0.00  0.00    +0.000 A 
ENDBRANCH   2   3
BRANCH   1  13
ATOM     13  C   UNL     1       3.689   5.365  19.464  0.00  0.00    +0.000 C 
BRANCH  13  14
ATOM     14  N   UNL     1       2.902   4.130  18.931  0.00  0.00    +0.000 N 
ATOM     15  C   UNL     1       1.432   4.193  19.383  0.00  0.00    +0.000 C 
ATOM     16  C   UNL     1       1.265   3.858  20.862  0.00  0.00    +0.000 C 
ATOM     17  C   UNL     1       1.854   2.499  21.199  0.00  0.00    +0.000 C 
ATOM     18  C   UNL     1       3.328   2.455  20.833  0.00  0.00    +0.000 C 
ATOM     19  C   UNL     1       3.564   2.808  19.371  0.00  0.00    +0.000 C 
BRANCH  14  20
ATOM     20  C   UNL     1       3.006   4.185  17.382  0.00  0.00    +0.000 C 
BRANCH  20  22
ATOM     21  C   UNL     1       5.515   4.127  16.498  0.00  0.00    +0.000 C 
ATOM     22  C   UNL     1       4.383   4.171  16.901  0.00  0.00    +0.000 C 
ENDBRANCH  20  22
ENDBRANCH  14  20
ENDBRANCH  13  14
ENDBRANCH   1  13
TORSDOF 5
ENDMDL
MODEL 5
REMARK VINA RESULT:      -7.3      1.126      1.651
REMARK  Name = 
REMARK  5 active torsions:
REMARK  status: ('A' for Active; 'I' for Inactive)
REMARK    1  A    between atoms: C_2  and  C_3
REMARK    2  A    between atoms: C_3  and  N_4
REMARK    3  A    between atoms: N_4  and  C_5
REMARK    4  A    between atoms: C_5  and  C_6
REMARK    5  A    between atoms: C_7  and  C_8
REMARK                            x       y       z     vdW  Elec       q    Type
REMARK                         _______ _______ _______ _____ _____    ______ ____
ROOT
ATOM      1  C   UNL     1       2.375   6.697  18.258  0.00  0.00    +0.000 C 
ATOM      2  C   UNL     1       2.073   7.823  18.577  0.00  0.00    +0.000 C 
ENDROOT
BRANCH   2   3
ATOM      3  C   UNL     1       1.691   9.162  18.971  0.00  0.00    +0.000 A 
ATOM      4  C   UNL     1       1.999  10.208  18.089  0.00  0.00    +0.000 A 
ATOM      5  C   UNL     1       1.620  11.517  18.378  0.00  0.00    +0.000 A 
ATOM      6  C   UNL     1       0.905  11.794  19.540  0.00  0.00    +0.000 A 
ATOM      7  C   UNL     1       0.573  10.774  20.439  0.00  0.00    +0.000 A 
ATOM      8  C   UNL     1      -0.175  11.079  21.589  0.00  0.00    +0.000 A 
ATOM      9  C   UNL     1      -0.508  10.091  22.511  0.00  0.00    +0.000 A 
ATOM     10  C   UNL     1      -0.071   8.789  22.308  0.00  0.00    +0.000 A 
ATOM     11  C   UNL     1       0.669   8.472  21.164  0.00  0.00    +0.000 A 
ATOM     12  C   UNL     1       0.990   9.440  20.183  0.00  0.00    +0.000 A 
ENDBRANCH   2   3
BRANCH   1  13
ATOM     13  C   UNL     1       2.771   5.308  17.942  0.00  0.00    +0.000 C 
BRANCH  13  14
ATOM     14  N   UNL     1       3.320   4.566  19.198  0.00  0.00    +0.000 N 
ATOM     15  C   UNL     1       3.355   3.047  18.953  0.00  0.00    +0.000 C 
ATOM     16  C   UNL     1       1.965   2.420  18.997  0.00  0.00    +0.000 C 
ATOM     17  C   UNL     1       1.256   2.718  20.306  0.00  0.00    +0.000 C 
ATOM     18  C   UNL     1       1.142   4.218  20.517  0.00  0.00    +0.000 C 
ATOM     19  C   UNL     1       2.497   4.908  20.458  0.00  0.00    +0.000 C 
BRANCH  14  20
ATOM     20  C   UNL     1       4.752   5.120  19.438  0.00  0.00    +0.000 C 
BRANCH  20  22
ATOM     21  C   UNL     1       6.442   4.619  17.445  0.00  0.00    +0.000 C 
ATOM     22  C   UNL     1       5.666   4.835  18.336  0.00  0.00    +0.000 C 
ENDBRANCH  20  22
ENDBRANCH  14  20
ENDBRANCH  13  14
ENDBRANCH   1  13
TORSDOF 5
ENDMDL
MODEL 6
REMARK VINA RESULT:      -7.2      1.312      2.520
REMARK  Name = 
REMARK  5 active torsions:
REMARK  status: ('A' for Active; 'I' for Inactive)
REMARK    1  A    between atoms: C_2  and  C_3
REMARK    2  A    between atoms: C_3  and  N_4
REMARK    3  A    between atoms: N_4  and  C_5
REMARK    4  A    between atoms: C_5  and  C_6
REMARK    5  A    between atoms: C_7  and  C_8
REMARK                            x       y       z     vdW  Elec       q    Type
REMARK                         _______ _______ _______ _____ _____    ______ ____
ROOT
ATOM      1  C   UNL     1       2.719   7.020  19.426  0.00  0.00    +0.000 C 
ATOM      2  C   UNL     1       1.959   7.955  19.503  0.00  0.00    +0.000 C 
ENDROOT
BRANCH   2   3
ATOM      3  C   UNL     1       1.061   9.088  19.577  0.00  0.00    +0.000 A 
ATOM      4  C   UNL     1       0.727   9.727  18.374  0.00  0.00    +0.000 A 
ATOM      5  C   UNL     1      -0.170  10.793  18.361  0.00  0.00    +0.000 A 
ATOM      6  C   UNL     1      -0.765  11.218  19.546  0.00  0.00    +0.000 A 
ATOM      7  C   UNL     1      -0.460  10.598  20.763  0.00  0.00    +0.000 A 
ATOM      8  C   UNL     1      -1.098  11.028  21.940  0.00  0.00    +0.000 A 
ATOM      9  C   UNL     1      -0.807  10.443  23.169  0.00  0.00    +0.000 A 
ATOM     10  C   UNL     1       0.149   9.440  23.241  0.00  0.00    +0.000 A 
ATOM     11  C   UNL     1       0.786   8.999  22.076  0.00  0.00    +0.000 A 
ATOM     12  C   UNL     1       0.485   9.538  20.803  0.00  0.00    +0.000 A 
ENDBRANCH   2   3
BRANCH   1  13
ATOM     13  C   UNL     1       3.612   5.851  19.264  0.00  0.00    +0.000 C 
BRANCH  13  14
ATOM     14  N   UNL     1       2.881   4.517  19.601  0.00  0.00    +0.000 N 
ATOM     15  C   UNL     1       3.823   3.319  19.388  0.00  0.00    +0.000 C 
ATOM     16  C   UNL     1       4.042   3.008  17.911  0.00  0.00    +0.000 C 
ATOM     17  C   UNL     1       2.728   2.770  17.187  0.00  0.00    +0.000 C 
ATOM     18  C   UNL     1       1.822   3.982  17.322  0.00  0.00    +0.000 C 
ATOM     19  C   UNL     1       1.586   4.361  18.776  0.00  0.00    +0.000 C 
BRANCH  14  20
ATOM     20  C   UNL     1       2.450   4.623  21.090  0.00  0.00    +0.000 C 
BRANCH  20  22
ATOM     21  C   UNL     1       1.368   2.391  22.053  0.00  0.00    +0.000 C 
ATOM     22  C   UNL     1       1.861   3.390  21.603  0.00  0.00    +0.000 C 
ENDBRANCH  20  22
ENDBRANCH  14  20
ENDBRANCH  13  14
ENDBRANCH   1  13
TORSDOF 5
ENDMDL
MODEL 7
REMARK VINA RESULT:      -7.2      2.125      8.011
REMARK  Name = 
REMARK  5 active torsions:
REMARK  status: ('A' for Active; 'I' for Inactive)
REMARK    1  A    between atoms: C_2  and  C_3
REMARK    2  A    between atoms: C_3  and  N_4
REMARK    3  A    between atoms: N_4  and  C_5
REMARK    4  A    between atoms: C_5  and  C_6
REMARK    5  A    between atoms: C_7  and  C_8
REMARK                            x       y       z     vdW  Elec       q    Type
REMARK                         _______ _______ _______ _____ _____    ______ ____
ROOT
ATOM      1  C   UNL     1       2.062   8.649  18.149  0.00  0.00    +0.000 C 
ATOM      2  C   UNL     1       2.412   7.504  17.990  0.00  0.00    +0.000 C 
ENDROOT
BRANCH   2   3
ATOM      3  C   UNL     1       2.807   6.126  17.792  0.00  0.00    +0.000 A 
ATOM      4  C   UNL     1       1.850   5.135  18.054  0.00  0.00    +0.000 A 
ATOM      5  C   UNL     1       2.142   3.789  17.839  0.00  0.00    +0.000 A 
ATOM      6  C   UNL     1       3.386   3.419  17.336  0.00  0.00    +0.000 A 
ATOM      7  C   UNL     1       4.362   4.382  17.056  0.00  0.00    +0.000 A 
ATOM      8  C   UNL     1       5.599   3.981  16.520  0.00  0.00    +0.000 A 
ATOM      9  C   UNL     1       6.597   4.912  16.245  0.00  0.00    +0.000 A 
ATOM     10  C   UNL     1       6.381   6.253  16.530  0.00  0.00    +0.000 A 
ATOM     11  C   UNL     1       5.152   6.664  17.057  0.00  0.00    +0.000 A 
ATOM     12  C   UNL     1       4.098   5.755  17.310  0.00  0.00    +0.000 A 
ENDBRANCH   2   3
BRANCH   1  13
ATOM     13  C   UNL     1       1.635  10.061  18.265  0.00  0.00    +0.000 C 
BRANCH  13  14
ATOM     14  N   UNL     1       0.676  10.274  19.475  0.00  0.00    +0.000 N 
ATOM     15  C   UNL     1      -0.791  10.145  19.028  0.00  0.00    +0.000 C 
ATOM     16  C   UNL     1      -1.266  11.360  18.237  0.00  0.00    +0.000 C 
ATOM     17  C   UNL     1      -1.073  12.648  19.017  0.00  0.00    +0.000 C 
ATOM     18  C   UNL     1       0.389  12.827  19.391  0.00  0.00    +0.000 C 
ATOM     19  C   UNL     1       0.931  11.632  20.162  0.00  0.00    +0.000 C 
BRANCH  14  20
ATOM     20  C   UNL     1       1.036   9.176  20.513  0.00  0.00    +0.000 C 
BRANCH  20  22
ATOM     21  C   UNL     1      -0.397   9.313  22.751  0.00  0.00    +0.000 C 
ATOM     22  C   UNL     1       0.235   9.256  21.730  0.00  0.00    +0.000 C 
ENDBRANCH  20  22
ENDBRANCH  14  20
ENDBRANCH  13  14
ENDBRANCH   1  13
TORSDOF 5
ENDMDL
MODEL 8
REMARK VINA RESULT:      -7.2      1.383      3.359
REMARK  Name = 
REMARK  5 active torsions:
REMARK  status: ('A' for Active; 'I' for Inactive)
REMARK    1  A    between atoms: C_2  and  C_3
REMARK    2  A    between atoms: C_3  and  N_4
REMARK    3  A    between atoms: N_4  and  C_5
REMARK    4  A    between atoms: C_5  and  C_6
REMARK    5  A    between atoms: C_7  and  C_8
REMARK                            x       y       z     vdW  Elec       q    Type
REMARK                         _______ _______ _______ _____ _____    ______ ____
ROOT
ATOM      1  C   UNL     1       2.220   7.244  19.847  0.00  0.00    +0.000 C 
ATOM      2  C   UNL     1       1.507   8.048  20.399  0.00  0.00    +0.000 C 
ENDROOT
BRANCH   2   3
ATOM      3  C   UNL     1       0.647   8.994  21.079  0.00  0.00    +0.000 A 
ATOM      4  C   UNL     1       0.595   8.929  22.478  0.00  0.00    +0.000 A 
ATOM      5  C   UNL     1      -0.173   9.839  23.204  0.00  0.00    +0.000 A 
ATOM      6  C   UNL     1      -0.876  10.841  22.541  0.00  0.00    +0.000 A 
ATOM      7  C   UNL     1      -0.840  10.940  21.145  0.00  0.00    +0.000 A 
ATOM      8  C   UNL     1      -1.536  11.979  20.505  0.00  0.00    +0.000 A 
ATOM      9  C   UNL     1      -1.534  12.097  19.118  0.00  0.00    +0.000 A 
ATOM     10  C   UNL     1      -0.857  11.158  18.352  0.00  0.00    +0.000 A 
ATOM     11  C   UNL     1      -0.155  10.122  18.978  0.00  0.00    +0.000 A 
ATOM     12  C   UNL     1      -0.099   9.995  20.386  0.00  0.00    +0.000 A 
ENDBRANCH   2   3
BRANCH   1  13
ATOM     13  C   UNL     1       3.148   6.273  19.228  0.00  0.00    +0.000 C 
BRANCH  13  14
ATOM     14  N   UNL     1       2.759   4.805  19.572  0.00  0.00    +0.000 N 
ATOM     15  C   UNL     1       3.915   3.847  19.231  0.00  0.00    +0.000 C 
ATOM     16  C   UNL     1       4.059   3.622  17.729  0.00  0.00    +0.000 C 
ATOM     17  C   UNL     1       2.766   3.116  17.112  0.00  0.00    +0.000 C 
ATOM     18  C   UNL     1       1.635   4.097  17.372  0.00  0.00    +0.000 C 
ATOM     19  C   UNL     1       1.458   4.384  18.855  0.00  0.00    +0.000 C 
BRANCH  14  20
ATOM     20  C   UNL     1       2.454   4.782  21.096  0.00  0.00    +0.000 C 
BRANCH  20  22
ATOM     21  C   UNL     1       1.562   2.413  21.917  0.00  0.00    +0.000 C 
ATOM     22  C   UNL     1       1.955   3.491  21.559  0.00  0.00    +0.000 C 
ENDBRANCH  20  22
ENDBRANCH  14  20
ENDBRANCH  13  14
ENDBRANCH   1  13
TORSDOF 5
ENDMDL
MODEL 9
REMARK VINA RESULT:      -7.1      1.065      2.769
REMARK  Name = 
REMARK  5 active torsions:
REMARK  status: ('A' for Active; 'I' for Inactive)
REMARK    1  A    between atoms: C_2  and  C_3
REMARK    2  A    between atoms: C_3  and  N_4
REMARK    3  A    between atoms: N_4  and  C_5
REMARK    4  A    between atoms: C_5  and  C_6
REMARK    5  A    between atoms: C_7  and  C_8
REMARK                            x       y       z     vdW  Elec       q    Type
REMARK                         _______ _______ _______ _____ _____    ______ ____
ROOT
ATOM      1  C   UNL     1       2.413   6.835  19.793  0.00  0.00    +0.000 C 
ATOM      2  C   UNL     1       1.801   7.876  19.787  0.00  0.00    +0.000 C 
ENDROOT
BRANCH   2   3
ATOM      3  C   UNL     1       1.089   9.136  19.783  0.00  0.00    +0.000 A 
ATOM      4  C   UNL     1       1.031   9.841  18.572  0.00  0.00    +0.000 A 
ATOM      5  C   UNL     1       0.322  11.038  18.479  0.00  0.00    +0.000 A 
ATOM      6  C   UNL     1      -0.359  11.531  19.588  0.00  0.00    +0.000 A 
ATOM      7  C   UNL     1      -0.330  10.850  20.810  0.00  0.00    +0.000 A 
ATOM      8  C   UNL     1      -1.051  11.356  21.905  0.00  0.00    +0.000 A 
ATOM      9  C   UNL     1      -1.030  10.711  23.138  0.00  0.00    +0.000 A 
ATOM     10  C   UNL     1      -0.263   9.566  23.300  0.00  0.00    +0.000 A 
ATOM     11  C   UNL     1       0.455   9.049  22.216  0.00  0.00    +0.000 A 
ATOM     12  C   UNL     1       0.424   9.652  20.936  0.00  0.00    +0.000 A 
ENDBRANCH   2   3
BRANCH   1  13
ATOM     13  C   UNL     1       3.185   5.575  19.724  0.00  0.00    +0.000 C 
BRANCH  13  14
ATOM     14  N   UNL     1       3.344   5.076  18.257  0.00  0.00    +0.000 N 
ATOM     15  C   UNL     1       4.273   3.850  18.204  0.00  0.00    +0.000 C 
ATOM     16  C   UNL     1       5.739   4.222  18.401  0.00  0.00    +0.000 C 
ATOM     17  C   UNL     1       6.194   5.262  17.392  0.00  0.00    +0.000 C 
ATOM     18  C   UNL     1       5.335   6.511  17.495  0.00  0.00    +0.000 C 
ATOM     19  C   UNL     1       3.854   6.201  17.332  0.00  0.00    +0.000 C 
BRANCH  14  20
ATOM     20  C   UNL     1       1.917   4.709  17.766  0.00  0.00    +0.000 C 
BRANCH  20  22
ATOM     21  C   UNL     1       0.968   2.527  18.957  0.00  0.00    +0.000 C 
ATOM     22  C   UNL     1       1.383   3.512  18.407  0.00  0.00    +0.000 C 
ENDBRANCH  20  22
ENDBRANCH  14  20
ENDBRANCH  13  14
ENDBRANCH   1  13
TORSDOF 5
ENDMDL
