MODEL 1
REMARK VINA RESULT:      -9.1      0.000      0.000
REMARK  Name = 
REMARK  3 active torsions:
REMARK  status: ('A' for Active; 'I' for Inactive)
REMARK    1  A    between atoms: C_2  and  C_22
REMARK    2  A    between atoms: N_3  and  C_4
REMARK    3  A    between atoms: C_14  and  C_16
REMARK                            x       y       z     vdW  Elec       q    Type
REMARK                         _______ _______ _______ _____ _____    ______ ____
ROOT
ATOM      1  C   UNL     1       1.714   8.631  19.058  0.00  0.00    +0.000 A 
ATOM      2  C   UNL     1       1.288   8.350  20.350  0.00  0.00    +0.000 A 
ATOM      3  C   UNL     1       0.439   9.228  21.027  0.00  0.00    +0.000 A 
ATOM      4  C   UNL     1      -0.014  10.404  20.423  0.00  0.00    +0.000 A 
ATOM      5  C   UNL     1       0.415  10.697  19.110  0.00  0.00    +0.000 A 
ATOM      6  C   UNL     1       1.299   9.821  18.453  0.00  0.00    +0.000 A 
ATOM      7  C   UNL     1      -0.080  11.909  18.356  0.00  0.00    +0.000 C 
ATOM      8  C   UNL     1      -0.895  12.857  19.221  0.00  0.00    +0.000 C 
ATOM      9  C   UNL     1      -1.785  12.032  20.139  0.00  0.00    +0.000 C 
ATOM     10  N   UNL     1      -0.929  11.297  21.084  0.00  0.00    +0.000 N 
ATOM     11  C   UNL     1      -0.931  11.430  22.489  0.00  0.00    +0.000 C 
ATOM     12  O   UNL     1      -0.232  10.767  23.256  0.00  0.00    +0.000 OA
ENDROOT
BRANCH  11  13
ATOM     13  C   UNL     1      -1.786  12.443  23.170  0.00  0.00    +0.000 A 
ATOM     14  C   UNL     1      -3.057  12.037  23.606  0.00  0.00    +0.000 A 
ATOM     15  C   UNL     1      -3.895  12.926  24.280  0.00  0.00    +0.000 A 
ATOM     16  C   UNL     1      -3.477  14.235  24.508  0.00  0.00    +0.000 A 
ATOM     17  C   UNL     1      -2.199  14.635  24.122  0.00  0.00    +0.000 A 
ATOM     18  C   UNL     1      -1.340  13.727  23.500  0.00  0.00    +0.000 A 
ENDBRANCH  11  13
BRANCH   1  21
ATOM     19  O   UNL     1       2.927   6.054  19.833  0.00  0.00    +0.000 OA
ATOM     20  C   UNL     1       3.121   6.599  18.751  0.00  0.00    +0.000 C 
ATOM     21  N   UNL     1       2.542   7.772  18.311  0.00  0.00    +0.000 N 
ATOM     22  H   UNL     1       2.702   8.033  17.346  0.00  0.00    +0.000 HD
BRANCH  20  23
ATOM     23  C   UNL     1       3.972   5.880  17.765  0.00  0.00    +0.000 A 
ATOM     24  C   UNL     1       5.086   6.594  17.287  0.00  0.00    +0.000 A 
ATOM     25  C   UNL     1       5.958   6.020  16.363  0.00  0.00    +0.000 A 
ATOM     26  C   UNL     1       5.727   4.727  15.906  0.00  0.00    +0.000 A 
ATOM     27  C   UNL     1       4.618   4.011  16.364  0.00  0.00    +0.000 A 
ATOM     28  C   UNL     1       3.732   4.585  17.286  0.00  0.00    +0.000 A 
ATOM     29 BR   UNL     1       2.218   3.537  17.758  0.00  0.00    +0.000 Br
ENDBRANCH  20  23
ENDBRANCH   1  21
TORSDOF 3
ENDMDL
MODEL 2
REMARK VINA RESULT:      -8.8      0.882      1.267
REMARK  Name = 
REMARK  3 active torsions:
REMARK  status: ('A' for Active; 'I' for Inactive)
REMARK    1  A    between atoms: C_2  and  C_22
REMARK    2  A    between atoms: N_3  and  C_4
REMARK    3  A    between atoms: C_14  and  C_16
REMARK                            x       y       z     vdW  Elec       q    Type
REMARK                         _______ _______ _______ _____ _____    ______ ____
ROOT
ATOM      1  C   UNL     1       1.771   8.107  19.701  0.00  0.00    +0.000 A 
ATOM      2  C   UNL     1       1.227   7.925  20.967  0.00  0.00    +0.000 A 
ATOM      3  C   UNL     1       0.372   8.881  21.519  0.00  0.00    +0.000 A 
ATOM      4  C   UNL     1       0.030  10.038  20.814  0.00  0.00    +0.000 A 
ATOM      5  C   UNL     1       0.579  10.230  19.527  0.00  0.00    +0.000 A 
ATOM      6  C   UNL     1       1.467   9.276  18.997  0.00  0.00    +0.000 A 
ATOM      7  C   UNL     1       0.208  11.416  18.667  0.00  0.00    +0.000 C 
ATOM      8  C   UNL     1      -0.625  12.450  19.404  0.00  0.00    +0.000 C 
ATOM      9  C   UNL     1      -1.627  11.725  20.290  0.00  0.00    +0.000 C 
ATOM     10  N   UNL     1      -0.888  11.010  21.344  0.00  0.00    +0.000 N 
ATOM     11  C   UNL     1      -0.998  11.228  22.733  0.00  0.00    +0.000 C 
ATOM     12  O   UNL     1      -0.398  10.581  23.594  0.00  0.00    +0.000 OA
ENDROOT
BRANCH  11  13
ATOM     13  C   UNL     1      -1.853  12.319  23.282  0.00  0.00    +0.000 A 
ATOM     14  C   UNL     1      -1.289  13.600  23.385  0.00  0.00    +0.000 A 
ATOM     15  C   UNL     1      -2.045  14.673  23.860  0.00  0.00    +0.000 A 
ATOM     16  C   UNL     1      -3.366  14.470  24.255  0.00  0.00    +0.000 A 
ATOM     17  C   UNL     1      -3.949  13.212  24.113  0.00  0.00    +0.000 A 
ATOM     18  C   UNL     1      -3.209  12.154  23.582  0.00  0.00    +0.000 A 
ENDBRANCH  11  13
BRANCH   1  21
ATOM     19  O   UNL     1       3.085   8.231  17.060  0.00  0.00    +0.000 OA
ATOM     20  C   UNL     1       3.156   7.263  17.811  0.00  0.00    +0.000 C 
ATOM     21  N   UNL     1       2.612   7.167  19.076  0.00  0.00    +0.000 N 
ATOM     22  H   UNL     1       2.860   6.355  19.626  0.00  0.00    +0.000 HD
BRANCH  20  23
ATOM     23  C   UNL     1       4.003   6.120  17.376  0.00  0.00    +0.000 A 
ATOM     24  C   UNL     1       5.299   6.453  16.942  0.00  0.00    +0.000 A 
ATOM     25  C   UNL     1       6.185   5.464  16.516  0.00  0.00    +0.000 A 
ATOM     26  C   UNL     1       5.785   4.131  16.517  0.00  0.00    +0.000 A 
ATOM     27  C   UNL     1       4.497   3.789  16.935  0.00  0.00    +0.000 A 
ATOM     28  C   UNL     1       3.599   4.778  17.357  0.00  0.00    +0.000 A 
ATOM     29 BR   UNL     1       1.852   4.184  17.814  0.00  0.00    +0.000 Br
ENDBRANCH  20  23
ENDBRANCH   1  21
TORSDOF 3
ENDMDL
MODEL 3
REMARK VINA RESULT:      -8.6      2.845      9.716
REMARK  Name = 
REMARK  3 active torsions:
REMARK  status: ('A' for Active; 'I' for Inactive)
REMARK    1  A    between atoms: C_2  and  C_22
REMARK    2  A    between atoms: N_3  and  C_4
REMARK    3  A    between atoms: C_14  and  C_16
REMARK                            x       y       z     vdW  Elec       q    Type
REMARK                         _______ _______ _______ _____ _____    ______ ____
ROOT
ATOM      1  C   UNL     1      -0.347  10.613  21.924  0.00  0.00    +0.000 A 
ATOM      2  C   UNL     1       0.300   9.550  22.543  0.00  0.00    +0.000 A 
ATOM      3  C   UNL     1       1.028   8.626  21.792  0.00  0.00    +0.000 A 
ATOM      4  C   UNL     1       1.138   8.748  20.404  0.00  0.00    +0.000 A 
ATOM      5  C   UNL     1       0.484   9.826  19.768  0.00  0.00    +0.000 A 
ATOM      6  C   UNL     1      -0.277  10.730  20.533  0.00  0.00    +0.000 A 
ATOM      7  C   UNL     1       0.607  10.075  18.283  0.00  0.00    +0.000 C 
ATOM      8  C   UNL     1       1.313   8.949  17.547  0.00  0.00    +0.000 C 
ATOM      9  C   UNL     1       2.472   8.460  18.403  0.00  0.00    +0.000 C 
ATOM     10  N   UNL     1       1.925   7.835  19.618  0.00  0.00    +0.000 N 
ATOM     11  C   UNL     1       2.089   6.490  20.009  0.00  0.00    +0.000 C 
ATOM     12  O   UNL     1       1.655   6.007  21.057  0.00  0.00    +0.000 OA
ENDROOT
BRANCH  11  13
ATOM     13  C   UNL     1       2.796   5.509  19.138  0.00  0.00    +0.000 A 
ATOM     14  C   UNL     1       4.154   5.266  19.397  0.00  0.00    +0.000 A 
ATOM     15  C   UNL     1       4.867   4.336  18.640  0.00  0.00    +0.000 A 
ATOM     16  C   UNL     1       4.232   3.653  17.604  0.00  0.00    +0.000 A 
ATOM     17  C   UNL     1       2.873   3.852  17.369  0.00  0.00    +0.000 A 
ATOM     18  C   UNL     1       2.148   4.740  18.166  0.00  0.00    +0.000 A 
ENDBRANCH  11  13
BRANCH   1  21
ATOM     19  O   UNL     1      -0.493  13.525  21.458  0.00  0.00    +0.000 OA
ATOM     20  C   UNL     1      -1.054  12.956  22.389  0.00  0.00    +0.000 C 
ATOM     21  N   UNL     1      -1.068  11.596  22.627  0.00  0.00    +0.000 N 
ATOM     22  H   UNL     1      -1.679  11.263  23.363  0.00  0.00    +0.000 HD
BRANCH  20  23
ATOM     23  C   UNL     1      -1.897  13.786  23.290  0.00  0.00    +0.000 A 
ATOM     24  C   UNL     1      -1.202  14.526  24.265  0.00  0.00    +0.000 A 
ATOM     25  C   UNL     1      -1.887  15.344  25.161  0.00  0.00    +0.000 A 
ATOM     26  C   UNL     1      -3.274  15.432  25.096  0.00  0.00    +0.000 A 
ATOM     27  C   UNL     1      -3.976  14.694  24.141  0.00  0.00    +0.000 A 
ATOM     28  C   UNL     1      -3.295  13.863  23.242  0.00  0.00    +0.000 A 
ATOM     29 BR   UNL     1      -4.379  12.849  22.054  0.00  0.00    +0.000 Br
ENDBRANCH  20  23
ENDBRANCH   1  21
TORSDOF 3
ENDMDL
MODEL 4
REMARK VINA RESULT:      -8.6      2.949      9.768
REMARK  Name = 
REMARK  3 active torsions:
REMARK  status: ('A' for Active; 'I' for Inactive)
REMARK    1  A    between atoms: C_2  and  C_22
REMARK    2  A    between atoms: N_3  and  C_4
REMARK    3  A    between atoms: C_14  and  C_16
REMARK                            x       y       z     vdW  Elec       q    Type
REMARK                         _______ _______ _______ _____ _____    ______ ____
ROOT
ATOM      1  C   UNL     1       0.065  10.431  21.889  0.00  0.00    +0.000 A 
ATOM      2  C   UNL     1       0.592   9.292  22.486  0.00  0.00    +0.000 A 
ATOM      3  C   UNL     1       1.242   8.323  21.719  0.00  0.00    +0.000 A 
ATOM      4  C   UNL     1       1.391   8.474  20.338  0.00  0.00    +0.000 A 
ATOM      5  C   UNL     1       0.859   9.629  19.725  0.00  0.00    +0.000 A 
ATOM      6  C   UNL     1       0.175  10.581  20.504  0.00  0.00    +0.000 A 
ATOM      7  C   UNL     1       1.036   9.907  18.250  0.00  0.00    +0.000 C 
ATOM      8  C   UNL     1       1.644   8.740  17.492  0.00  0.00    +0.000 C 
ATOM      9  C   UNL     1       2.732   8.115  18.354  0.00  0.00    +0.000 C 
ATOM     10  N   UNL     1       2.101   7.511  19.539  0.00  0.00    +0.000 N 
ATOM     11  C   UNL     1       2.125   6.146  19.891  0.00  0.00    +0.000 C 
ATOM     12  O   UNL     1       1.625   5.678  20.915  0.00  0.00    +0.000 OA
ENDROOT
BRANCH  11  13
ATOM     13  C   UNL     1       2.751   5.126  19.002  0.00  0.00    +0.000 A 
ATOM     14  C   UNL     1       4.090   4.783  19.244  0.00  0.00    +0.000 A 
ATOM     15  C   UNL     1       4.726   3.812  18.470  0.00  0.00    +0.000 A 
ATOM     16  C   UNL     1       4.034   3.188  17.434  0.00  0.00    +0.000 A 
ATOM     17  C   UNL     1       2.690   3.487  17.216  0.00  0.00    +0.000 A 
ATOM     18  C   UNL     1       2.039   4.415  18.030  0.00  0.00    +0.000 A 
ENDBRANCH  11  13
BRANCH   1  21
ATOM     19  O   UNL     1      -2.232  12.118  21.116  0.00  0.00    +0.000 OA
ATOM     20  C   UNL     1      -1.614  12.249  22.168  0.00  0.00    +0.000 C 
ATOM     21  N   UNL     1      -0.572  11.460  22.609  0.00  0.00    +0.000 N 
ATOM     22  H   UNL     1      -0.245  11.611  23.555  0.00  0.00    +0.000 HD
BRANCH  20  23
ATOM     23  C   UNL     1      -2.100  13.283  23.122  0.00  0.00    +0.000 A 
ATOM     24  C   UNL     1      -3.281  12.963  23.818  0.00  0.00    +0.000 A 
ATOM     25  C   UNL     1      -3.827  13.852  24.741  0.00  0.00    +0.000 A 
ATOM     26  C   UNL     1      -3.202  15.071  24.980  0.00  0.00    +0.000 A 
ATOM     27  C   UNL     1      -2.035  15.406  24.289  0.00  0.00    +0.000 A 
ATOM     28  C   UNL     1      -1.485  14.520  23.352  0.00  0.00    +0.000 A 
ATOM     29 BR   UNL     1       0.053  15.137  22.419  0.00  0.00    +0.000 Br
ENDBRANCH  20  23
ENDBRANCH   1  21
TORSDOF 3
ENDMDL
MODEL 5
REMARK VINA RESULT:      -8.5      2.675     10.010
REMARK  Name = 
REMARK  3 active torsions:
REMARK  status: ('A' for Active; 'I' for Inactive)
REMARK    1  A    between atoms: C_2  and  C_22
REMARK    2  A    between atoms: N_3  and  C_4
REMARK    3  A    between atoms: C_14  and  C_16
REMARK                            x       y       z     vdW  Elec       q    Type
REMARK                         _______ _______ _______ _____ _____    ______ ____
ROOT
ATOM      1  C   UNL     1       0.654   9.388  19.975  0.00  0.00    +0.000 A 
ATOM      2  C   UNL     1       1.265   9.660  18.756  0.00  0.00    +0.000 A 
ATOM      3  C   UNL     1       2.139   8.737  18.177  0.00  0.00    +0.000 A 
ATOM      4  C   UNL     1       2.414   7.515  18.796  0.00  0.00    +0.000 A 
ATOM      5  C   UNL     1       1.796   7.232  20.034  0.00  0.00    +0.000 A 
ATOM      6  C   UNL     1       0.946   8.186  20.624  0.00  0.00    +0.000 A 
ATOM      7  C   UNL     1       1.981   5.908  20.738  0.00  0.00    +0.000 C 
ATOM      8  C   UNL     1       3.040   5.032  20.091  0.00  0.00    +0.000 C 
ATOM      9  C   UNL     1       2.916   5.155  18.580  0.00  0.00    +0.000 C 
ATOM     10  N   UNL     1       3.271   6.530  18.192  0.00  0.00    +0.000 N 
ATOM     11  C   UNL     1       4.339   6.909  17.352  0.00  0.00    +0.000 C 
ATOM     12  O   UNL     1       4.584   8.068  17.010  0.00  0.00    +0.000 OA
ENDROOT
BRANCH  11  13
ATOM     13  C   UNL     1       5.306   5.905  16.825  0.00  0.00    +0.000 A 
ATOM     14  C   UNL     1       5.182   5.523  15.480  0.00  0.00    +0.000 A 
ATOM     15  C   UNL     1       6.075   4.612  14.915  0.00  0.00    +0.000 A 
ATOM     16  C   UNL     1       7.089   4.060  15.695  0.00  0.00    +0.000 A 
ATOM     17  C   UNL     1       7.250   4.468  17.017  0.00  0.00    +0.000 A 
ATOM     18  C   UNL     1       6.392   5.424  17.564  0.00  0.00    +0.000 A 
ENDBRANCH  11  13
BRANCH   1  21
ATOM     19  O   UNL     1       1.169  11.817  21.573  0.00  0.00    +0.000 OA
ATOM     20  C   UNL     1       0.048  11.357  21.375  0.00  0.00    +0.000 C 
ATOM     21  N   UNL     1      -0.260  10.261  20.594  0.00  0.00    +0.000 N 
ATOM     22  H   UNL     1      -1.240  10.077  20.423  0.00  0.00    +0.000 HD
BRANCH  20  23
ATOM     23  C   UNL     1      -1.108  12.110  21.930  0.00  0.00    +0.000 A 
ATOM     24  C   UNL     1      -1.765  11.504  23.016  0.00  0.00    +0.000 A 
ATOM     25  C   UNL     1      -2.859  12.119  23.622  0.00  0.00    +0.000 A 
ATOM     26  C   UNL     1      -3.311  13.347  23.149  0.00  0.00    +0.000 A 
ATOM     27  C   UNL     1      -2.675  13.954  22.063  0.00  0.00    +0.000 A 
ATOM     28  C   UNL     1      -1.580  13.337  21.444  0.00  0.00    +0.000 A 
ATOM     29 BR   UNL     1      -0.865  14.228  19.925  0.00  0.00    +0.000 Br
ENDBRANCH  20  23
ENDBRANCH   1  21
TORSDOF 3
ENDMDL
MODEL 6
REMARK VINA RESULT:      -8.5      1.387      1.910
REMARK  Name = 
REMARK  3 active torsions:
REMARK  status: ('A' for Active; 'I' for Inactive)
REMARK    1  A    between atoms: C_2  and  C_22
REMARK    2  A    between atoms: N_3  and  C_4
REMARK    3  A    between atoms: C_14  and  C_16
REMARK                            x       y       z     vdW  Elec       q    Type
REMARK                         _______ _______ _______ _____ _____    ______ ____
ROOT
ATOM      1  C   UNL     1       2.231   8.075  18.761  0.00  0.00    +0.000 A 
ATOM      2  C   UNL     1       1.853   7.826  20.075  0.00  0.00    +0.000 A 
ATOM      3  C   UNL     1       1.001   8.703  20.748  0.00  0.00    +0.000 A 
ATOM      4  C   UNL     1       0.495   9.845  20.121  0.00  0.00    +0.000 A 
ATOM      5  C   UNL     1       0.875  10.104  18.786  0.00  0.00    +0.000 A 
ATOM      6  C   UNL     1       1.763   9.230  18.130  0.00  0.00    +0.000 A 
ATOM      7  C   UNL     1       0.321  11.275  18.008  0.00  0.00    +0.000 C 
ATOM      8  C   UNL     1      -0.493  12.229  18.865  0.00  0.00    +0.000 C 
ATOM      9  C   UNL     1      -1.330  11.412  19.839  0.00  0.00    +0.000 C 
ATOM     10  N   UNL     1      -0.424  10.734  20.781  0.00  0.00    +0.000 N 
ATOM     11  C   UNL     1      -0.387  10.916  22.179  0.00  0.00    +0.000 C 
ATOM     12  O   UNL     1       0.355  10.299  22.946  0.00  0.00    +0.000 OA
ENDROOT
BRANCH  11  13
ATOM     13  C   UNL     1      -1.248  11.927  22.853  0.00  0.00    +0.000 A 
ATOM     14  C   UNL     1      -0.769  13.244  22.934  0.00  0.00    +0.000 A 
ATOM     15  C   UNL     1      -1.540  14.246  23.523  0.00  0.00    +0.000 A 
ATOM     16  C   UNL     1      -2.790  13.937  24.055  0.00  0.00    +0.000 A 
ATOM     17  C   UNL     1      -3.295  12.644  23.938  0.00  0.00    +0.000 A 
ATOM     18  C   UNL     1      -2.547  11.656  23.295  0.00  0.00    +0.000 A 
ENDBRANCH  11  13
BRANCH   1  21
ATOM     19  O   UNL     1       3.955   5.866  19.691  0.00  0.00    +0.000 OA
ATOM     20  C   UNL     1       3.884   6.228  18.520  0.00  0.00    +0.000 C 
ATOM     21  N   UNL     1       3.059   7.213  18.017  0.00  0.00    +0.000 N 
ATOM     22  H   UNL     1       3.020   7.314  17.011  0.00  0.00    +0.000 HD
BRANCH  20  23
ATOM     23  C   UNL     1       4.675   5.463  17.518  0.00  0.00    +0.000 A 
ATOM     24  C   UNL     1       4.096   4.258  17.077  0.00  0.00    +0.000 A 
ATOM     25  C   UNL     1       4.743   3.460  16.136  0.00  0.00    +0.000 A 
ATOM     26  C   UNL     1       5.975   3.854  15.624  0.00  0.00    +0.000 A 
ATOM     27  C   UNL     1       6.565   5.042  16.062  0.00  0.00    +0.000 A 
ATOM     28  C   UNL     1       5.925   5.845  17.015  0.00  0.00    +0.000 A 
ATOM     29 BR   UNL     1       6.879   7.387  17.587  0.00  0.00    +0.000 Br
ENDBRANCH  20  23
ENDBRANCH   1  21
TORSDOF 3
ENDMDL
MODEL 7
REMARK VINA RESULT:      -8.4      1.490      2.236
REMARK  Name = 
REMARK  3 active torsions:
REMARK  status: ('A' for Active; 'I' for Inactive)
REMARK    1  A    between atoms: C_2  and  C_22
REMARK    2  A    between atoms: N_3  and  C_4
REMARK    3  A    between atoms: C_14  and  C_16
REMARK                            x       y       z     vdW  Elec       q    Type
REMARK                         _______ _______ _______ _____ _____    ______ ____
ROOT
ATOM      1  C   UNL     1       1.371   8.854  18.866  0.00  0.00    +0.000 A 
ATOM      2  C   UNL     1       0.776   9.922  18.204  0.00  0.00    +0.000 A 
ATOM      3  C   UNL     1      -0.035  10.825  18.894  0.00  0.00    +0.000 A 
ATOM      4  C   UNL     1      -0.262  10.691  20.266  0.00  0.00    +0.000 A 
ATOM      5  C   UNL     1       0.340   9.609  20.946  0.00  0.00    +0.000 A 
ATOM      6  C   UNL     1       1.126   8.685  20.232  0.00  0.00    +0.000 A 
ATOM      7  C   UNL     1       0.206   9.427  22.440  0.00  0.00    +0.000 C 
ATOM      8  C   UNL     1      -0.791  10.385  23.070  0.00  0.00    +0.000 C 
ATOM      9  C   UNL     1      -0.636  11.749  22.412  0.00  0.00    +0.000 C 
ATOM     10  N   UNL     1      -1.053  11.639  21.005  0.00  0.00    +0.000 N 
ATOM     11  C   UNL     1      -2.118  12.332  20.394  0.00  0.00    +0.000 C 
ATOM     12  O   UNL     1      -2.414  12.252  19.201  0.00  0.00    +0.000 OA
ENDROOT
BRANCH  11  13
ATOM     13  C   UNL     1      -3.019  13.219  21.183  0.00  0.00    +0.000 A 
ATOM     14  C   UNL     1      -4.127  12.631  21.813  0.00  0.00    +0.000 A 
ATOM     15  C   UNL     1      -4.992  13.399  22.593  0.00  0.00    +0.000 A 
ATOM     16  C   UNL     1      -4.769  14.766  22.735  0.00  0.00    +0.000 A 
ATOM     17  C   UNL     1      -3.646  15.352  22.152  0.00  0.00    +0.000 A 
ATOM     18  C   UNL     1      -2.750  14.571  21.421  0.00  0.00    +0.000 A 
ENDBRANCH  11  13
BRANCH   1  21
ATOM     19  O   UNL     1       2.477   6.319  19.897  0.00  0.00    +0.000 OA
ATOM     20  C   UNL     1       2.750   6.782  18.793  0.00  0.00    +0.000 C 
ATOM     21  N   UNL     1       2.224   7.929  18.235  0.00  0.00    +0.000 N 
ATOM     22  H   UNL     1       2.448   8.117  17.266  0.00  0.00    +0.000 HD
BRANCH  20  23
ATOM     23  C   UNL     1       3.643   5.979  17.916  0.00  0.00    +0.000 A 
ATOM     24  C   UNL     1       4.797   6.639  17.454  0.00  0.00    +0.000 A 
ATOM     25  C   UNL     1       5.711   5.985  16.629  0.00  0.00    +0.000 A 
ATOM     26  C   UNL     1       5.482   4.665  16.255  0.00  0.00    +0.000 A 
ATOM     27  C   UNL     1       4.335   4.002  16.698  0.00  0.00    +0.000 A 
ATOM     28  C   UNL     1       3.408   4.655  17.520  0.00  0.00    +0.000 A 
ATOM     29 BR   UNL     1       1.850   3.667  17.977  0.00  0.00    +0.000 Br
ENDBRANCH  20  23
ENDBRANCH   1  21
TORSDOF 3
ENDMDL
MODEL 8
REMARK VINA RESULT:      -8.3      1.412      1.689
REMARK  Name = 
REMARK  3 active torsions:
REMARK  status: ('A' for Active; 'I' for Inactive)
REMARK    1  A    between atoms: C_2  and  C_22
REMARK    2  A    between atoms: N_3  and  C_4
REMARK    3  A    between atoms: C_14  and  C_16
REMARK                            x       y       z     vdW  Elec       q    Type
REMARK                         _______ _______ _______ _____ _____    ______ ____
ROOT
ATOM      1  C   UNL     1       1.785   7.969  19.717  0.00  0.00    +0.000 A 
ATOM      2  C   UNL     1       1.218   7.834  20.979  0.00  0.00    +0.000 A 
ATOM      3  C   UNL     1       0.392   8.833  21.499  0.00  0.00    +0.000 A 
ATOM      4  C   UNL     1       0.103   9.986  20.765  0.00  0.00    +0.000 A 
ATOM      5  C   UNL     1       0.675  10.130  19.482  0.00  0.00    +0.000 A 
ATOM      6  C   UNL     1       1.534   9.133  18.985  0.00  0.00    +0.000 A 
ATOM      7  C   UNL     1       0.360  11.310  18.592  0.00  0.00    +0.000 C 
ATOM      8  C   UNL     1      -0.443  12.391  19.296  0.00  0.00    +0.000 C 
ATOM      9  C   UNL     1      -1.483  11.722  20.184  0.00  0.00    +0.000 C 
ATOM     10  N   UNL     1      -0.786  11.003  21.262  0.00  0.00    +0.000 N 
ATOM     11  C   UNL     1      -0.906  11.255  22.645  0.00  0.00    +0.000 C 
ATOM     12  O   UNL     1      -0.341  10.605  23.527  0.00  0.00    +0.000 OA
ENDROOT
BRANCH  11  13
ATOM     13  C   UNL     1      -1.726  12.388  23.159  0.00  0.00    +0.000 A 
ATOM     14  C   UNL     1      -3.042  12.110  23.563  0.00  0.00    +0.000 A 
ATOM     15  C   UNL     1      -3.853  13.119  24.084  0.00  0.00    +0.000 A 
ATOM     16  C   UNL     1      -3.362  14.419  24.189  0.00  0.00    +0.000 A 
ATOM     17  C   UNL     1      -2.043  14.695  23.835  0.00  0.00    +0.000 A 
ATOM     18  C   UNL     1      -1.215  13.673  23.369  0.00  0.00    +0.000 A 
ENDBRANCH  11  13
BRANCH   1  21
ATOM     19  O   UNL     1       3.286   8.060  17.177  0.00  0.00    +0.000 OA
ATOM     20  C   UNL     1       3.235   7.071  17.903  0.00  0.00    +0.000 C 
ATOM     21  N   UNL     1       2.598   6.985  19.124  0.00  0.00    +0.000 N 
ATOM     22  H   UNL     1       2.749   6.144  19.666  0.00  0.00    +0.000 HD
BRANCH  20  23
ATOM     23  C   UNL     1       4.026   5.880  17.493  0.00  0.00    +0.000 A 
ATOM     24  C   UNL     1       3.307   4.674  17.398  0.00  0.00    +0.000 A 
ATOM     25  C   UNL     1       3.942   3.493  17.018  0.00  0.00    +0.000 A 
ATOM     26  C   UNL     1       5.303   3.502  16.730  0.00  0.00    +0.000 A 
ATOM     27  C   UNL     1       6.031   4.690  16.831  0.00  0.00    +0.000 A 
ATOM     28  C   UNL     1       5.401   5.880  17.221  0.00  0.00    +0.000 A 
ATOM     29 BR   UNL     1       6.525   7.402  17.404  0.00  0.00    +0.000 Br
ENDBRANCH  20  23
ENDBRANCH   1  21
TORSDOF 3
ENDMDL
MODEL 9
REMARK VINA RESULT:      -8.3      1.847      2.693
REMARK  Name = 
REMARK  3 active torsions:
REMARK  status: ('A' for Active; 'I' for Inactive)
REMARK    1  A    between atoms: C_2  and  C_22
REMARK    2  A    between atoms: N_3  and  C_4
REMARK    3  A    between atoms: C_14  and  C_16
REMARK                            x       y       z     vdW  Elec       q    Type
REMARK                         _______ _______ _______ _____ _____    ______ ____
ROOT
ATOM      1  C   UNL     1       1.525   8.590  19.517  0.00  0.00    +0.000 A 
ATOM      2  C   UNL     1       1.031   9.600  18.700  0.00  0.00    +0.000 A 
ATOM      3  C   UNL     1       0.158  10.563  19.209  0.00  0.00    +0.000 A 
ATOM      4  C   UNL     1      -0.234  10.548  20.550  0.00  0.00    +0.000 A 
ATOM      5  C   UNL     1       0.265   9.525  21.386  0.00  0.00    +0.000 A 
ATOM      6  C   UNL     1       1.116   8.539  20.852  0.00  0.00    +0.000 A 
ATOM      7  C   UNL     1      -0.049   9.472  22.863  0.00  0.00    +0.000 C 
ATOM      8  C   UNL     1      -1.099  10.486  23.286  0.00  0.00    +0.000 C 
ATOM      9  C   UNL     1      -0.846  11.787  22.539  0.00  0.00    +0.000 C 
ATOM     10  N   UNL     1      -1.092  11.560  21.106  0.00  0.00    +0.000 N 
ATOM     11  C   UNL     1      -2.066  12.205  20.315  0.00  0.00    +0.000 C 
ATOM     12  O   UNL     1      -2.218  12.025  19.106  0.00  0.00    +0.000 OA
ENDROOT
BRANCH  11  13
ATOM     13  C   UNL     1      -3.041  13.161  20.912  0.00  0.00    +0.000 A 
ATOM     14  C   UNL     1      -2.722  14.528  20.874  0.00  0.00    +0.000 A 
ATOM     15  C   UNL     1      -3.605  15.478  21.385  0.00  0.00    +0.000 A 
ATOM     16  C   UNL     1      -4.808  15.070  21.957  0.00  0.00    +0.000 A 
ATOM     17  C   UNL     1      -5.156  13.721  21.958  0.00  0.00    +0.000 A 
ATOM     18  C   UNL     1      -4.297  12.777  21.392  0.00  0.00    +0.000 A 
ENDBRANCH  11  13
BRANCH   1  21
ATOM     19  O   UNL     1       2.914   8.358  16.922  0.00  0.00    +0.000 OA
ATOM     20  C   UNL     1       3.011   7.530  17.822  0.00  0.00    +0.000 C 
ATOM     21  N   UNL     1       2.433   7.610  19.073  0.00  0.00    +0.000 N 
ATOM     22  H   UNL     1       2.706   6.912  19.754  0.00  0.00    +0.000 HD
BRANCH  20  23
ATOM     23  C   UNL     1       3.929   6.381  17.599  0.00  0.00    +0.000 A 
ATOM     24  C   UNL     1       5.272   6.715  17.340  0.00  0.00    +0.000 A 
ATOM     25  C   UNL     1       6.225   5.722  17.121  0.00  0.00    +0.000 A 
ATOM     26  C   UNL     1       5.848   4.383  17.156  0.00  0.00    +0.000 A 
ATOM     27  C   UNL     1       4.517   4.038  17.401  0.00  0.00    +0.000 A 
ATOM     28  C   UNL     1       3.552   5.032  17.614  0.00  0.00    +0.000 A 
ATOM     29 BR   UNL     1       1.764   4.427  17.847  0.00  0.00    +0.000 Br
ENDBRANCH  20  23
ENDBRANCH   1  21
TORSDOF 3
ENDMDL
