MODEL 1
REMARK VINA RESULT:      -8.1      0.000      0.000
REMARK  Name = 
REMARK  5 active torsions:
REMARK  status: ('A' for Active; 'I' for Inactive)
REMARK    1  A    between atoms: C_1  and  O_2
REMARK    2  A    between atoms: O_2  and  C_3
REMARK    3  A    between atoms: C_5  and  O_6
REMARK    4  A    between atoms: O_6  and  C_7
REMARK    5  A    between atoms: C_9  and  C_10
REMARK                            x       y       z     vdW  Elec       q    Type
REMARK                         _______ _______ _______ _____ _____    ______ ____
ROOT
ATOM      1  C   UNL     1       2.395   6.848  19.152  0.00  0.00    +0.000 A 
ATOM      2  N   UNL     1       3.292   7.103  18.150  0.00  0.00    +0.000 NA
ATOM      3  C   UNL     1       3.917   6.131  17.480  0.00  0.00    +0.000 A 
ATOM      4  C   UNL     1       4.845   6.473  16.503  0.00  0.00    +0.000 A 
ATOM      5  C   UNL     1       5.531   5.506  15.762  0.00  0.00    +0.000 A 
ATOM      6  C   UNL     1       5.291   4.156  15.996  0.00  0.00    +0.000 A 
ATOM      7  C   UNL     1       4.378   3.782  16.980  0.00  0.00    +0.000 A 
ATOM      8  C   UNL     1       3.696   4.768  17.729  0.00  0.00    +0.000 A 
ATOM      9  C   UNL     1       2.786   4.459  18.772  0.00  0.00    +0.000 A 
ATOM     10  C   UNL     1       2.318   3.236  19.340  0.00  0.00    +0.000 A 
ATOM     11  C   UNL     1       1.484   3.551  20.385  0.00  0.00    +0.000 A 
ATOM     12  N   UNL     1       1.424   4.916  20.476  0.00  0.00    +0.000 N 
ATOM     13  C   UNL     1       2.170   5.505  19.477  0.00  0.00    +0.000 A 
ATOM     14  H   UNL     1       0.922   5.423  21.191  0.00  0.00    +0.000 HD
ENDROOT
BRANCH   1  19
ATOM     15  C   UNL     1       0.786  10.245  19.382  0.00  0.00    +0.000 A 
ATOM     16  C   UNL     1       0.523  10.371  20.736  0.00  0.00    +0.000 A 
ATOM     17  C   UNL     1       0.886   9.361  21.633  0.00  0.00    +0.000 A 
ATOM     18  C   UNL     1       1.512   8.194  21.160  0.00  0.00    +0.000 A 
ATOM     19  C   UNL     1       1.822   8.054  19.789  0.00  0.00    +0.000 A 
ATOM     20  C   UNL     1       1.472   9.122  18.933  0.00  0.00    +0.000 A 
BRANCH  15  22
ATOM     21  C   UNL     1      -1.020  11.583  18.700  0.00  0.00    +0.000 C 
ATOM     22  O   UNL     1       0.367  11.265  18.572  0.00  0.00    +0.000 OA
ENDBRANCH  15  22
BRANCH  17  23
ATOM     23  O   UNL     1       0.546   9.662  22.923  0.00  0.00    +0.000 OA
ATOM     24  C   UNL     1      -0.724  10.227  23.197  0.00  0.00    +0.000 C 
ENDBRANCH  17  23
ENDBRANCH   1  19
TORSDOF 3
ENDMDL
MODEL 2
REMARK VINA RESULT:      -8.1      1.063      1.231
REMARK  Name = 
REMARK  5 active torsions:
REMARK  status: ('A' for Active; 'I' for Inactive)
REMARK    1  A    between atoms: C_1  and  O_2
REMARK    2  A    between atoms: O_2  and  C_3
REMARK    3  A    between atoms: C_5  and  O_6
REMARK    4  A    between atoms: O_6  and  C_7
REMARK    5  A    between atoms: C_9  and  C_10
REMARK                            x       y       z     vdW  Elec       q    Type
REMARK                         _______ _______ _______ _____ _____    ______ ____
ROOT
ATOM      1  C   UNL     1       2.908   6.416  18.356  0.00  0.00    +0.000 A 
ATOM      2  N   UNL     1       4.088   6.772  17.760  0.00  0.00    +0.000 NA
ATOM      3  C   UNL     1       4.831   5.908  17.064  0.00  0.00    +0.000 A 
ATOM      4  C   UNL     1       6.037   6.337  16.523  0.00  0.00    +0.000 A 
ATOM      5  C   UNL     1       6.861   5.485  15.780  0.00  0.00    +0.000 A 
ATOM      6  C   UNL     1       6.478   4.166  15.566  0.00  0.00    +0.000 A 
ATOM      7  C   UNL     1       5.282   3.702  16.109  0.00  0.00    +0.000 A 
ATOM      8  C   UNL     1       4.460   4.569  16.866  0.00  0.00    +0.000 A 
ATOM      9  C   UNL     1       3.252   4.153  17.481  0.00  0.00    +0.000 A 
ATOM     10  C   UNL     1       2.556   2.909  17.542  0.00  0.00    +0.000 A 
ATOM     11  C   UNL     1       1.457   3.083  18.348  0.00  0.00    +0.000 A 
ATOM     12  N   UNL     1       1.454   4.383  18.779  0.00  0.00    +0.000 N 
ATOM     13  C   UNL     1       2.511   5.079  18.232  0.00  0.00    +0.000 A 
ATOM     14  H   UNL     1       0.785   4.771  19.428  0.00  0.00    +0.000 HD
ENDROOT
BRANCH   1  19
ATOM     15  C   UNL     1       1.058   9.651  18.894  0.00  0.00    +0.000 A 
ATOM     16  C   UNL     1       0.760   9.616  20.247  0.00  0.00    +0.000 A 
ATOM     17  C   UNL     1       1.177   8.545  21.044  0.00  0.00    +0.000 A 
ATOM     18  C   UNL     1       1.893   7.480  20.469  0.00  0.00    +0.000 A 
ATOM     19  C   UNL     1       2.239   7.506  19.099  0.00  0.00    +0.000 A 
ATOM     20  C   UNL     1       1.830   8.632  18.350  0.00  0.00    +0.000 A 
BRANCH  15  22
ATOM     21  C   UNL     1      -0.003  11.745  18.988  0.00  0.00    +0.000 C 
ATOM     22  O   UNL     1       0.582  10.720  18.184  0.00  0.00    +0.000 OA
ENDBRANCH  15  22
BRANCH  17  23
ATOM     23  O   UNL     1       0.792   8.684  22.348  0.00  0.00    +0.000 OA
ATOM     24  C   UNL     1      -0.000   9.795  22.728  0.00  0.00    +0.000 C 
ENDBRANCH  17  23
ENDBRANCH   1  19
TORSDOF 3
ENDMDL
MODEL 3
REMARK VINA RESULT:      -8.0      1.080      2.489
REMARK  Name = 
REMARK  5 active torsions:
REMARK  status: ('A' for Active; 'I' for Inactive)
REMARK    1  A    between atoms: C_1  and  O_2
REMARK    2  A    between atoms: O_2  and  C_3
REMARK    3  A    between atoms: C_5  and  O_6
REMARK    4  A    between atoms: O_6  and  C_7
REMARK    5  A    between atoms: C_9  and  C_10
REMARK                            x       y       z     vdW  Elec       q    Type
REMARK                         _______ _______ _______ _____ _____    ______ ____
ROOT
ATOM      1  C   UNL     1       2.808   6.610  18.183  0.00  0.00    +0.000 A 
ATOM      2  N   UNL     1       4.022   6.955  17.652  0.00  0.00    +0.000 NA
ATOM      3  C   UNL     1       4.830   6.067  17.068  0.00  0.00    +0.000 A 
ATOM      4  C   UNL     1       6.065   6.489  16.589  0.00  0.00    +0.000 A 
ATOM      5  C   UNL     1       6.957   5.613  15.962  0.00  0.00    +0.000 A 
ATOM      6  C   UNL     1       6.614   4.274  15.805  0.00  0.00    +0.000 A 
ATOM      7  C   UNL     1       5.390   3.817  16.288  0.00  0.00    +0.000 A 
ATOM      8  C   UNL     1       4.500   4.711  16.928  0.00  0.00    +0.000 A 
ATOM      9  C   UNL     1       3.257   4.305  17.479  0.00  0.00    +0.000 A 
ATOM     10  C   UNL     1       2.581   3.052  17.568  0.00  0.00    +0.000 A 
ATOM     11  C   UNL     1       1.423   3.250  18.280  0.00  0.00    +0.000 A 
ATOM     12  N   UNL     1       1.365   4.573  18.627  0.00  0.00    +0.000 N 
ATOM     13  C   UNL     1       2.447   5.259  18.114  0.00  0.00    +0.000 A 
ATOM     14  H   UNL     1       0.643   4.986  19.200  0.00  0.00    +0.000 HD
ENDROOT
BRANCH   1  19
ATOM     15  C   UNL     1       1.330   8.715  20.932  0.00  0.00    +0.000 A 
ATOM     16  C   UNL     1       0.870   9.832  20.253  0.00  0.00    +0.000 A 
ATOM     17  C   UNL     1       1.000   9.929  18.864  0.00  0.00    +0.000 A 
ATOM     18  C   UNL     1       1.618   8.892  18.143  0.00  0.00    +0.000 A 
ATOM     19  C   UNL     1       2.067   7.727  18.806  0.00  0.00    +0.000 A 
ATOM     20  C   UNL     1       1.872   7.663  20.204  0.00  0.00    +0.000 A 
BRANCH  15  22
ATOM     21  C   UNL     1       0.008   9.366  22.762  0.00  0.00    +0.000 C 
ATOM     22  O   UNL     1       1.193   8.719  22.293  0.00  0.00    +0.000 OA
ENDBRANCH  15  22
BRANCH  17  23
ATOM     23  O   UNL     1       0.491  11.098  18.372  0.00  0.00    +0.000 OA
ATOM     24  C   UNL     1      -0.819  11.497  18.736  0.00  0.00    +0.000 C 
ENDBRANCH  17  23
ENDBRANCH   1  19
TORSDOF 3
ENDMDL
MODEL 4
REMARK VINA RESULT:      -7.8      0.534      2.263
REMARK  Name = 
REMARK  5 active torsions:
REMARK  status: ('A' for Active; 'I' for Inactive)
REMARK    1  A    between atoms: C_1  and  O_2
REMARK    2  A    between atoms: O_2  and  C_3
REMARK    3  A    between atoms: C_5  and  O_6
REMARK    4  A    between atoms: O_6  and  C_7
REMARK    5  A    between atoms: C_9  and  C_10
REMARK                            x       y       z     vdW  Elec       q    Type
REMARK                         _______ _______ _______ _____ _____    ______ ____
ROOT
ATOM      1  C   UNL     1       2.495   7.123  19.094  0.00  0.00    +0.000 A 
ATOM      2  N   UNL     1       3.263   7.307  17.976  0.00  0.00    +0.000 NA
ATOM      3  C   UNL     1       4.017   6.336  17.455  0.00  0.00    +0.000 A 
ATOM      4  C   UNL     1       4.801   6.614  16.341  0.00  0.00    +0.000 A 
ATOM      5  C   UNL     1       5.611   5.643  15.742  0.00  0.00    +0.000 A 
ATOM      6  C   UNL     1       5.645   4.355  16.265  0.00  0.00    +0.000 A 
ATOM      7  C   UNL     1       4.883   4.049  17.390  0.00  0.00    +0.000 A 
ATOM      8  C   UNL     1       4.074   5.041  17.992  0.00  0.00    +0.000 A 
ATOM      9  C   UNL     1       3.306   4.811  19.162  0.00  0.00    +0.000 A 
ATOM     10  C   UNL     1       3.114   3.677  20.007  0.00  0.00    +0.000 A 
ATOM     11  C   UNL     1       2.302   4.061  21.046  0.00  0.00    +0.000 A 
ATOM     12  N   UNL     1       1.990   5.383  20.868  0.00  0.00    +0.000 N 
ATOM     13  C   UNL     1       2.549   5.863  19.702  0.00  0.00    +0.000 A 
ATOM     14  H   UNL     1       1.447   5.937  21.514  0.00  0.00    +0.000 HD
ENDROOT
BRANCH   1  19
ATOM     15  C   UNL     1       0.907   9.570  21.474  0.00  0.00    +0.000 A 
ATOM     16  C   UNL     1       0.516  10.605  20.639  0.00  0.00    +0.000 A 
ATOM     17  C   UNL     1       0.732  10.531  19.259  0.00  0.00    +0.000 A 
ATOM     18  C   UNL     1       1.366   9.404  18.707  0.00  0.00    +0.000 A 
ATOM     19  C   UNL     1       1.745   8.320  19.531  0.00  0.00    +0.000 A 
ATOM     20  C   UNL     1       1.465   8.429  20.912  0.00  0.00    +0.000 A 
BRANCH  15  22
ATOM     21  C   UNL     1      -0.649  10.121  23.146  0.00  0.00    +0.000 C 
ATOM     22  O   UNL     1       0.687   9.741  22.814  0.00  0.00    +0.000 OA
ENDBRANCH  15  22
BRANCH  17  23
ATOM     23  O   UNL     1       0.282  11.641  18.600  0.00  0.00    +0.000 OA
ATOM     24  C   UNL     1      -1.068  12.042  18.748  0.00  0.00    +0.000 C 
ENDBRANCH  17  23
ENDBRANCH   1  19
TORSDOF 3
ENDMDL
MODEL 5
REMARK VINA RESULT:      -7.8      3.179      6.758
REMARK  Name = 
REMARK  5 active torsions:
REMARK  status: ('A' for Active; 'I' for Inactive)
REMARK    1  A    between atoms: C_1  and  O_2
REMARK    2  A    between atoms: O_2  and  C_3
REMARK    3  A    between atoms: C_5  and  O_6
REMARK    4  A    between atoms: O_6  and  C_7
REMARK    5  A    between atoms: C_9  and  C_10
REMARK                            x       y       z     vdW  Elec       q    Type
REMARK                         _______ _______ _______ _____ _____    ______ ____
ROOT
ATOM      1  C   UNL     1       3.620   5.948  18.594  0.00  0.00    +0.000 A 
ATOM      2  N   UNL     1       3.098   7.213  18.599  0.00  0.00    +0.000 NA
ATOM      3  C   UNL     1       2.156   7.598  19.463  0.00  0.00    +0.000 A 
ATOM      4  C   UNL     1       1.648   8.890  19.378  0.00  0.00    +0.000 A 
ATOM      5  C   UNL     1       0.664   9.359  20.254  0.00  0.00    +0.000 A 
ATOM      6  C   UNL     1       0.166   8.522  21.246  0.00  0.00    +0.000 A 
ATOM      7  C   UNL     1       0.644   7.217  21.347  0.00  0.00    +0.000 A 
ATOM      8  C   UNL     1       1.633   6.750  20.451  0.00  0.00    +0.000 A 
ATOM      9  C   UNL     1       2.133   5.424  20.470  0.00  0.00    +0.000 A 
ATOM     10  C   UNL     1       1.855   4.277  21.274  0.00  0.00    +0.000 A 
ATOM     11  C   UNL     1       2.603   3.233  20.788  0.00  0.00    +0.000 A 
ATOM     12  N   UNL     1       3.327   3.696  19.722  0.00  0.00    +0.000 N 
ATOM     13  C   UNL     1       3.101   5.043  19.528  0.00  0.00    +0.000 A 
ATOM     14  H   UNL     1       3.926   3.125  19.142  0.00  0.00    +0.000 HD
ENDROOT
BRANCH   1  19
ATOM     15  C   UNL     1       6.834   6.390  16.682  0.00  0.00    +0.000 A 
ATOM     16  C   UNL     1       6.812   5.329  15.791  0.00  0.00    +0.000 A 
ATOM     17  C   UNL     1       5.731   4.441  15.761  0.00  0.00    +0.000 A 
ATOM     18  C   UNL     1       4.658   4.613  16.653  0.00  0.00    +0.000 A 
ATOM     19  C   UNL     1       4.639   5.704  17.549  0.00  0.00    +0.000 A 
ATOM     20  C   UNL     1       5.735   6.594  17.509  0.00  0.00    +0.000 A 
BRANCH  15  22
ATOM     21  C   UNL     1       7.920   8.248  17.624  0.00  0.00    +0.000 C 
ATOM     22  O   UNL     1       7.944   7.188  16.666  0.00  0.00    +0.000 OA
ENDBRANCH  15  22
BRANCH  17  23
ATOM     23  O   UNL     1       5.886   3.461  14.820  0.00  0.00    +0.000 OA
ATOM     24  C   UNL     1       6.217   3.817  13.489  0.00  0.00    +0.000 C 
ENDBRANCH  17  23
ENDBRANCH   1  19
TORSDOF 3
ENDMDL
MODEL 6
REMARK VINA RESULT:      -7.8      1.097      3.804
REMARK  Name = 
REMARK  5 active torsions:
REMARK  status: ('A' for Active; 'I' for Inactive)
REMARK    1  A    between atoms: C_1  and  O_2
REMARK    2  A    between atoms: O_2  and  C_3
REMARK    3  A    between atoms: C_5  and  O_6
REMARK    4  A    between atoms: O_6  and  C_7
REMARK    5  A    between atoms: C_9  and  C_10
REMARK                            x       y       z     vdW  Elec       q    Type
REMARK                         _______ _______ _______ _____ _____    ______ ____
ROOT
ATOM      1  C   UNL     1       2.189   7.142  19.747  0.00  0.00    +0.000 A 
ATOM      2  N   UNL     1       1.876   6.133  20.618  0.00  0.00    +0.000 NA
ATOM      3  C   UNL     1       2.418   4.916  20.533  0.00  0.00    +0.000 A 
ATOM      4  C   UNL     1       2.018   3.933  21.431  0.00  0.00    +0.000 A 
ATOM      5  C   UNL     1       2.548   2.640  21.401  0.00  0.00    +0.000 A 
ATOM      6  C   UNL     1       3.507   2.309  20.450  0.00  0.00    +0.000 A 
ATOM      7  C   UNL     1       3.918   3.267  19.526  0.00  0.00    +0.000 A 
ATOM      8  C   UNL     1       3.368   4.569  19.560  0.00  0.00    +0.000 A 
ATOM      9  C   UNL     1       3.710   5.580  18.626  0.00  0.00    +0.000 A 
ATOM     10  C   UNL     1       4.587   5.627  17.502  0.00  0.00    +0.000 A 
ATOM     11  C   UNL     1       4.460   6.865  16.922  0.00  0.00    +0.000 A 
ATOM     12  N   UNL     1       3.543   7.577  17.648  0.00  0.00    +0.000 N 
ATOM     13  C   UNL     1       3.097   6.840  18.725  0.00  0.00    +0.000 A 
ATOM     14  H   UNL     1       3.219   8.504  17.414  0.00  0.00    +0.000 HD
ENDROOT
BRANCH   1  19
ATOM     15  C   UNL     1       0.536   9.898  21.709  0.00  0.00    +0.000 A 
ATOM     16  C   UNL     1       0.276  10.854  20.741  0.00  0.00    +0.000 A 
ATOM     17  C   UNL     1       0.607  10.625  19.401  0.00  0.00    +0.000 A 
ATOM     18  C   UNL     1       1.224   9.417  19.028  0.00  0.00    +0.000 A 
ATOM     19  C   UNL     1       1.470   8.412  19.989  0.00  0.00    +0.000 A 
ATOM     20  C   UNL     1       1.078   8.678  21.320  0.00  0.00    +0.000 A 
BRANCH  15  22
ATOM     21  C   UNL     1      -1.099  10.769  23.154  0.00  0.00    +0.000 C 
ATOM     22  O   UNL     1       0.211  10.219  22.999  0.00  0.00    +0.000 OA
ENDBRANCH  15  22
BRANCH  17  23
ATOM     23  O   UNL     1       0.277  11.678  18.594  0.00  0.00    +0.000 OA
ATOM     24  C   UNL     1      -1.074  12.094  18.506  0.00  0.00    +0.000 C 
ENDBRANCH  17  23
ENDBRANCH   1  19
TORSDOF 3
ENDMDL
MODEL 7
REMARK VINA RESULT:      -7.7      0.820      2.908
REMARK  Name = 
REMARK  5 active torsions:
REMARK  status: ('A' for Active; 'I' for Inactive)
REMARK    1  A    between atoms: C_1  and  O_2
REMARK    2  A    between atoms: O_2  and  C_3
REMARK    3  A    between atoms: C_5  and  O_6
REMARK    4  A    between atoms: O_6  and  C_7
REMARK    5  A    between atoms: C_9  and  C_10
REMARK                            x       y       z     vdW  Elec       q    Type
REMARK                         _______ _______ _______ _____ _____    ______ ____
ROOT
ATOM      1  C   UNL     1       2.417   6.648  19.161  0.00  0.00    +0.000 A 
ATOM      2  N   UNL     1       1.840   5.501  19.636  0.00  0.00    +0.000 NA
ATOM      3  C   UNL     1       2.177   4.289  19.189  0.00  0.00    +0.000 A 
ATOM      4  C   UNL     1       1.515   3.175  19.693  0.00  0.00    +0.000 A 
ATOM      5  C   UNL     1       1.821   1.876  19.272  0.00  0.00    +0.000 A 
ATOM      6  C   UNL     1       2.815   1.675  18.320  0.00  0.00    +0.000 A 
ATOM      7  C   UNL     1       3.485   2.773  17.784  0.00  0.00    +0.000 A 
ATOM      8  C   UNL     1       3.161   4.081  18.211  0.00  0.00    +0.000 A 
ATOM      9  C   UNL     1       3.774   5.245  17.679  0.00  0.00    +0.000 A 
ATOM     10  C   UNL     1       4.771   5.464  16.682  0.00  0.00    +0.000 A 
ATOM     11  C   UNL     1       4.922   6.821  16.532  0.00  0.00    +0.000 A 
ATOM     12  N   UNL     1       4.059   7.438  17.399  0.00  0.00    +0.000 N 
ATOM     13  C   UNL     1       3.374   6.505  18.149  0.00  0.00    +0.000 A 
ATOM     14  H   UNL     1       3.925   8.437  17.462  0.00  0.00    +0.000 HD
ENDROOT
BRANCH   1  19
ATOM     15  C   UNL     1       0.943  10.110  19.296  0.00  0.00    +0.000 A 
ATOM     16  C   UNL     1       0.700  10.291  20.648  0.00  0.00    +0.000 A 
ATOM     17  C   UNL     1       1.035   9.297  21.574  0.00  0.00    +0.000 A 
ATOM     18  C   UNL     1       1.610   8.092  21.133  0.00  0.00    +0.000 A 
ATOM     19  C   UNL     1       1.899   7.895  19.764  0.00  0.00    +0.000 A 
ATOM     20  C   UNL     1       1.580   8.947  18.878  0.00  0.00    +0.000 A 
BRANCH  15  22
ATOM     21  C   UNL     1      -0.669  11.756  18.834  0.00  0.00    +0.000 C 
ATOM     22  O   UNL     1       0.553  11.119  18.458  0.00  0.00    +0.000 OA
ENDBRANCH  15  22
BRANCH  17  23
ATOM     23  O   UNL     1       0.722   9.652  22.857  0.00  0.00    +0.000 OA
ATOM     24  C   UNL     1      -0.609  10.019  23.174  0.00  0.00    +0.000 C 
ENDBRANCH  17  23
ENDBRANCH   1  19
TORSDOF 3
ENDMDL
MODEL 8
REMARK VINA RESULT:      -7.7      1.001      3.719
REMARK  Name = 
REMARK  5 active torsions:
REMARK  status: ('A' for Active; 'I' for Inactive)
REMARK    1  A    between atoms: C_1  and  O_2
REMARK    2  A    between atoms: O_2  and  C_3
REMARK    3  A    between atoms: C_5  and  O_6
REMARK    4  A    between atoms: O_6  and  C_7
REMARK    5  A    between atoms: C_9  and  C_10
REMARK                            x       y       z     vdW  Elec       q    Type
REMARK                         _______ _______ _______ _____ _____    ______ ____
ROOT
ATOM      1  C   UNL     1       2.382   6.687  18.979  0.00  0.00    +0.000 A 
ATOM      2  N   UNL     1       1.812   5.560  19.508  0.00  0.00    +0.000 NA
ATOM      3  C   UNL     1       2.204   4.329  19.169  0.00  0.00    +0.000 A 
ATOM      4  C   UNL     1       1.547   3.235  19.720  0.00  0.00    +0.000 A 
ATOM      5  C   UNL     1       1.909   1.920  19.412  0.00  0.00    +0.000 A 
ATOM      6  C   UNL     1       2.956   1.681  18.528  0.00  0.00    +0.000 A 
ATOM      7  C   UNL     1       3.623   2.756  17.946  0.00  0.00    +0.000 A 
ATOM      8  C   UNL     1       3.243   4.082  18.259  0.00  0.00    +0.000 A 
ATOM      9  C   UNL     1       3.850   5.222  17.673  0.00  0.00    +0.000 A 
ATOM     10  C   UNL     1       4.891   5.399  16.714  0.00  0.00    +0.000 A 
ATOM     11  C   UNL     1       5.014   6.746  16.472  0.00  0.00    +0.000 A 
ATOM     12  N   UNL     1       4.091   7.397  17.247  0.00  0.00    +0.000 N 
ATOM     13  C   UNL     1       3.393   6.501  18.029  0.00  0.00    +0.000 A 
ATOM     14  H   UNL     1       3.927   8.393  17.229  0.00  0.00    +0.000 HD
ENDROOT
BRANCH   1  19
ATOM     15  C   UNL     1       1.161   9.250  21.453  0.00  0.00    +0.000 A 
ATOM     16  C   UNL     1       0.894  10.349  20.653  0.00  0.00    +0.000 A 
ATOM     17  C   UNL     1       1.076  10.287  19.267  0.00  0.00    +0.000 A 
ATOM     18  C   UNL     1       1.551   9.104  18.674  0.00  0.00    +0.000 A 
ATOM     19  C   UNL     1       1.800   7.958  19.462  0.00  0.00    +0.000 A 
ATOM     20  C   UNL     1       1.559   8.062  20.850  0.00  0.00    +0.000 A 
BRANCH  15  22
ATOM     21  C   UNL     1      -0.345   9.752  23.184  0.00  0.00    +0.000 C 
ATOM     22  O   UNL     1       0.987   9.409  22.800  0.00  0.00    +0.000 OA
ENDBRANCH  15  22
BRANCH  17  23
ATOM     23  O   UNL     1       0.763  11.464  18.646  0.00  0.00    +0.000 OA
ATOM     24  C   UNL     1       1.682  12.542  18.689  0.00  0.00    +0.000 C 
ENDBRANCH  17  23
ENDBRANCH   1  19
TORSDOF 3
ENDMDL
MODEL 9
REMARK VINA RESULT:      -7.5      1.075      3.092
REMARK  Name = 
REMARK  5 active torsions:
REMARK  status: ('A' for Active; 'I' for Inactive)
REMARK    1  A    between atoms: C_1  and  O_2
REMARK    2  A    between atoms: O_2  and  C_3
REMARK    3  A    between atoms: C_5  and  O_6
REMARK    4  A    between atoms: O_6  and  C_7
REMARK    5  A    between atoms: C_9  and  C_10
REMARK                            x       y       z     vdW  Elec       q    Type
REMARK                         _______ _______ _______ _____ _____    ______ ____
ROOT
ATOM      1  C   UNL     1       1.990   7.115  19.827  0.00  0.00    +0.000 A 
ATOM      2  N   UNL     1       1.526   6.026  20.513  0.00  0.00    +0.000 NA
ATOM      3  C   UNL     1       1.907   4.779  20.224  0.00  0.00    +0.000 A 
ATOM      4  C   UNL     1       1.359   3.721  20.941  0.00  0.00    +0.000 A 
ATOM      5  C   UNL     1       1.717   2.392  20.693  0.00  0.00    +0.000 A 
ATOM      6  C   UNL     1       2.647   2.101  19.701  0.00  0.00    +0.000 A 
ATOM      7  C   UNL     1       3.202   3.137  18.954  0.00  0.00    +0.000 A 
ATOM      8  C   UNL     1       2.827   4.477  19.208  0.00  0.00    +0.000 A 
ATOM      9  C   UNL     1       3.320   5.576  18.460  0.00  0.00    +0.000 A 
ATOM     10  C   UNL     1       4.223   5.694  17.361  0.00  0.00    +0.000 A 
ATOM     11  C   UNL     1       4.274   7.018  17.000  0.00  0.00    +0.000 A 
ATOM     12  N   UNL     1       3.440   7.713  17.835  0.00  0.00    +0.000 N 
ATOM     13  C   UNL     1       2.875   6.871  18.770  0.00  0.00    +0.000 A 
ATOM     14  H   UNL     1       3.246   8.701  17.760  0.00  0.00    +0.000 HD
ENDROOT
BRANCH   1  19
ATOM     15  C   UNL     1       0.590  10.600  19.554  0.00  0.00    +0.000 A 
ATOM     16  C   UNL     1       0.206  10.882  20.856  0.00  0.00    +0.000 A 
ATOM     17  C   UNL     1       0.415   9.953  21.880  0.00  0.00    +0.000 A 
ATOM     18  C   UNL     1       1.007   8.711  21.591  0.00  0.00    +0.000 A 
ATOM     19  C   UNL     1       1.438   8.411  20.280  0.00  0.00    +0.000 A 
ATOM     20  C   UNL     1       1.242   9.401  19.292  0.00  0.00    +0.000 A 
BRANCH  15  22
ATOM     21  C   UNL     1      -0.583  12.571  19.046  0.00  0.00    +0.000 C 
ATOM     22  O   UNL     1       0.318  11.552  18.610  0.00  0.00    +0.000 OA
ENDBRANCH  15  22
BRANCH  17  23
ATOM     23  O   UNL     1      -0.028  10.405  23.092  0.00  0.00    +0.000 OA
ATOM     24  C   UNL     1      -1.230  11.151  23.163  0.00  0.00    +0.000 C 
ENDBRANCH  17  23
ENDBRANCH   1  19
TORSDOF 3
ENDMDL
