MODEL 1
REMARK VINA RESULT:      -8.0      0.000      0.000
REMARK  Name = 
REMARK  2 active torsions:
REMARK  status: ('A' for Active; 'I' for Inactive)
REMARK    1  A    between atoms: C_2  and  C_11
REMARK    2  A    between atoms: C_15  and  C_16
REMARK                            x       y       z     vdW  Elec       q    Type
REMARK                         _______ _______ _______ _____ _____    ______ ____
ROOT
ATOM      1  C   UNL     1       0.215  11.032  20.519  0.00  0.00    +0.000 A 
ATOM      2  C   UNL     1      -0.265  10.963  21.827  0.00  0.00    +0.000 A 
ATOM      3  C   UNL     1      -0.013   9.813  22.566  0.00  0.00    +0.000 A 
ATOM      4  C   UNL     1       0.705   8.775  21.978  0.00  0.00    +0.000 A 
ATOM      5  C   UNL     1       1.119   8.919  20.653  0.00  0.00    +0.000 A 
ATOM      6  N   UNL     1       0.888  10.028  19.901  0.00  0.00    +0.000 NA
ENDROOT
BRANCH   1   8
ATOM      7  O   UNL     1      -0.704  12.339  18.789  0.00  0.00    +0.000 OA
ATOM      8  C   UNL     1       0.042  12.310  19.757  0.00  0.00    +0.000 C 
ATOM      9  N   UNL     1       0.817  13.364  20.208  0.00  0.00    +0.000 N 
ATOM     10  C   UNL     1       0.825  14.606  19.576  0.00  0.00    +0.000 A 
ATOM     11  C   UNL     1      -0.358  15.215  19.163  0.00  0.00    +0.000 A 
ATOM     12  C   UNL     1      -0.294  16.436  18.493  0.00  0.00    +0.000 A 
ATOM     13  C   UNL     1       0.950  16.988  18.226  0.00  0.00    +0.000 A 
ATOM     14 CL   UNL     1       1.086  18.447  17.335  0.00  0.00    +0.000 Cl
ATOM     15  C   UNL     1       2.075  16.325  18.694  0.00  0.00    +0.000 A 
ATOM     16  N   UNL     1       2.037  15.168  19.405  0.00  0.00    +0.000 NA
ATOM     17  H   UNL     1       1.654  13.134  20.728  0.00  0.00    +0.000 HD
ENDBRANCH   1   8
BRANCH   5  18
ATOM     18  C   UNL     1       1.870   7.801  20.011  0.00  0.00    +0.000 C 
ATOM     19  O   UNL     1       2.386   7.952  18.907  0.00  0.00    +0.000 OA
ATOM     20  N   UNL     1       1.839   6.620  20.727  0.00  0.00    +0.000 N 
ATOM     21  C   UNL     1       2.334   5.407  20.253  0.00  0.00    +0.000 A 
ATOM     22  C   UNL     1       3.509   5.332  19.510  0.00  0.00    +0.000 A 
ATOM     23  C   UNL     1       3.914   4.095  19.012  0.00  0.00    +0.000 A 
ATOM     24  C   UNL     1       3.115   2.984  19.245  0.00  0.00    +0.000 A 
ATOM     25 CL   UNL     1       3.524   1.457  18.582  0.00  0.00    +0.000 Cl
ATOM     26  C   UNL     1       1.976   3.148  20.018  0.00  0.00    +0.000 A 
ATOM     27  N   UNL     1       1.591   4.327  20.563  0.00  0.00    +0.000 NA
ATOM     28  H   UNL     1       1.130   6.542  21.449  0.00  0.00    +0.000 HD
ENDBRANCH   5  18
TORSDOF 2
ENDMDL
MODEL 2
REMARK VINA RESULT:      -8.0      0.258      9.831
REMARK  Name = 
REMARK  2 active torsions:
REMARK  status: ('A' for Active; 'I' for Inactive)
REMARK    1  A    between atoms: C_2  and  C_11
REMARK    2  A    between atoms: C_15  and  C_16
REMARK                            x       y       z     vdW  Elec       q    Type
REMARK                         _______ _______ _______ _____ _____    ______ ____
ROOT
ATOM      1  C   UNL     1       1.044   9.011  20.916  0.00  0.00    +0.000 A 
ATOM      2  C   UNL     1       0.647   8.833  22.241  0.00  0.00    +0.000 A 
ATOM      3  C   UNL     1      -0.053   9.859  22.867  0.00  0.00    +0.000 A 
ATOM      4  C   UNL     1      -0.330  11.022  22.154  0.00  0.00    +0.000 A 
ATOM      5  C   UNL     1       0.135  11.125  20.842  0.00  0.00    +0.000 A 
ATOM      6  N   UNL     1       0.823  10.143  20.200  0.00  0.00    +0.000 NA
ENDROOT
BRANCH   1   8
ATOM      7  O   UNL     1       2.170   8.043  19.088  0.00  0.00    +0.000 OA
ATOM      8  C   UNL     1       1.700   7.869  20.203  0.00  0.00    +0.000 C 
ATOM      9  N   UNL     1       1.662   6.663  20.881  0.00  0.00    +0.000 N 
ATOM     10  C   UNL     1       2.170   5.486  20.335  0.00  0.00    +0.000 A 
ATOM     11  C   UNL     1       3.402   5.463  19.684  0.00  0.00    +0.000 A 
ATOM     12  C   UNL     1       3.846   4.271  19.114  0.00  0.00    +0.000 A 
ATOM     13  C   UNL     1       3.028   3.153  19.180  0.00  0.00    +0.000 A 
ATOM     14 CL   UNL     1       3.492   1.684  18.426  0.00  0.00    +0.000 Cl
ATOM     15  C   UNL     1       1.828   3.259  19.868  0.00  0.00    +0.000 A 
ATOM     16  N   UNL     1       1.402   4.390  20.487  0.00  0.00    +0.000 NA
ATOM     17  H   UNL     1       0.933   6.543  21.573  0.00  0.00    +0.000 HD
ENDBRANCH   1   8
BRANCH   5  18
ATOM     18  C   UNL     1      -0.140  12.378  20.080  0.00  0.00    +0.000 C 
ATOM     19  O   UNL     1      -1.010  12.400  19.213  0.00  0.00    +0.000 OA
ATOM     20  N   UNL     1       0.712  13.420  20.388  0.00  0.00    +0.000 N 
ATOM     21  C   UNL     1       0.746  14.631  19.697  0.00  0.00    +0.000 A 
ATOM     22  C   UNL     1      -0.414  15.252  19.245  0.00  0.00    +0.000 A 
ATOM     23  C   UNL     1      -0.304  16.428  18.505  0.00  0.00    +0.000 A 
ATOM     24  C   UNL     1       0.960  16.922  18.215  0.00  0.00    +0.000 A 
ATOM     25 CL   UNL     1       1.151  18.317  17.237  0.00  0.00    +0.000 Cl
ATOM     26  C   UNL     1       2.059  16.252  18.730  0.00  0.00    +0.000 A 
ATOM     27  N   UNL     1       1.977  15.141  19.501  0.00  0.00    +0.000 NA
ATOM     28  H   UNL     1       1.567  13.182  20.879  0.00  0.00    +0.000 HD
ENDBRANCH   5  18
TORSDOF 2
ENDMDL
MODEL 3
REMARK VINA RESULT:      -7.7      4.047      9.578
REMARK  Name = 
REMARK  2 active torsions:
REMARK  status: ('A' for Active; 'I' for Inactive)
REMARK    1  A    between atoms: C_2  and  C_11
REMARK    2  A    between atoms: C_15  and  C_16
REMARK                            x       y       z     vdW  Elec       q    Type
REMARK                         _______ _______ _______ _____ _____    ______ ____
ROOT
ATOM      1  C   UNL     1       1.018   9.391  18.904  0.00  0.00    +0.000 A 
ATOM      2  C   UNL     1       1.168   9.451  20.289  0.00  0.00    +0.000 A 
ATOM      3  C   UNL     1       0.178  10.080  21.036  0.00  0.00    +0.000 A 
ATOM      4  C   UNL     1      -0.921  10.626  20.379  0.00  0.00    +0.000 A 
ATOM      5  C   UNL     1      -0.971  10.546  18.986  0.00  0.00    +0.000 A 
ATOM      6  N   UNL     1      -0.021   9.941  18.225  0.00  0.00    +0.000 NA
ENDROOT
BRANCH   1   8
ATOM      7  O   UNL     1       2.414   9.063  17.035  0.00  0.00    +0.000 OA
ATOM      8  C   UNL     1       2.024   8.620  18.106  0.00  0.00    +0.000 C 
ATOM      9  N   UNL     1       2.391   7.403  18.654  0.00  0.00    +0.000 N 
ATOM     10  C   UNL     1       3.269   6.532  18.012  0.00  0.00    +0.000 A 
ATOM     11  C   UNL     1       4.440   6.995  17.415  0.00  0.00    +0.000 A 
ATOM     12  C   UNL     1       5.263   6.090  16.745  0.00  0.00    +0.000 A 
ATOM     13  C   UNL     1       4.869   4.763  16.662  0.00  0.00    +0.000 A 
ATOM     14 CL   UNL     1       5.805   3.627  15.782  0.00  0.00    +0.000 Cl
ATOM     15  C   UNL     1       3.700   4.385  17.306  0.00  0.00    +0.000 A 
ATOM     16  N   UNL     1       2.915   5.233  18.020  0.00  0.00    +0.000 NA
ATOM     17  H   UNL     1       1.742   6.971  19.299  0.00  0.00    +0.000 HD
ENDBRANCH   1   8
BRANCH   5  18
ATOM     18  C   UNL     1      -2.137  11.148  18.275  0.00  0.00    +0.000 C 
ATOM     19  O   UNL     1      -2.025  11.533  17.114  0.00  0.00    +0.000 OA
ATOM     20  N   UNL     1      -3.261  11.293  19.063  0.00  0.00    +0.000 N 
ATOM     21  C   UNL     1      -4.413  11.969  18.664  0.00  0.00    +0.000 A 
ATOM     22  C   UNL     1      -4.908  11.875  17.366  0.00  0.00    +0.000 A 
ATOM     23  C   UNL     1      -6.028  12.628  17.016  0.00  0.00    +0.000 A 
ATOM     24  C   UNL     1      -6.591  13.472  17.962  0.00  0.00    +0.000 A 
ATOM     25 CL   UNL     1      -7.916  14.481  17.557  0.00  0.00    +0.000 Cl
ATOM     26  C   UNL     1      -6.048  13.481  19.238  0.00  0.00    +0.000 A 
ATOM     27  N   UNL     1      -4.997  12.715  19.621  0.00  0.00    +0.000 NA
ATOM     28  H   UNL     1      -3.127  11.230  20.067  0.00  0.00    +0.000 HD
ENDBRANCH   5  18
TORSDOF 2
ENDMDL
MODEL 4
REMARK VINA RESULT:      -7.7      2.170      9.531
REMARK  Name = 
REMARK  2 active torsions:
REMARK  status: ('A' for Active; 'I' for Inactive)
REMARK    1  A    between atoms: C_2  and  C_11
REMARK    2  A    between atoms: C_15  and  C_16
REMARK                            x       y       z     vdW  Elec       q    Type
REMARK                         _______ _______ _______ _____ _____    ______ ____
ROOT
ATOM      1  C   UNL     1       1.679   8.543  19.471  0.00  0.00    +0.000 A 
ATOM      2  C   UNL     1       1.477   7.761  20.608  0.00  0.00    +0.000 A 
ATOM      3  C   UNL     1       0.640   8.247  21.606  0.00  0.00    +0.000 A 
ATOM      4  C   UNL     1       0.036   9.489  21.437  0.00  0.00    +0.000 A 
ATOM      5  C   UNL     1       0.321  10.216  20.280  0.00  0.00    +0.000 A 
ATOM      6  N   UNL     1       1.136   9.773  19.285  0.00  0.00    +0.000 NA
ENDROOT
BRANCH   1   8
ATOM      7  O   UNL     1       2.480   8.532  17.256  0.00  0.00    +0.000 OA
ATOM      8  C   UNL     1       2.490   7.977  18.345  0.00  0.00    +0.000 C 
ATOM      9  N   UNL     1       3.159   6.803  18.644  0.00  0.00    +0.000 N 
ATOM     10  C   UNL     1       3.909   6.112  17.695  0.00  0.00    +0.000 A 
ATOM     11  C   UNL     1       4.777   6.779  16.833  0.00  0.00    +0.000 A 
ATOM     12  C   UNL     1       5.470   6.048  15.869  0.00  0.00    +0.000 A 
ATOM     13  C   UNL     1       5.245   4.682  15.776  0.00  0.00    +0.000 A 
ATOM     14 CL   UNL     1       6.013   3.751  14.557  0.00  0.00    +0.000 Cl
ATOM     15  C   UNL     1       4.383   4.096  16.691  0.00  0.00    +0.000 A 
ATOM     16  N   UNL     1       3.744   4.775  17.679  0.00  0.00    +0.000 NA
ATOM     17  H   UNL     1       2.794   6.243  19.405  0.00  0.00    +0.000 HD
ENDBRANCH   1   8
BRANCH   5  18
ATOM     18  C   UNL     1      -0.307  11.558  20.103  0.00  0.00    +0.000 C 
ATOM     19  O   UNL     1      -1.509  11.657  19.874  0.00  0.00    +0.000 OA
ATOM     20  N   UNL     1       0.592  12.606  20.137  0.00  0.00    +0.000 N 
ATOM     21  C   UNL     1       0.261  13.928  19.841  0.00  0.00    +0.000 A 
ATOM     22  C   UNL     1      -0.946  14.492  20.244  0.00  0.00    +0.000 A 
ATOM     23  C   UNL     1      -1.241  15.799  19.860  0.00  0.00    +0.000 A 
ATOM     24  C   UNL     1      -0.337  16.483  19.060  0.00  0.00    +0.000 A 
ATOM     25 CL   UNL     1      -0.691  18.060  18.490  0.00  0.00    +0.000 Cl
ATOM     26  C   UNL     1       0.853  15.852  18.729  0.00  0.00    +0.000 A 
ATOM     27  N   UNL     1       1.190  14.604  19.139  0.00  0.00    +0.000 NA
ATOM     28  H   UNL     1       1.572  12.373  20.018  0.00  0.00    +0.000 HD
ENDBRANCH   5  18
TORSDOF 2
ENDMDL
MODEL 5
REMARK VINA RESULT:      -7.7      2.325      2.682
REMARK  Name = 
REMARK  2 active torsions:
REMARK  status: ('A' for Active; 'I' for Inactive)
REMARK    1  A    between atoms: C_2  and  C_11
REMARK    2  A    between atoms: C_15  and  C_16
REMARK                            x       y       z     vdW  Elec       q    Type
REMARK                         _______ _______ _______ _____ _____    ______ ____
ROOT
ATOM      1  C   UNL     1       0.283  10.060  20.178  0.00  0.00    +0.000 A 
ATOM      2  C   UNL     1       0.124   9.345  21.365  0.00  0.00    +0.000 A 
ATOM      3  C   UNL     1       0.825   8.154  21.520  0.00  0.00    +0.000 A 
ATOM      4  C   UNL     1       1.657   7.720  20.491  0.00  0.00    +0.000 A 
ATOM      5  C   UNL     1       1.730   8.485  19.327  0.00  0.00    +0.000 A 
ATOM      6  N   UNL     1       1.057   9.652  19.140  0.00  0.00    +0.000 NA
ENDROOT
BRANCH   1   8
ATOM      7  O   UNL     1      -1.598  11.456  19.936  0.00  0.00    +0.000 OA
ATOM      8  C   UNL     1      -0.382  11.396  20.051  0.00  0.00    +0.000 C 
ATOM      9  N   UNL     1       0.483  12.475  20.021  0.00  0.00    +0.000 N 
ATOM     10  C   UNL     1       0.036  13.783  19.845  0.00  0.00    +0.000 A 
ATOM     11  C   UNL     1      -1.075  14.267  20.533  0.00  0.00    +0.000 A 
ATOM     12  C   UNL     1      -1.511  15.568  20.287  0.00  0.00    +0.000 A 
ATOM     13  C   UNL     1      -0.846  16.328  19.337  0.00  0.00    +0.000 A 
ATOM     14 CL   UNL     1      -1.391  17.905  18.940  0.00  0.00    +0.000 Cl
ATOM     15  C   UNL     1       0.265  15.776  18.716  0.00  0.00    +0.000 A 
ATOM     16  N   UNL     1       0.749  14.535  18.983  0.00  0.00    +0.000 NA
ATOM     17  H   UNL     1       1.436  12.297  19.728  0.00  0.00    +0.000 HD
ENDBRANCH   1   8
BRANCH   5  18
ATOM     18  C   UNL     1       2.603   8.013  18.212  0.00  0.00    +0.000 C 
ATOM     19  O   UNL     1       2.627   8.617  17.143  0.00  0.00    +0.000 OA
ATOM     20  N   UNL     1       3.270   6.835  18.482  0.00  0.00    +0.000 N 
ATOM     21  C   UNL     1       4.015   6.125  17.542  0.00  0.00    +0.000 A 
ATOM     22  C   UNL     1       4.813   6.768  16.599  0.00  0.00    +0.000 A 
ATOM     23  C   UNL     1       5.481   6.002  15.646  0.00  0.00    +0.000 A 
ATOM     24  C   UNL     1       5.302   4.625  15.648  0.00  0.00    +0.000 A 
ATOM     25 CL   UNL     1       6.033   3.646  14.445  0.00  0.00    +0.000 Cl
ATOM     26  C   UNL     1       4.510   4.069  16.641  0.00  0.00    +0.000 A 
ATOM     27  N   UNL     1       3.898   4.786  17.614  0.00  0.00    +0.000 NA
ATOM     28  H   UNL     1       2.927   6.283  19.262  0.00  0.00    +0.000 HD
ENDBRANCH   5  18
TORSDOF 2
ENDMDL
MODEL 6
REMARK VINA RESULT:      -7.6      1.926      2.392
REMARK  Name = 
REMARK  2 active torsions:
REMARK  status: ('A' for Active; 'I' for Inactive)
REMARK    1  A    between atoms: C_2  and  C_11
REMARK    2  A    between atoms: C_15  and  C_16
REMARK                            x       y       z     vdW  Elec       q    Type
REMARK                         _______ _______ _______ _____ _____    ______ ____
ROOT
ATOM      1  C   UNL     1       0.722  10.882  21.052  0.00  0.00    +0.000 A 
ATOM      2  C   UNL     1      -0.186  10.756  22.103  0.00  0.00    +0.000 A 
ATOM      3  C   UNL     1      -0.502   9.480  22.557  0.00  0.00    +0.000 A 
ATOM      4  C   UNL     1       0.096   8.379  21.950  0.00  0.00    +0.000 A 
ATOM      5  C   UNL     1       0.969   8.600  20.883  0.00  0.00    +0.000 A 
ATOM      6  N   UNL     1       1.298   9.832  20.412  0.00  0.00    +0.000 NA
ENDROOT
BRANCH   1   8
ATOM      7  O   UNL     1       2.098  12.788  21.189  0.00  0.00    +0.000 OA
ATOM      8  C   UNL     1       1.149  12.255  20.632  0.00  0.00    +0.000 C 
ATOM      9  N   UNL     1       0.363  12.833  19.650  0.00  0.00    +0.000 N 
ATOM     10  C   UNL     1       0.583  14.129  19.189  0.00  0.00    +0.000 A 
ATOM     11  C   UNL     1       1.867  14.587  18.899  0.00  0.00    +0.000 A 
ATOM     12  C   UNL     1       2.039  15.906  18.484  0.00  0.00    +0.000 A 
ATOM     13  C   UNL     1       0.929  16.734  18.409  0.00  0.00    +0.000 A 
ATOM     14 CL   UNL     1       1.098  18.386  17.981  0.00  0.00    +0.000 Cl
ATOM     15  C   UNL     1      -0.315  16.190  18.693  0.00  0.00    +0.000 A 
ATOM     16  N   UNL     1      -0.518  14.891  19.037  0.00  0.00    +0.000 NA
ATOM     17  H   UNL     1      -0.585  12.491  19.555  0.00  0.00    +0.000 HD
ENDBRANCH   1   8
BRANCH   5  18
ATOM     18  C   UNL     1       1.596   7.422  20.215  0.00  0.00    +0.000 C 
ATOM     19  O   UNL     1       1.672   6.344  20.798  0.00  0.00    +0.000 OA
ATOM     20  N   UNL     1       2.129   7.700  18.972  0.00  0.00    +0.000 N 
ATOM     21  C   UNL     1       2.896   6.802  18.232  0.00  0.00    +0.000 A 
ATOM     22  C   UNL     1       2.596   5.444  18.185  0.00  0.00    +0.000 A 
ATOM     23  C   UNL     1       3.442   4.591  17.478  0.00  0.00    +0.000 A 
ATOM     24  C   UNL     1       4.574   5.119  16.873  0.00  0.00    +0.000 A 
ATOM     25 CL   UNL     1       5.691   4.100  16.064  0.00  0.00    +0.000 Cl
ATOM     26  C   UNL     1       4.778   6.488  16.949  0.00  0.00    +0.000 A 
ATOM     27  N   UNL     1       3.940   7.347  17.579  0.00  0.00    +0.000 NA
ATOM     28  H   UNL     1       2.278   8.679  18.746  0.00  0.00    +0.000 HD
ENDBRANCH   5  18
TORSDOF 2
ENDMDL
MODEL 7
REMARK VINA RESULT:      -7.6      4.040      4.634
REMARK  Name = 
REMARK  2 active torsions:
REMARK  status: ('A' for Active; 'I' for Inactive)
REMARK    1  A    between atoms: C_2  and  C_11
REMARK    2  A    between atoms: C_15  and  C_16
REMARK                            x       y       z     vdW  Elec       q    Type
REMARK                         _______ _______ _______ _____ _____    ______ ____
ROOT
ATOM      1  C   UNL     1      -1.022  10.604  19.149  0.00  0.00    +0.000 A 
ATOM      2  C   UNL     1      -0.951  10.699  20.539  0.00  0.00    +0.000 A 
ATOM      3  C   UNL     1       0.148  10.145  21.186  0.00  0.00    +0.000 A 
ATOM      4  C   UNL     1       1.133   9.517  20.429  0.00  0.00    +0.000 A 
ATOM      5  C   UNL     1       0.962   9.441  19.046  0.00  0.00    +0.000 A 
ATOM      6  N   UNL     1      -0.099   9.970  18.381  0.00  0.00    +0.000 NA
ENDROOT
BRANCH   1   8
ATOM      7  O   UNL     1      -1.952  11.781  17.334  0.00  0.00    +0.000 OA
ATOM      8  C   UNL     1      -2.145  11.294  18.439  0.00  0.00    +0.000 C 
ATOM      9  N   UNL     1      -3.328  11.365  19.153  0.00  0.00    +0.000 N 
ATOM     10  C   UNL     1      -4.454  12.026  18.666  0.00  0.00    +0.000 A 
ATOM     11  C   UNL     1      -4.871  11.868  17.346  0.00  0.00    +0.000 A 
ATOM     12  C   UNL     1      -5.976  12.587  16.893  0.00  0.00    +0.000 A 
ATOM     13  C   UNL     1      -6.603  13.467  17.762  0.00  0.00    +0.000 A 
ATOM     14 CL   UNL     1      -7.916  14.434  17.231  0.00  0.00    +0.000 Cl
ATOM     15  C   UNL     1      -6.136  13.544  19.066  0.00  0.00    +0.000 A 
ATOM     16  N   UNL     1      -5.102  12.808  19.550  0.00  0.00    +0.000 NA
ATOM     17  H   UNL     1      -3.265  11.295  20.161  0.00  0.00    +0.000 HD
ENDBRANCH   1   8
BRANCH   5  18
ATOM     18  C   UNL     1       2.005   8.750  18.231  0.00  0.00    +0.000 C 
ATOM     19  O   UNL     1       2.391   9.238  17.173  0.00  0.00    +0.000 OA
ATOM     20  N   UNL     1       2.392   7.525  18.738  0.00  0.00    +0.000 N 
ATOM     21  C   UNL     1       3.231   6.634  18.071  0.00  0.00    +0.000 A 
ATOM     22  C   UNL     1       4.330   7.069  17.337  0.00  0.00    +0.000 A 
ATOM     23  C   UNL     1       5.090   6.131  16.641  0.00  0.00    +0.000 A 
ATOM     24  C   UNL     1       4.706   4.797  16.677  0.00  0.00    +0.000 A 
ATOM     25 CL   UNL     1       5.557   3.617  15.771  0.00  0.00    +0.000 Cl
ATOM     26  C   UNL     1       3.614   4.452  17.457  0.00  0.00    +0.000 A 
ATOM     27  N   UNL     1       2.894   5.336  18.190  0.00  0.00    +0.000 NA
ATOM     28  H   UNL     1       1.782   7.103  19.431  0.00  0.00    +0.000 HD
ENDBRANCH   5  18
TORSDOF 2
ENDMDL
MODEL 8
REMARK VINA RESULT:      -7.6      1.665      2.047
REMARK  Name = 
REMARK  2 active torsions:
REMARK  status: ('A' for Active; 'I' for Inactive)
REMARK    1  A    between atoms: C_2  and  C_11
REMARK    2  A    between atoms: C_15  and  C_16
REMARK                            x       y       z     vdW  Elec       q    Type
REMARK                         _______ _______ _______ _____ _____    ______ ____
ROOT
ATOM      1  C   UNL     1       0.279  10.879  20.628  0.00  0.00    +0.000 A 
ATOM      2  C   UNL     1      -0.096  10.897  21.971  0.00  0.00    +0.000 A 
ATOM      3  C   UNL     1       0.136   9.761  22.739  0.00  0.00    +0.000 A 
ATOM      4  C   UNL     1       0.730   8.652  22.144  0.00  0.00    +0.000 A 
ATOM      5  C   UNL     1       1.043   8.713  20.785  0.00  0.00    +0.000 A 
ATOM      6  N   UNL     1       0.828   9.806  20.004  0.00  0.00    +0.000 NA
ENDROOT
BRANCH   1   8
ATOM      7  O   UNL     1      -0.502  12.114  18.781  0.00  0.00    +0.000 OA
ATOM      8  C   UNL     1       0.133  12.135  19.825  0.00  0.00    +0.000 C 
ATOM      9  N   UNL     1       0.804  13.232  20.336  0.00  0.00    +0.000 N 
ATOM     10  C   UNL     1       0.825  14.463  19.683  0.00  0.00    +0.000 A 
ATOM     11  C   UNL     1      -0.332  15.008  19.130  0.00  0.00    +0.000 A 
ATOM     12  C   UNL     1      -0.251  16.220  18.446  0.00  0.00    +0.000 A 
ATOM     13  C   UNL     1       0.989  16.827  18.305  0.00  0.00    +0.000 A 
ATOM     14 CL   UNL     1       1.156  18.277  17.405  0.00  0.00    +0.000 Cl
ATOM     15  C   UNL     1       2.084  16.226  18.908  0.00  0.00    +0.000 A 
ATOM     16  N   UNL     1       2.021  15.080  19.634  0.00  0.00    +0.000 NA
ATOM     17  H   UNL     1       1.589  13.051  20.950  0.00  0.00    +0.000 HD
ENDBRANCH   1   8
BRANCH   5  18
ATOM     18  C   UNL     1       1.661   7.519  20.137  0.00  0.00    +0.000 C 
ATOM     19  O   UNL     1       1.727   6.451  20.738  0.00  0.00    +0.000 OA
ATOM     20  N   UNL     1       2.196   7.773  18.889  0.00  0.00    +0.000 N 
ATOM     21  C   UNL     1       2.956   6.856  18.165  0.00  0.00    +0.000 A 
ATOM     22  C   UNL     1       2.645   5.499  18.141  0.00  0.00    +0.000 A 
ATOM     23  C   UNL     1       3.484   4.628  17.449  0.00  0.00    +0.000 A 
ATOM     24  C   UNL     1       4.621   5.136  16.836  0.00  0.00    +0.000 A 
ATOM     25 CL   UNL     1       5.729   4.095  16.045  0.00  0.00    +0.000 Cl
ATOM     26  C   UNL     1       4.836   6.505  16.888  0.00  0.00    +0.000 A 
ATOM     27  N   UNL     1       4.005   7.381  17.503  0.00  0.00    +0.000 NA
ATOM     28  H   UNL     1       2.353   8.746  18.648  0.00  0.00    +0.000 HD
ENDBRANCH   5  18
TORSDOF 2
ENDMDL
MODEL 9
REMARK VINA RESULT:      -7.6      1.664      9.213
REMARK  Name = 
REMARK  2 active torsions:
REMARK  status: ('A' for Active; 'I' for Inactive)
REMARK    1  A    between atoms: C_2  and  C_11
REMARK    2  A    between atoms: C_15  and  C_16
REMARK                            x       y       z     vdW  Elec       q    Type
REMARK                         _______ _______ _______ _____ _____    ______ ____
ROOT
ATOM      1  C   UNL     1       0.863   9.054  21.070  0.00  0.00    +0.000 A 
ATOM      2  C   UNL     1       0.399   8.914  22.377  0.00  0.00    +0.000 A 
ATOM      3  C   UNL     1      -0.315   9.965  22.943  0.00  0.00    +0.000 A 
ATOM      4  C   UNL     1      -0.540  11.114  22.189  0.00  0.00    +0.000 A 
ATOM      5  C   UNL     1      -0.010  11.177  20.899  0.00  0.00    +0.000 A 
ATOM      6  N   UNL     1       0.693  10.170  20.316  0.00  0.00    +0.000 NA
ENDROOT
BRANCH   1   8
ATOM      7  O   UNL     1       1.682   6.846  21.045  0.00  0.00    +0.000 OA
ATOM      8  C   UNL     1       1.535   7.884  20.418  0.00  0.00    +0.000 C 
ATOM      9  N   UNL     1       1.990   8.119  19.132  0.00  0.00    +0.000 N 
ATOM     10  C   UNL     1       2.692   7.160  18.404  0.00  0.00    +0.000 A 
ATOM     11  C   UNL     1       2.278   5.830  18.373  0.00  0.00    +0.000 A 
ATOM     12  C   UNL     1       3.040   4.899  17.668  0.00  0.00    +0.000 A 
ATOM     13  C   UNL     1       4.208   5.321  17.051  0.00  0.00    +0.000 A 
ATOM     14 CL   UNL     1       5.222   4.201  16.239  0.00  0.00    +0.000 Cl
ATOM     15  C   UNL     1       4.532   6.668  17.113  0.00  0.00    +0.000 A 
ATOM     16  N   UNL     1       3.774   7.607  17.738  0.00  0.00    +0.000 NA
ATOM     17  H   UNL     1       2.170   9.081  18.873  0.00  0.00    +0.000 HD
ENDBRANCH   1   8
BRANCH   5  18
ATOM     18  C   UNL     1      -0.230  12.414  20.094  0.00  0.00    +0.000 C 
ATOM     19  O   UNL     1      -1.066  12.431  19.195  0.00  0.00    +0.000 OA
ATOM     20  N   UNL     1       0.633  13.446  20.406  0.00  0.00    +0.000 N 
ATOM     21  C   UNL     1       0.719  14.636  19.685  0.00  0.00    +0.000 A 
ATOM     22  C   UNL     1      -0.409  15.269  19.173  0.00  0.00    +0.000 A 
ATOM     23  C   UNL     1      -0.246  16.422  18.406  0.00  0.00    +0.000 A 
ATOM     24  C   UNL     1       1.038  16.881  18.150  0.00  0.00    +0.000 A 
ATOM     25 CL   UNL     1       1.296  18.244  17.143  0.00  0.00    +0.000 Cl
ATOM     26  C   UNL     1       2.102  16.202  18.724  0.00  0.00    +0.000 A 
ATOM     27  N   UNL     1       1.968  15.115  19.521  0.00  0.00    +0.000 NA
ATOM     28  H   UNL     1       1.464  13.204  20.934  0.00  0.00    +0.000 HD
ENDBRANCH   5  18
TORSDOF 2
ENDMDL
