MODEL 1
REMARK VINA RESULT:      -9.4      0.000      0.000
REMARK  Name = 
REMARK  4 active torsions:
REMARK  status: ('A' for Active; 'I' for Inactive)
REMARK    1  A    between atoms: C_2  and  C_5
REMARK    2  A    between atoms: C_11  and  C_12
REMARK    3  A    between atoms: C_14  and  C_15
REMARK    4  A    between atoms: N_20  and  C_21
REMARK                            x       y       z     vdW  Elec       q    Type
REMARK                         _______ _______ _______ _____ _____    ______ ____
ROOT
ATOM      1  C   UNL     1       3.111   6.701  18.525  0.00  0.00    +0.000 A 
ATOM      2  C   UNL     1       4.240   6.499  17.693  0.00  0.00    +0.000 A 
ATOM      3  C   UNL     1       4.792   5.296  18.096  0.00  0.00    +0.000 A 
ATOM      4  N   UNL     1       3.858   4.739  18.941  0.00  0.00    +0.000 N 
ATOM      5  N   UNL     1       2.850   5.583  19.210  0.00  0.00    +0.000 NA
ENDROOT
BRANCH   1  12
ATOM      6  C   UNL     1       0.043   9.916  21.078  0.00  0.00    +0.000 A 
ATOM      7  C   UNL     1      -0.465  11.088  20.526  0.00  0.00    +0.000 A 
ATOM      8  N   UNL     1       0.024  11.217  19.259  0.00  0.00    +0.000 N 
ATOM      9  C   UNL     1       0.835  10.160  18.963  0.00  0.00    +0.000 A 
ATOM     10  N   UNL     1       1.461  10.004  17.787  0.00  0.00    +0.000 NA
ATOM     11  C   UNL     1       2.201   8.866  17.739  0.00  0.00    +0.000 A 
ATOM     12  C   UNL     1       2.342   7.921  18.760  0.00  0.00    +0.000 A 
ATOM     13  C   UNL     1       1.656   8.153  19.961  0.00  0.00    +0.000 A 
ATOM     14  C   UNL     1       0.872   9.321  20.069  0.00  0.00    +0.000 A 
ATOM     15  H   UNL     1      -0.169  11.967  18.607  0.00  0.00    +0.000 HD
BRANCH   6  17
ATOM     16  F   UNL     1      -0.945  10.243  23.198  0.00  0.00    +0.000 F 
ATOM     17  C   UNL     1      -0.213   9.384  22.442  0.00  0.00    +0.000 C 
ATOM     18  F   UNL     1       0.940   9.152  23.117  0.00  0.00    +0.000 F 
ATOM     19  F   UNL     1      -0.896   8.212  22.409  0.00  0.00    +0.000 F 
ENDBRANCH   6  17
ENDBRANCH   1  12
BRANCH   3  20
ATOM     20  C   UNL     1       6.173   4.734  17.888  0.00  0.00    +0.000 C 
ATOM     21  C   UNL     1       7.156   5.530  18.733  0.00  0.00    +0.000 C 
ATOM     22  C   UNL     1       7.513   6.694  17.829  0.00  0.00    +0.000 C 
ATOM     23  O   UNL     1       7.420   6.218  16.480  0.00  0.00    +0.000 OA
ATOM     24  C   UNL     1       6.755   4.942  16.492  0.00  0.00    +0.000 C 
ENDBRANCH   3  20
BRANCH   4  25
ATOM     25  C   UNL     1       3.899   3.450  19.625  0.00  0.00    +0.000 C 
ATOM     26  C   UNL     1       3.674   2.276  18.692  0.00  0.00    +0.000 C 
ATOM     27  C   UNL     1       2.168   2.115  18.711  0.00  0.00    +0.000 C 
ATOM     28  O   UNL     1       1.743   2.470  20.035  0.00  0.00    +0.000 OA
ATOM     29  C   UNL     1       2.773   3.274  20.638  0.00  0.00    +0.000 C 
ENDBRANCH   4  25
TORSDOF 4
ENDMDL
MODEL 2
REMARK VINA RESULT:      -9.4      0.940      3.718
REMARK  Name = 
REMARK  4 active torsions:
REMARK  status: ('A' for Active; 'I' for Inactive)
REMARK    1  A    between atoms: C_2  and  C_5
REMARK    2  A    between atoms: C_11  and  C_12
REMARK    3  A    between atoms: C_14  and  C_15
REMARK    4  A    between atoms: N_20  and  C_21
REMARK                            x       y       z     vdW  Elec       q    Type
REMARK                         _______ _______ _______ _____ _____    ______ ____
ROOT
ATOM      1  C   UNL     1       2.930   6.756  18.865  0.00  0.00    +0.000 A 
ATOM      2  C   UNL     1       2.857   5.536  19.582  0.00  0.00    +0.000 A 
ATOM      3  C   UNL     1       3.512   4.602  18.799  0.00  0.00    +0.000 A 
ATOM      4  N   UNL     1       4.139   5.335  17.815  0.00  0.00    +0.000 N 
ATOM      5  N   UNL     1       3.784   6.630  17.845  0.00  0.00    +0.000 NA
ENDROOT
BRANCH   1  12
ATOM      6  C   UNL     1      -0.115  10.083  21.299  0.00  0.00    +0.000 A 
ATOM      7  C   UNL     1      -0.627  11.230  20.701  0.00  0.00    +0.000 A 
ATOM      8  N   UNL     1      -0.148  11.303  19.425  0.00  0.00    +0.000 N 
ATOM      9  C   UNL     1       0.660  10.233  19.169  0.00  0.00    +0.000 A 
ATOM     10  N   UNL     1       1.276  10.024  17.997  0.00  0.00    +0.000 NA
ATOM     11  C   UNL     1       2.014   8.885  17.992  0.00  0.00    +0.000 A 
ATOM     12  C   UNL     1       2.163   7.985  19.052  0.00  0.00    +0.000 A 
ATOM     13  C   UNL     1       1.487   8.271  20.248  0.00  0.00    +0.000 A 
ATOM     14  C   UNL     1       0.705   9.444  20.311  0.00  0.00    +0.000 A 
ATOM     15  H   UNL     1      -0.347  12.024  18.743  0.00  0.00    +0.000 HD
BRANCH   6  17
ATOM     16  F   UNL     1       0.791   9.490  23.399  0.00  0.00    +0.000 F 
ATOM     17  C   UNL     1      -0.360   9.612  22.688  0.00  0.00    +0.000 C 
ATOM     18  F   UNL     1      -0.964   8.397  22.708  0.00  0.00    +0.000 F 
ATOM     19  F   UNL     1      -1.160  10.464  23.378  0.00  0.00    +0.000 F 
ENDBRANCH   6  17
ENDBRANCH   1  12
BRANCH   3  20
ATOM     20  C   UNL     1       3.445   3.099  18.807  0.00  0.00    +0.000 C 
ATOM     21  C   UNL     1       2.390   2.651  17.808  0.00  0.00    +0.000 C 
ATOM     22  C   UNL     1       1.112   2.694  18.625  0.00  0.00    +0.000 C 
ATOM     23  O   UNL     1       1.475   2.406  19.981  0.00  0.00    +0.000 OA
ATOM     24  C   UNL     1       2.907   2.479  20.095  0.00  0.00    +0.000 C 
ENDBRANCH   3  20
BRANCH   4  25
ATOM     25  C   UNL     1       5.006   4.867  16.740  0.00  0.00    +0.000 C 
ATOM     26  C   UNL     1       6.389   4.473  17.220  0.00  0.00    +0.000 C 
ATOM     27  C   UNL     1       7.160   5.774  17.127  0.00  0.00    +0.000 C 
ATOM     28  O   UNL     1       6.628   6.475  15.994  0.00  0.00    +0.000 OA
ATOM     29  C   UNL     1       5.320   5.947  15.710  0.00  0.00    +0.000 C 
ENDBRANCH   4  25
TORSDOF 4
ENDMDL
MODEL 3
REMARK VINA RESULT:      -9.3      1.115      3.597
REMARK  Name = 
REMARK  4 active torsions:
REMARK  status: ('A' for Active; 'I' for Inactive)
REMARK    1  A    between atoms: C_2  and  C_5
REMARK    2  A    between atoms: C_11  and  C_12
REMARK    3  A    between atoms: C_14  and  C_15
REMARK    4  A    between atoms: N_20  and  C_21
REMARK                            x       y       z     vdW  Elec       q    Type
REMARK                         _______ _______ _______ _____ _____    ______ ____
ROOT
ATOM      1  C   UNL     1       2.658   6.788  18.545  0.00  0.00    +0.000 A 
ATOM      2  C   UNL     1       2.175   5.494  18.863  0.00  0.00    +0.000 A 
ATOM      3  C   UNL     1       2.839   4.627  18.012  0.00  0.00    +0.000 A 
ATOM      4  N   UNL     1       3.829   5.386  17.429  0.00  0.00    +0.000 N 
ATOM      5  N   UNL     1       3.719   6.687  17.737  0.00  0.00    +0.000 NA
ENDROOT
BRANCH   1  12
ATOM      6  C   UNL     1       0.119  10.219  21.380  0.00  0.00    +0.000 A 
ATOM      7  C   UNL     1      -0.164  11.510  20.947  0.00  0.00    +0.000 A 
ATOM      8  N   UNL     1       0.376  11.678  19.705  0.00  0.00    +0.000 N 
ATOM      9  C   UNL     1       1.001  10.530  19.311  0.00  0.00    +0.000 A 
ATOM     10  N   UNL     1       1.625  10.384  18.132  0.00  0.00    +0.000 NA
ATOM     11  C   UNL     1       2.158   9.145  17.975  0.00  0.00    +0.000 A 
ATOM     12  C   UNL     1       2.105   8.093  18.895  0.00  0.00    +0.000 A 
ATOM     13  C   UNL     1       1.434   8.321  20.106  0.00  0.00    +0.000 A 
ATOM     14  C   UNL     1       0.861   9.592  20.325  0.00  0.00    +0.000 A 
ATOM     15  H   UNL     1       0.334  12.511  19.132  0.00  0.00    +0.000 HD
BRANCH   6  17
ATOM     16  F   UNL     1      -1.091  10.409  23.401  0.00  0.00    +0.000 F 
ATOM     17  C   UNL     1      -0.265   9.606  22.680  0.00  0.00    +0.000 C 
ATOM     18  F   UNL     1       0.818   9.357  23.458  0.00  0.00    +0.000 F 
ATOM     19  F   UNL     1      -0.914   8.426  22.512  0.00  0.00    +0.000 F 
ENDBRANCH   6  17
ENDBRANCH   1  12
BRANCH   3  20
ATOM     20  C   UNL     1       2.502   3.222  17.591  0.00  0.00    +0.000 C 
ATOM     21  C   UNL     1       1.271   2.764  18.359  0.00  0.00    +0.000 C 
ATOM     22  C   UNL     1       1.861   2.217  19.645  0.00  0.00    +0.000 C 
ATOM     23  O   UNL     1       3.160   1.703  19.323  0.00  0.00    +0.000 OA
ATOM     24  C   UNL     1       3.516   2.159  18.006  0.00  0.00    +0.000 C 
ENDBRANCH   3  20
BRANCH   4  25
ATOM     25  C   UNL     1       4.855   4.971  16.478  0.00  0.00    +0.000 C 
ATOM     26  C   UNL     1       6.137   4.516  17.147  0.00  0.00    +0.000 C 
ATOM     27  C   UNL     1       6.927   5.802  17.272  0.00  0.00    +0.000 C 
ATOM     28  O   UNL     1       6.595   6.590  16.120  0.00  0.00    +0.000 OA
ATOM     29  C   UNL     1       5.345   6.112  15.591  0.00  0.00    +0.000 C 
ENDBRANCH   4  25
TORSDOF 4
ENDMDL
MODEL 4
REMARK VINA RESULT:      -8.9      1.035      1.411
REMARK  Name = 
REMARK  4 active torsions:
REMARK  status: ('A' for Active; 'I' for Inactive)
REMARK    1  A    between atoms: C_2  and  C_5
REMARK    2  A    between atoms: C_11  and  C_12
REMARK    3  A    between atoms: C_14  and  C_15
REMARK    4  A    between atoms: N_20  and  C_21
REMARK                            x       y       z     vdW  Elec       q    Type
REMARK                         _______ _______ _______ _____ _____    ______ ____
ROOT
ATOM      1  C   UNL     1       2.586   6.909  18.691  0.00  0.00    +0.000 A 
ATOM      2  C   UNL     1       3.536   6.590  17.689  0.00  0.00    +0.000 A 
ATOM      3  C   UNL     1       3.999   5.323  18.002  0.00  0.00    +0.000 A 
ATOM      4  N   UNL     1       3.151   4.866  18.987  0.00  0.00    +0.000 N 
ATOM      5  N   UNL     1       2.306   5.818  19.412  0.00  0.00    +0.000 NA
ENDROOT
BRANCH   1  12
ATOM      6  C   UNL     1      -0.018  10.297  21.520  0.00  0.00    +0.000 A 
ATOM      7  C   UNL     1      -0.313  11.587  21.090  0.00  0.00    +0.000 A 
ATOM      8  N   UNL     1       0.236  11.766  19.853  0.00  0.00    +0.000 N 
ATOM      9  C   UNL     1       0.877  10.628  19.460  0.00  0.00    +0.000 A 
ATOM     10  N   UNL     1       1.512  10.494  18.286  0.00  0.00    +0.000 NA
ATOM     11  C   UNL     1       2.061   9.263  18.127  0.00  0.00    +0.000 A 
ATOM     12  C   UNL     1       2.014   8.206  19.042  0.00  0.00    +0.000 A 
ATOM     13  C   UNL     1       1.331   8.421  20.249  0.00  0.00    +0.000 A 
ATOM     14  C   UNL     1       0.740   9.683  20.469  0.00  0.00    +0.000 A 
ATOM     15  H   UNL     1       0.188  12.601  19.284  0.00  0.00    +0.000 HD
BRANCH   6  17
ATOM     16  F   UNL     1      -0.971   8.451  22.645  0.00  0.00    +0.000 F 
ATOM     17  C   UNL     1      -0.405   9.674  22.814  0.00  0.00    +0.000 C 
ATOM     18  F   UNL     1      -1.303  10.433  23.489  0.00  0.00    +0.000 F 
ATOM     19  F   UNL     1       0.664   9.502  23.633  0.00  0.00    +0.000 F 
ENDBRANCH   6  17
ENDBRANCH   1  12
BRANCH   3  20
ATOM     20  C   UNL     1       5.252   4.607  17.577  0.00  0.00    +0.000 C 
ATOM     21  C   UNL     1       6.214   5.622  16.977  0.00  0.00    +0.000 C 
ATOM     22  C   UNL     1       5.778   5.682  15.525  0.00  0.00    +0.000 C 
ATOM     23  O   UNL     1       5.261   4.387  15.192  0.00  0.00    +0.000 OA
ATOM     24  C   UNL     1       5.083   3.640  16.408  0.00  0.00    +0.000 C 
ENDBRANCH   3  20
BRANCH   4  25
ATOM     25  C   UNL     1       3.147   3.571  19.659  0.00  0.00    +0.000 C 
ATOM     26  C   UNL     1       2.541   2.466  18.816  0.00  0.00    +0.000 C 
ATOM     27  C   UNL     1       1.072   2.535  19.177  0.00  0.00    +0.000 C 
ATOM     28  O   UNL     1       1.016   2.920  20.558  0.00  0.00    +0.000 OA
ATOM     29  C   UNL     1       2.266   3.544  20.904  0.00  0.00    +0.000 C 
ENDBRANCH   4  25
TORSDOF 4
ENDMDL
MODEL 5
REMARK VINA RESULT:      -8.6      1.141      3.643
REMARK  Name = 
REMARK  4 active torsions:
REMARK  status: ('A' for Active; 'I' for Inactive)
REMARK    1  A    between atoms: C_2  and  C_5
REMARK    2  A    between atoms: C_11  and  C_12
REMARK    3  A    between atoms: C_14  and  C_15
REMARK    4  A    between atoms: N_20  and  C_21
REMARK                            x       y       z     vdW  Elec       q    Type
REMARK                         _______ _______ _______ _____ _____    ______ ____
ROOT
ATOM      1  C   UNL     1       2.833   6.489  19.429  0.00  0.00    +0.000 A 
ATOM      2  C   UNL     1       2.606   5.340  20.226  0.00  0.00    +0.000 A 
ATOM      3  C   UNL     1       3.243   4.299  19.573  0.00  0.00    +0.000 A 
ATOM      4  N   UNL     1       4.001   4.902  18.594  0.00  0.00    +0.000 N 
ATOM      5  N   UNL     1       3.751   6.217  18.496  0.00  0.00    +0.000 NA
ENDROOT
BRANCH   1  12
ATOM      6  C   UNL     1      -0.158  10.198  21.317  0.00  0.00    +0.000 A 
ATOM      7  C   UNL     1      -0.510  11.336  20.600  0.00  0.00    +0.000 A 
ATOM      8  N   UNL     1       0.101  11.285  19.381  0.00  0.00    +0.000 N 
ATOM      9  C   UNL     1       0.839  10.142  19.278  0.00  0.00    +0.000 A 
ATOM     10  N   UNL     1       1.553   9.807  18.193  0.00  0.00    +0.000 NA
ATOM     11  C   UNL     1       2.191   8.617  18.336  0.00  0.00    +0.000 A 
ATOM     12  C   UNL     1       2.156   7.783  19.458  0.00  0.00    +0.000 A 
ATOM     13  C   UNL     1       1.387   8.201  20.555  0.00  0.00    +0.000 A 
ATOM     14  C   UNL     1       0.702   9.431  20.463  0.00  0.00    +0.000 A 
ATOM     15  H   UNL     1       0.034  11.970  18.639  0.00  0.00    +0.000 HD
BRANCH   6  17
ATOM     16  F   UNL     1      -1.577  10.649  23.151  0.00  0.00    +0.000 F 
ATOM     17  C   UNL     1      -0.582   9.842  22.698  0.00  0.00    +0.000 C 
ATOM     18  F   UNL     1       0.441   9.947  23.582  0.00  0.00    +0.000 F 
ATOM     19  F   UNL     1      -1.044   8.569  22.774  0.00  0.00    +0.000 F 
ENDBRANCH   6  17
ENDBRANCH   1  12
BRANCH   3  20
ATOM     20  C   UNL     1       3.055   2.811  19.689  0.00  0.00    +0.000 C 
ATOM     21  C   UNL     1       1.629   2.533  20.140  0.00  0.00    +0.000 C 
ATOM     22  C   UNL     1       1.731   2.619  21.651  0.00  0.00    +0.000 C 
ATOM     23  O   UNL     1       3.054   2.196  22.004  0.00  0.00    +0.000 OA
ATOM     24  C   UNL     1       3.849   2.140  20.806  0.00  0.00    +0.000 C 
ENDBRANCH   3  20
BRANCH   4  25
ATOM     25  C   UNL     1       4.909   4.285  17.633  0.00  0.00    +0.000 C 
ATOM     26  C   UNL     1       6.368   4.587  17.914  0.00  0.00    +0.000 C 
ATOM     27  C   UNL     1       6.600   5.870  17.143  0.00  0.00    +0.000 C 
ATOM     28  O   UNL     1       5.777   5.789  15.972  0.00  0.00    +0.000 OA
ATOM     29  C   UNL     1       4.738   4.823  16.216  0.00  0.00    +0.000 C 
ENDBRANCH   4  25
TORSDOF 4
ENDMDL
MODEL 6
REMARK VINA RESULT:      -8.4      1.121      3.636
REMARK  Name = 
REMARK  4 active torsions:
REMARK  status: ('A' for Active; 'I' for Inactive)
REMARK    1  A    between atoms: C_2  and  C_5
REMARK    2  A    between atoms: C_11  and  C_12
REMARK    3  A    between atoms: C_14  and  C_15
REMARK    4  A    between atoms: N_20  and  C_21
REMARK                            x       y       z     vdW  Elec       q    Type
REMARK                         _______ _______ _______ _____ _____    ______ ____
ROOT
ATOM      1  C   UNL     1       3.033   6.505  19.004  0.00  0.00    +0.000 A 
ATOM      2  C   UNL     1       2.730   5.224  19.529  0.00  0.00    +0.000 A 
ATOM      3  C   UNL     1       3.572   4.342  18.873  0.00  0.00    +0.000 A 
ATOM      4  N   UNL     1       4.474   5.139  18.203  0.00  0.00    +0.000 N 
ATOM      5  N   UNL     1       4.150   6.440  18.271  0.00  0.00    +0.000 NA
ENDROOT
BRANCH   1  12
ATOM      6  C   UNL     1      -0.035   9.999  21.158  0.00  0.00    +0.000 A 
ATOM      7  C   UNL     1      -0.537  11.102  20.474  0.00  0.00    +0.000 A 
ATOM      8  N   UNL     1      -0.042  11.084  19.202  0.00  0.00    +0.000 N 
ATOM      9  C   UNL     1       0.767   9.998  19.033  0.00  0.00    +0.000 A 
ATOM     10  N   UNL     1       1.398   9.706  17.886  0.00  0.00    +0.000 NA
ATOM     11  C   UNL     1       2.134   8.568  17.971  0.00  0.00    +0.000 A 
ATOM     12  C   UNL     1       2.268   7.745  19.094  0.00  0.00    +0.000 A 
ATOM     13  C   UNL     1       1.577   8.115  20.258  0.00  0.00    +0.000 A 
ATOM     14  C   UNL     1       0.796   9.291  20.228  0.00  0.00    +0.000 A 
ATOM     15  H   UNL     1      -0.230  11.755  18.468  0.00  0.00    +0.000 HD
BRANCH   6  17
ATOM     16  F   UNL     1      -0.960   8.445  22.677  0.00  0.00    +0.000 F 
ATOM     17  C   UNL     1      -0.299   9.627  22.573  0.00  0.00    +0.000 C 
ATOM     18  F   UNL     1      -1.057  10.558  23.205  0.00  0.00    +0.000 F 
ATOM     19  F   UNL     1       0.849   9.499  23.286  0.00  0.00    +0.000 F 
ENDBRANCH   6  17
ENDBRANCH   1  12
BRANCH   3  20
ATOM     20  C   UNL     1       3.480   2.851  18.695  0.00  0.00    +0.000 C 
ATOM     21  C   UNL     1       2.343   2.544  17.732  0.00  0.00    +0.000 C 
ATOM     22  C   UNL     1       1.132   2.491  18.645  0.00  0.00    +0.000 C 
ATOM     23  O   UNL     1       1.594   2.028  19.921  0.00  0.00    +0.000 OA
ATOM     24  C   UNL     1       3.031   2.075  19.931  0.00  0.00    +0.000 C 
ENDBRANCH   3  20
BRANCH   4  25
ATOM     25  C   UNL     1       5.613   4.740  17.383  0.00  0.00    +0.000 C 
ATOM     26  C   UNL     1       6.286   5.908  16.690  0.00  0.00    +0.000 C 
ATOM     27  C   UNL     1       5.522   6.012  15.386  0.00  0.00    +0.000 C 
ATOM     28  O   UNL     1       5.166   4.671  15.023  0.00  0.00    +0.000 OA
ATOM     29  C   UNL     1       5.221   3.853  16.206  0.00  0.00    +0.000 C 
ENDBRANCH   4  25
TORSDOF 4
ENDMDL
MODEL 7
REMARK VINA RESULT:      -8.2      2.407      4.567
REMARK  Name = 
REMARK  4 active torsions:
REMARK  status: ('A' for Active; 'I' for Inactive)
REMARK    1  A    between atoms: C_2  and  C_5
REMARK    2  A    between atoms: C_11  and  C_12
REMARK    3  A    between atoms: C_14  and  C_15
REMARK    4  A    between atoms: N_20  and  C_21
REMARK                            x       y       z     vdW  Elec       q    Type
REMARK                         _______ _______ _______ _____ _____    ______ ____
ROOT
ATOM      1  C   UNL     1       1.925   7.200  20.295  0.00  0.00    +0.000 A 
ATOM      2  C   UNL     1       1.890   5.895  20.846  0.00  0.00    +0.000 A 
ATOM      3  C   UNL     1       2.438   5.067  19.882  0.00  0.00    +0.000 A 
ATOM      4  N   UNL     1       2.983   5.918  18.946  0.00  0.00    +0.000 N 
ATOM      5  N   UNL     1       2.669   7.201  19.184  0.00  0.00    +0.000 NA
ENDROOT
BRANCH   1  12
ATOM      6  C   UNL     1      -0.948  11.411  19.768  0.00  0.00    +0.000 A 
ATOM      7  C   UNL     1      -1.167  12.321  20.797  0.00  0.00    +0.000 A 
ATOM      8  N   UNL     1      -0.533  11.868  21.917  0.00  0.00    +0.000 N 
ATOM      9  C   UNL     1       0.100  10.689  21.649  0.00  0.00    +0.000 A 
ATOM     10  N   UNL     1       0.813  10.000  22.552  0.00  0.00    +0.000 NA
ATOM     11  C   UNL     1       1.350   8.865  22.035  0.00  0.00    +0.000 A 
ATOM     12  C   UNL     1       1.215   8.403  20.722  0.00  0.00    +0.000 A 
ATOM     13  C   UNL     1       0.454   9.178  19.834  0.00  0.00    +0.000 A 
ATOM     14  C   UNL     1      -0.130  10.369  20.317  0.00  0.00    +0.000 A 
ATOM     15  H   UNL     1      -0.509  12.316  22.824  0.00  0.00    +0.000 HD
BRANCH   6  17
ATOM     16  F   UNL     1      -1.083  10.426  17.624  0.00  0.00    +0.000 F 
ATOM     17  C   UNL     1      -1.462  11.494  18.374  0.00  0.00    +0.000 C 
ATOM     18  F   UNL     1      -1.010  12.602  17.737  0.00  0.00    +0.000 F 
ATOM     19  F   UNL     1      -2.817  11.538  18.336  0.00  0.00    +0.000 F 
ENDBRANCH   6  17
ENDBRANCH   1  12
BRANCH   3  20
ATOM     20  C   UNL     1       2.331   3.577  19.696  0.00  0.00    +0.000 C 
ATOM     21  C   UNL     1       1.023   3.102  20.311  0.00  0.00    +0.000 C 
ATOM     22  C   UNL     1       1.397   2.875  21.764  0.00  0.00    +0.000 C 
ATOM     23  O   UNL     1       2.778   2.491  21.784  0.00  0.00    +0.000 OA
ATOM     24  C   UNL     1       3.342   2.750  20.486  0.00  0.00    +0.000 C 
ENDBRANCH   3  20
BRANCH   4  25
ATOM     25  C   UNL     1       3.725   5.588  17.734  0.00  0.00    +0.000 C 
ATOM     26  C   UNL     1       4.977   4.777  18.006  0.00  0.00    +0.000 C 
ATOM     27  C   UNL     1       6.028   5.844  18.227  0.00  0.00    +0.000 C 
ATOM     28  O   UNL     1       5.680   6.935  17.363  0.00  0.00    +0.000 OA
ATOM     29  C   UNL     1       4.287   6.814  17.022  0.00  0.00    +0.000 C 
ENDBRANCH   4  25
TORSDOF 4
ENDMDL
MODEL 8
REMARK VINA RESULT:      -7.9      2.475      2.999
REMARK  Name = 
REMARK  4 active torsions:
REMARK  status: ('A' for Active; 'I' for Inactive)
REMARK    1  A    between atoms: C_2  and  C_5
REMARK    2  A    between atoms: C_11  and  C_12
REMARK    3  A    between atoms: C_14  and  C_15
REMARK    4  A    between atoms: N_20  and  C_21
REMARK                            x       y       z     vdW  Elec       q    Type
REMARK                         _______ _______ _______ _____ _____    ______ ____
ROOT
ATOM      1  C   UNL     1       2.033   7.218  19.891  0.00  0.00    +0.000 A 
ATOM      2  C   UNL     1       2.981   7.164  18.839  0.00  0.00    +0.000 A 
ATOM      3  C   UNL     1       3.589   5.925  18.946  0.00  0.00    +0.000 A 
ATOM      4  N   UNL     1       2.827   5.230  19.860  0.00  0.00    +0.000 N 
ATOM      5  N   UNL     1       1.896   6.005  20.438  0.00  0.00    +0.000 NA
ENDROOT
BRANCH   1  12
ATOM      6  C   UNL     1      -0.816  11.477  19.828  0.00  0.00    +0.000 A 
ATOM      7  C   UNL     1      -1.023  12.276  20.948  0.00  0.00    +0.000 A 
ATOM      8  N   UNL     1      -0.384  11.705  22.010  0.00  0.00    +0.000 N 
ATOM      9  C   UNL     1       0.239  10.556  21.615  0.00  0.00    +0.000 A 
ATOM     10  N   UNL     1       0.954   9.773  22.436  0.00  0.00    +0.000 NA
ATOM     11  C   UNL     1       1.481   8.695  21.800  0.00  0.00    +0.000 A 
ATOM     12  C   UNL     1       1.334   8.374  20.447  0.00  0.00    +0.000 A 
ATOM     13  C   UNL     1       0.572   9.242  19.650  0.00  0.00    +0.000 A 
ATOM     14  C   UNL     1      -0.001  10.379  20.259  0.00  0.00    +0.000 A 
ATOM     15  H   UNL     1      -0.352  12.055  22.959  0.00  0.00    +0.000 HD
BRANCH   6  17
ATOM     16  F   UNL     1      -2.679  11.925  18.446  0.00  0.00    +0.000 F 
ATOM     17  C   UNL     1      -1.338  11.708  18.454  0.00  0.00    +0.000 C 
ATOM     18  F   UNL     1      -1.107  10.646  17.643  0.00  0.00    +0.000 F 
ATOM     19  F   UNL     1      -0.763  12.788  17.868  0.00  0.00    +0.000 F 
ENDBRANCH   6  17
ENDBRANCH   1  12
BRANCH   3  20
ATOM     20  C   UNL     1       4.899   5.427  18.398  0.00  0.00    +0.000 C 
ATOM     21  C   UNL     1       5.602   6.578  17.695  0.00  0.00    +0.000 C 
ATOM     22  C   UNL     1       5.019   6.526  16.296  0.00  0.00    +0.000 C 
ATOM     23  O   UNL     1       4.706   5.154  16.026  0.00  0.00    +0.000 OA
ATOM     24  C   UNL     1       4.786   4.417  17.259  0.00  0.00    +0.000 C 
ENDBRANCH   3  20
BRANCH   4  25
ATOM     25  C   UNL     1       2.985   3.855  20.322  0.00  0.00    +0.000 C 
ATOM     26  C   UNL     1       2.414   2.835  19.357  0.00  0.00    +0.000 C 
ATOM     27  C   UNL     1       0.975   2.707  19.814  0.00  0.00    +0.000 C 
ATOM     28  O   UNL     1       0.991   2.876  21.239  0.00  0.00    +0.000 OA
ATOM     29  C   UNL     1       2.205   3.560  21.599  0.00  0.00    +0.000 C 
ENDBRANCH   4  25
TORSDOF 4
ENDMDL
MODEL 9
REMARK VINA RESULT:      -7.9      2.488      4.623
REMARK  Name = 
REMARK  4 active torsions:
REMARK  status: ('A' for Active; 'I' for Inactive)
REMARK    1  A    between atoms: C_2  and  C_5
REMARK    2  A    between atoms: C_11  and  C_12
REMARK    3  A    between atoms: C_14  and  C_15
REMARK    4  A    between atoms: N_20  and  C_21
REMARK                            x       y       z     vdW  Elec       q    Type
REMARK                         _______ _______ _______ _____ _____    ______ ____
ROOT
ATOM      1  C   UNL     1       1.903   7.314  20.259  0.00  0.00    +0.000 A 
ATOM      2  C   UNL     1       1.833   5.982  20.738  0.00  0.00    +0.000 A 
ATOM      3  C   UNL     1       2.354   5.192  19.728  0.00  0.00    +0.000 A 
ATOM      4  N   UNL     1       2.920   6.078  18.838  0.00  0.00    +0.000 N 
ATOM      5  N   UNL     1       2.644   7.354  19.147  0.00  0.00    +0.000 NA
ENDROOT
BRANCH   1  12
ATOM      6  C   UNL     1      -0.192  11.984  20.006  0.00  0.00    +0.000 A 
ATOM      7  C   UNL     1      -0.622  12.691  21.124  0.00  0.00    +0.000 A 
ATOM      8  N   UNL     1      -0.421  11.916  22.229  0.00  0.00    +0.000 N 
ATOM      9  C   UNL     1       0.133  10.723  21.866  0.00  0.00    +0.000 A 
ATOM     10  N   UNL     1       0.450   9.750  22.734  0.00  0.00    +0.000 NA
ATOM     11  C   UNL     1       0.997   8.667  22.125  0.00  0.00    +0.000 A 
ATOM     12  C   UNL     1       1.229   8.511  20.754  0.00  0.00    +0.000 A 
ATOM     13  C   UNL     1       0.871   9.572  19.909  0.00  0.00    +0.000 A 
ATOM     14  C   UNL     1       0.297  10.725  20.487  0.00  0.00    +0.000 A 
ATOM     15  H   UNL     1      -0.634  12.160  23.188  0.00  0.00    +0.000 HD
BRANCH   6  17
ATOM     16  F   UNL     1      -0.777  13.675  18.463  0.00  0.00    +0.000 F 
ATOM     17  C   UNL     1      -0.234  12.436  18.590  0.00  0.00    +0.000 C 
ATOM     18  F   UNL     1      -0.973  11.603  17.816  0.00  0.00    +0.000 F 
ATOM     19  F   UNL     1       1.005  12.494  18.039  0.00  0.00    +0.000 F 
ENDBRANCH   6  17
ENDBRANCH   1  12
BRANCH   3  20
ATOM     20  C   UNL     1       2.204   3.719  19.463  0.00  0.00    +0.000 C 
ATOM     21  C   UNL     1       0.934   3.228  20.141  0.00  0.00    +0.000 C 
ATOM     22  C   UNL     1       1.404   2.907  21.547  0.00  0.00    +0.000 C 
ATOM     23  O   UNL     1       2.775   2.501  21.445  0.00  0.00    +0.000 OA
ATOM     24  C   UNL     1       3.251   2.829  20.128  0.00  0.00    +0.000 C 
ENDBRANCH   3  20
BRANCH   4  25
ATOM     25  C   UNL     1       3.649   5.793  17.606  0.00  0.00    +0.000 C 
ATOM     26  C   UNL     1       4.864   4.913  17.825  0.00  0.00    +0.000 C 
ATOM     27  C   UNL     1       5.960   5.917  18.112  0.00  0.00    +0.000 C 
ATOM     28  O   UNL     1       5.662   7.075  17.319  0.00  0.00    +0.000 OA
ATOM     29  C   UNL     1       4.265   7.037  16.974  0.00  0.00    +0.000 C 
ENDBRANCH   4  25
TORSDOF 4
ENDMDL
