MODEL 1
REMARK VINA RESULT:      -7.3      0.000      0.000
REMARK  Name = 
REMARK  14 active torsions:
REMARK  status: ('A' for Active; 'I' for Inactive)
REMARK    1  A    between atoms: C_1  and  C_2
REMARK    2  A    between atoms: C_2  and  O_3
REMARK    3  A    between atoms: O_3  and  C_4
REMARK    4  A    between atoms: C_7  and  C_8
REMARK    5  A    between atoms: C_8  and  C_9
REMARK    6  A    between atoms: C_9  and  N_10
REMARK    7  A    between atoms: C_11  and  C_13
REMARK    8  A    between atoms: C_13  and  C_14
REMARK    9  A    between atoms: C_14  and  S_15
REMARK   10  A    between atoms: S_15  and  C_18
REMARK   11  A    between atoms: C_21  and  C_22
REMARK   12  A    between atoms: C_26  and  O_27
REMARK   13  A    between atoms: O_27  and  C_28
REMARK   14  A    between atoms: C_28  and  C_29
REMARK                            x       y       z     vdW  Elec       q    Type
REMARK                         _______ _______ _______ _____ _____    ______ ____
ROOT
ATOM      1  N   UNL     1       7.515   7.353  17.246  0.00  0.00    +0.000 N 
ATOM      2  C   UNL     1       7.587   6.222  18.024  0.00  0.00    +0.000 C 
ATOM      3  O   UNL     1       7.786   6.245  19.237  0.00  0.00    +0.000 OA
ATOM      4  H   UNL     1       7.017   7.294  16.371  0.00  0.00    +0.000 HD
ENDROOT
BRANCH   1   5
ATOM      5  C   UNL     1       7.688   8.708  17.752  0.00  0.00    +0.000 C 
BRANCH   5   6
ATOM      6  C   UNL     1       8.930   8.987  18.608  0.00  0.00    +0.000 C 
BRANCH   6  10
ATOM      7  C   UNL     1       9.464  13.191  19.544  0.00  0.00    +0.000 A 
ATOM      8  C   UNL     1       9.380  12.738  18.220  0.00  0.00    +0.000 A 
ATOM      9  C   UNL     1       9.220  11.385  17.925  0.00  0.00    +0.000 A 
ATOM     10  C   UNL     1       9.145  10.441  18.947  0.00  0.00    +0.000 A 
ATOM     11  C   UNL     1       9.284  10.878  20.269  0.00  0.00    +0.000 A 
ATOM     12  C   UNL     1       9.469  12.237  20.577  0.00  0.00    +0.000 A 
BRANCH   7  13
ATOM     13  O   UNL     1       9.541  14.529  19.855  0.00  0.00    +0.000 OA
BRANCH  13  15
ATOM     14  C   UNL     1       9.006  16.844  19.405  0.00  0.00    +0.000 C 
ATOM     15  C   UNL     1       8.721  15.394  19.061  0.00  0.00    +0.000 C 
ENDBRANCH  13  15
ENDBRANCH   7  13
BRANCH  12  16
ATOM     16  O   UNL     1       9.587  12.455  21.926  0.00  0.00    +0.000 OA
BRANCH  16  17
ATOM     17  C   UNL     1       8.391  12.715  22.655  0.00  0.00    +0.000 C 
ATOM     18  C   UNL     1       8.265  11.653  23.739  0.00  0.00    +0.000 C 
ENDBRANCH  16  17
ENDBRANCH  12  16
ENDBRANCH   6  10
ENDBRANCH   5   6
ENDBRANCH   1   5
BRANCH   2  19
ATOM     19  C   UNL     1       7.347   4.906  17.313  0.00  0.00    +0.000 C 
BRANCH  19  20
ATOM     20  C   UNL     1       5.951   4.725  16.744  0.00  0.00    +0.000 C 
BRANCH  20  21
ATOM     21  S   UNL     1       4.824   4.178  18.006  0.00  0.00    +0.000 S 
ATOM     22  O   UNL     1       3.942   3.180  17.433  0.00  0.00    +0.000 OA
ATOM     23  O   UNL     1       5.597   3.897  19.201  0.00  0.00    +0.000 OA
BRANCH  21  24
ATOM     24  C   UNL     1       3.855   5.630  18.329  0.00  0.00    +0.000 A 
ATOM     25  C   UNL     1       3.890   6.694  17.424  0.00  0.00    +0.000 A 
ATOM     26  C   UNL     1       3.107   7.825  17.663  0.00  0.00    +0.000 A 
ATOM     27  C   UNL     1       2.287   7.895  18.799  0.00  0.00    +0.000 A 
ATOM     28  C   UNL     1       1.420   9.095  19.046  0.00  0.00    +0.000 C 
ATOM     29  C   UNL     1       2.262   6.816  19.695  0.00  0.00    +0.000 A 
ATOM     30  C   UNL     1       3.037   5.683  19.460  0.00  0.00    +0.000 A 
ENDBRANCH  21  24
ENDBRANCH  20  21
ENDBRANCH  19  20
ENDBRANCH   2  19
TORSDOF 11
ENDMDL
MODEL 2
REMARK VINA RESULT:      -7.3      1.702      3.125
REMARK  Name = 
REMARK  14 active torsions:
REMARK  status: ('A' for Active; 'I' for Inactive)
REMARK    1  A    between atoms: C_1  and  C_2
REMARK    2  A    between atoms: C_2  and  O_3
REMARK    3  A    between atoms: O_3  and  C_4
REMARK    4  A    between atoms: C_7  and  C_8
REMARK    5  A    between atoms: C_8  and  C_9
REMARK    6  A    between atoms: C_9  and  N_10
REMARK    7  A    between atoms: C_11  and  C_13
REMARK    8  A    between atoms: C_13  and  C_14
REMARK    9  A    between atoms: C_14  and  S_15
REMARK   10  A    between atoms: S_15  and  C_18
REMARK   11  A    between atoms: C_21  and  C_22
REMARK   12  A    between atoms: C_26  and  O_27
REMARK   13  A    between atoms: O_27  and  C_28
REMARK   14  A    between atoms: C_28  and  C_29
REMARK                            x       y       z     vdW  Elec       q    Type
REMARK                         _______ _______ _______ _____ _____    ______ ____
ROOT
ATOM      1  N   UNL     1       7.109   6.812  18.360  0.00  0.00    +0.000 N 
ATOM      2  C   UNL     1       7.143   5.512  18.804  0.00  0.00    +0.000 C 
ATOM      3  O   UNL     1       8.148   4.981  19.271  0.00  0.00    +0.000 OA
ATOM      4  H   UNL     1       6.214   7.277  18.327  0.00  0.00    +0.000 HD
ENDROOT
BRANCH   1   5
ATOM      5  C   UNL     1       8.256   7.709  18.365  0.00  0.00    +0.000 C 
BRANCH   5   6
ATOM      6  C   UNL     1       8.068   9.094  17.732  0.00  0.00    +0.000 C 
BRANCH   6  10
ATOM      7  C   UNL     1      10.206  12.257  19.798  0.00  0.00    +0.000 A 
ATOM      8  C   UNL     1       9.873  11.054  20.439  0.00  0.00    +0.000 A 
ATOM      9  C   UNL     1       9.177  10.046  19.773  0.00  0.00    +0.000 A 
ATOM     10  C   UNL     1       8.784  10.213  18.446  0.00  0.00    +0.000 A 
ATOM     11  C   UNL     1       9.063  11.432  17.818  0.00  0.00    +0.000 A 
ATOM     12  C   UNL     1       9.744  12.464  18.486  0.00  0.00    +0.000 A 
BRANCH   7  13
ATOM     13  O   UNL     1      10.962  13.228  20.413  0.00  0.00    +0.000 OA
BRANCH  13  15
ATOM     14  C   UNL     1       9.599  14.340  22.073  0.00  0.00    +0.000 C 
ATOM     15  C   UNL     1      10.271  14.445  20.717  0.00  0.00    +0.000 C 
ENDBRANCH  13  15
ENDBRANCH   7  13
BRANCH  12  16
ATOM     16  O   UNL     1       9.913  13.574  17.698  0.00  0.00    +0.000 OA
BRANCH  16  17
ATOM     17  C   UNL     1      11.140  13.690  16.983  0.00  0.00    +0.000 C 
ATOM     18  C   UNL     1      11.500  15.167  16.913  0.00  0.00    +0.000 C 
ENDBRANCH  16  17
ENDBRANCH  12  16
ENDBRANCH   6  10
ENDBRANCH   5   6
ENDBRANCH   1   5
BRANCH   2  19
ATOM     19  C   UNL     1       5.833   4.752  18.745  0.00  0.00    +0.000 C 
BRANCH  19  20
ATOM     20  C   UNL     1       4.621   5.514  19.250  0.00  0.00    +0.000 C 
BRANCH  20  21
ATOM     21  S   UNL     1       3.571   5.992  17.897  0.00  0.00    +0.000 S 
ATOM     22  O   UNL     1       4.395   6.600  16.869  0.00  0.00    +0.000 OA
ATOM     23  O   UNL     1       2.698   4.874  17.594  0.00  0.00    +0.000 OA
BRANCH  21  24
ATOM     24  C   UNL     1       2.567   7.272  18.607  0.00  0.00    +0.000 A 
ATOM     25  C   UNL     1       2.195   7.187  19.951  0.00  0.00    +0.000 A 
ATOM     26  C   UNL     1       1.429   8.207  20.517  0.00  0.00    +0.000 A 
ATOM     27  C   UNL     1       1.035   9.313  19.749  0.00  0.00    +0.000 A 
ATOM     28  C   UNL     1       0.237  10.426  20.359  0.00  0.00    +0.000 C 
ATOM     29  C   UNL     1       1.421   9.383  18.401  0.00  0.00    +0.000 A 
ATOM     30  C   UNL     1       2.189   8.371  17.831  0.00  0.00    +0.000 A 
ENDBRANCH  21  24
ENDBRANCH  20  21
ENDBRANCH  19  20
ENDBRANCH   2  19
TORSDOF 11
ENDMDL
MODEL 3
REMARK VINA RESULT:      -7.3      5.417      7.782
REMARK  Name = 
REMARK  14 active torsions:
REMARK  status: ('A' for Active; 'I' for Inactive)
REMARK    1  A    between atoms: C_1  and  C_2
REMARK    2  A    between atoms: C_2  and  O_3
REMARK    3  A    between atoms: O_3  and  C_4
REMARK    4  A    between atoms: C_7  and  C_8
REMARK    5  A    between atoms: C_8  and  C_9
REMARK    6  A    between atoms: C_9  and  N_10
REMARK    7  A    between atoms: C_11  and  C_13
REMARK    8  A    between atoms: C_13  and  C_14
REMARK    9  A    between atoms: C_14  and  S_15
REMARK   10  A    between atoms: S_15  and  C_18
REMARK   11  A    between atoms: C_21  and  C_22
REMARK   12  A    between atoms: C_26  and  O_27
REMARK   13  A    between atoms: O_27  and  C_28
REMARK   14  A    between atoms: C_28  and  C_29
REMARK                            x       y       z     vdW  Elec       q    Type
REMARK                         _______ _______ _______ _____ _____    ______ ____
ROOT
ATOM      1  N   UNL     1       2.233   6.225  18.386  0.00  0.00    +0.000 N 
ATOM      2  C   UNL     1       1.959   5.545  19.548  0.00  0.00    +0.000 C 
ATOM      3  O   UNL     1       2.085   6.037  20.667  0.00  0.00    +0.000 OA
ATOM      4  H   UNL     1       1.789   5.909  17.537  0.00  0.00    +0.000 HD
ENDROOT
BRANCH   1   5
ATOM      5  C   UNL     1       2.726   7.594  18.334  0.00  0.00    +0.000 C 
BRANCH   5   6
ATOM      6  C   UNL     1       1.802   8.653  17.718  0.00  0.00    +0.000 C 
BRANCH   6  10
ATOM      7  C   UNL     1      -0.648  10.788  20.596  0.00  0.00    +0.000 A 
ATOM      8  C   UNL     1       0.496  10.077  20.988  0.00  0.00    +0.000 A 
ATOM      9  C   UNL     1       1.272   9.384  20.061  0.00  0.00    +0.000 A 
ATOM     10  C   UNL     1       0.925   9.374  18.711  0.00  0.00    +0.000 A 
ATOM     11  C   UNL     1      -0.245  10.034  18.321  0.00  0.00    +0.000 A 
ATOM     12  C   UNL     1      -1.049  10.718  19.250  0.00  0.00    +0.000 A 
BRANCH   7  13
ATOM     13  O   UNL     1      -1.379  11.543  21.484  0.00  0.00    +0.000 OA
BRANCH  13  15
ATOM     14  C   UNL     1      -0.248  13.680  21.460  0.00  0.00    +0.000 C 
ATOM     15  C   UNL     1      -0.623  12.461  22.281  0.00  0.00    +0.000 C 
ENDBRANCH  13  15
ENDBRANCH   7  13
BRANCH  12  16
ATOM     16  O   UNL     1      -2.149  11.292  18.666  0.00  0.00    +0.000 OA
BRANCH  16  17
ATOM     17  C   UNL     1      -2.110  11.498  17.257  0.00  0.00    +0.000 C 
ATOM     18  C   UNL     1      -3.474  11.125  16.694  0.00  0.00    +0.000 C 
ENDBRANCH  16  17
ENDBRANCH  12  16
ENDBRANCH   6  10
ENDBRANCH   5   6
ENDBRANCH   1   5
BRANCH   2  19
ATOM     19  C   UNL     1       1.423   4.137  19.388  0.00  0.00    +0.000 C 
BRANCH  19  20
ATOM     20  C   UNL     1       2.411   3.029  19.706  0.00  0.00    +0.000 C 
BRANCH  20  21
ATOM     21  S   UNL     1       3.231   2.475  18.228  0.00  0.00    +0.000 S 
ATOM     22  O   UNL     1       3.908   1.226  18.519  0.00  0.00    +0.000 OA
ATOM     23  O   UNL     1       2.287   2.579  17.131  0.00  0.00    +0.000 OA
BRANCH  21  24
ATOM     24  C   UNL     1       4.476   3.715  17.976  0.00  0.00    +0.000 A 
ATOM     25  C   UNL     1       4.700   4.212  16.690  0.00  0.00    +0.000 A 
ATOM     26  C   UNL     1       5.659   5.207  16.495  0.00  0.00    +0.000 A 
ATOM     27  C   UNL     1       6.393   5.710  17.579  0.00  0.00    +0.000 A 
ATOM     28  C   UNL     1       7.405   6.799  17.381  0.00  0.00    +0.000 C 
ATOM     29  C   UNL     1       6.153   5.201  18.865  0.00  0.00    +0.000 A 
ATOM     30  C   UNL     1       5.194   4.212  19.067  0.00  0.00    +0.000 A 
ENDBRANCH  21  24
ENDBRANCH  20  21
ENDBRANCH  19  20
ENDBRANCH   2  19
TORSDOF 11
ENDMDL
MODEL 4
REMARK VINA RESULT:      -7.2      4.687      6.896
REMARK  Name = 
REMARK  14 active torsions:
REMARK  status: ('A' for Active; 'I' for Inactive)
REMARK    1  A    between atoms: C_1  and  C_2
REMARK    2  A    between atoms: C_2  and  O_3
REMARK    3  A    between atoms: O_3  and  C_4
REMARK    4  A    between atoms: C_7  and  C_8
REMARK    5  A    between atoms: C_8  and  C_9
REMARK    6  A    between atoms: C_9  and  N_10
REMARK    7  A    between atoms: C_11  and  C_13
REMARK    8  A    between atoms: C_13  and  C_14
REMARK    9  A    between atoms: C_14  and  S_15
REMARK   10  A    between atoms: S_15  and  C_18
REMARK   11  A    between atoms: C_21  and  C_22
REMARK   12  A    between atoms: C_26  and  O_27
REMARK   13  A    between atoms: O_27  and  C_28
REMARK   14  A    between atoms: C_28  and  C_29
REMARK                            x       y       z     vdW  Elec       q    Type
REMARK                         _______ _______ _______ _____ _____    ______ ____
ROOT
ATOM      1  N   UNL     1       2.222   6.148  18.450  0.00  0.00    +0.000 N 
ATOM      2  C   UNL     1       1.931   5.492  19.622  0.00  0.00    +0.000 C 
ATOM      3  O   UNL     1       2.026   6.012  20.731  0.00  0.00    +0.000 OA
ATOM      4  H   UNL     1       1.800   5.806  17.600  0.00  0.00    +0.000 HD
ENDROOT
BRANCH   1   5
ATOM      5  C   UNL     1       2.699   7.522  18.376  0.00  0.00    +0.000 C 
BRANCH   5   6
ATOM      6  C   UNL     1       1.717   8.581  17.858  0.00  0.00    +0.000 C 
BRANCH   6  10
ATOM      7  C   UNL     1       0.691  11.574  20.830  0.00  0.00    +0.000 A 
ATOM      8  C   UNL     1       0.474  10.207  21.058  0.00  0.00    +0.000 A 
ATOM      9  C   UNL     1       0.795   9.251  20.095  0.00  0.00    +0.000 A 
ATOM     10  C   UNL     1       1.338   9.634  18.870  0.00  0.00    +0.000 A 
ATOM     11  C   UNL     1       1.505  10.999  18.613  0.00  0.00    +0.000 A 
ATOM     12  C   UNL     1       1.163  11.974  19.567  0.00  0.00    +0.000 A 
BRANCH   7  13
ATOM     13  O   UNL     1       0.455  12.523  21.798  0.00  0.00    +0.000 OA
BRANCH  13  15
ATOM     14  C   UNL     1      -1.896  13.017  21.518  0.00  0.00    +0.000 C 
ATOM     15  C   UNL     1      -0.827  12.449  22.432  0.00  0.00    +0.000 C 
ENDBRANCH  13  15
ENDBRANCH   7  13
BRANCH  12  16
ATOM     16  O   UNL     1       1.399  13.248  19.119  0.00  0.00    +0.000 OA
BRANCH  16  17
ATOM     17  C   UNL     1       2.478  13.433  18.208  0.00  0.00    +0.000 C 
ATOM     18  C   UNL     1       2.789  14.922  18.149  0.00  0.00    +0.000 C 
ENDBRANCH  16  17
ENDBRANCH  12  16
ENDBRANCH   6  10
ENDBRANCH   5   6
ENDBRANCH   1   5
BRANCH   2  19
ATOM     19  C   UNL     1       1.416   4.074  19.484  0.00  0.00    +0.000 C 
BRANCH  19  20
ATOM     20  C   UNL     1       2.479   2.992  19.549  0.00  0.00    +0.000 C 
BRANCH  20  21
ATOM     21  S   UNL     1       3.192   2.715  17.944  0.00  0.00    +0.000 S 
ATOM     22  O   UNL     1       3.800   1.398  17.932  0.00  0.00    +0.000 OA
ATOM     23  O   UNL     1       2.207   3.094  16.948  0.00  0.00    +0.000 OA
BRANCH  21  24
ATOM     24  C   UNL     1       4.501   3.912  17.878  0.00  0.00    +0.000 A 
ATOM     25  C   UNL     1       4.784   4.555  16.670  0.00  0.00    +0.000 A 
ATOM     26  C   UNL     1       5.794   5.517  16.624  0.00  0.00    +0.000 A 
ATOM     27  C   UNL     1       6.521   5.842  17.779  0.00  0.00    +0.000 A 
ATOM     28  C   UNL     1       7.588   6.895  17.743  0.00  0.00    +0.000 C 
ATOM     29  C   UNL     1       6.221   5.188  18.985  0.00  0.00    +0.000 A 
ATOM     30  C   UNL     1       5.211   4.231  19.038  0.00  0.00    +0.000 A 
ENDBRANCH  21  24
ENDBRANCH  20  21
ENDBRANCH  19  20
ENDBRANCH   2  19
TORSDOF 11
ENDMDL
MODEL 5
REMARK VINA RESULT:      -7.2      1.321      1.428
REMARK  Name = 
REMARK  14 active torsions:
REMARK  status: ('A' for Active; 'I' for Inactive)
REMARK    1  A    between atoms: C_1  and  C_2
REMARK    2  A    between atoms: C_2  and  O_3
REMARK    3  A    between atoms: O_3  and  C_4
REMARK    4  A    between atoms: C_7  and  C_8
REMARK    5  A    between atoms: C_8  and  C_9
REMARK    6  A    between atoms: C_9  and  N_10
REMARK    7  A    between atoms: C_11  and  C_13
REMARK    8  A    between atoms: C_13  and  C_14
REMARK    9  A    between atoms: C_14  and  S_15
REMARK   10  A    between atoms: S_15  and  C_18
REMARK   11  A    between atoms: C_21  and  C_22
REMARK   12  A    between atoms: C_26  and  O_27
REMARK   13  A    between atoms: O_27  and  C_28
REMARK   14  A    between atoms: C_28  and  C_29
REMARK                            x       y       z     vdW  Elec       q    Type
REMARK                         _______ _______ _______ _____ _____    ______ ____
ROOT
ATOM      1  N   UNL     1       7.780   6.583  17.953  0.00  0.00    +0.000 N 
ATOM      2  C   UNL     1       7.042   5.595  18.558  0.00  0.00    +0.000 C 
ATOM      3  O   UNL     1       6.776   5.585  19.758  0.00  0.00    +0.000 OA
ATOM      4  H   UNL     1       7.663   6.719  16.960  0.00  0.00    +0.000 HD
ENDROOT
BRANCH   1   5
ATOM      5  C   UNL     1       8.355   7.722  18.654  0.00  0.00    +0.000 C 
BRANCH   5   6
ATOM      6  C   UNL     1       8.141   9.110  18.037  0.00  0.00    +0.000 C 
BRANCH   6  10
ATOM      7  C   UNL     1      10.741  12.259  19.509  0.00  0.00    +0.000 A 
ATOM      8  C   UNL     1      10.781  11.839  18.172  0.00  0.00    +0.000 A 
ATOM      9  C   UNL     1       9.951  10.819  17.707  0.00  0.00    +0.000 A 
ATOM     10  C   UNL     1       9.060  10.183  18.569  0.00  0.00    +0.000 A 
ATOM     11  C   UNL     1       9.054  10.557  19.917  0.00  0.00    +0.000 A 
ATOM     12  C   UNL     1       9.902  11.568  20.402  0.00  0.00    +0.000 A 
BRANCH   7  13
ATOM     13  O   UNL     1      11.495  13.316  19.966  0.00  0.00    +0.000 OA
BRANCH  13  15
ATOM     14  C   UNL     1      11.828  15.692  20.266  0.00  0.00    +0.000 C 
ATOM     15  C   UNL     1      10.832  14.585  19.976  0.00  0.00    +0.000 C 
ENDBRANCH  13  15
ENDBRANCH   7  13
BRANCH  12  16
ATOM     16  O   UNL     1       9.746  11.780  21.747  0.00  0.00    +0.000 OA
BRANCH  16  17
ATOM     17  C   UNL     1       8.505  12.327  22.185  0.00  0.00    +0.000 C 
ATOM     18  C   UNL     1       8.152  11.678  23.515  0.00  0.00    +0.000 C 
ENDBRANCH  16  17
ENDBRANCH  12  16
ENDBRANCH   6  10
ENDBRANCH   5   6
ENDBRANCH   1   5
BRANCH   2  19
ATOM     19  C   UNL     1       6.503   4.510  17.647  0.00  0.00    +0.000 C 
BRANCH  19  20
ATOM     20  C   UNL     1       5.096   4.743  17.128  0.00  0.00    +0.000 C 
BRANCH  20  21
ATOM     21  S   UNL     1       3.906   3.880  18.129  0.00  0.00    +0.000 S 
ATOM     22  O   UNL     1       2.935   3.255  17.252  0.00  0.00    +0.000 OA
ATOM     23  O   UNL     1       4.635   3.103  19.115  0.00  0.00    +0.000 OA
BRANCH  21  24
ATOM     24  C   UNL     1       3.084   5.195  18.993  0.00  0.00    +0.000 A 
ATOM     25  C   UNL     1       3.085   6.481  18.446  0.00  0.00    +0.000 A 
ATOM     26  C   UNL     1       2.415   7.510  19.110  0.00  0.00    +0.000 A 
ATOM     27  C   UNL     1       1.742   7.259  20.315  0.00  0.00    +0.000 A 
ATOM     28  C   UNL     1       0.995   8.354  21.019  0.00  0.00    +0.000 C 
ATOM     29  C   UNL     1       1.749   5.961  20.848  0.00  0.00    +0.000 A 
ATOM     30  C   UNL     1       2.411   4.929  20.188  0.00  0.00    +0.000 A 
ENDBRANCH  21  24
ENDBRANCH  20  21
ENDBRANCH  19  20
ENDBRANCH   2  19
TORSDOF 11
ENDMDL
MODEL 6
REMARK VINA RESULT:      -7.0      5.414      8.478
REMARK  Name = 
REMARK  14 active torsions:
REMARK  status: ('A' for Active; 'I' for Inactive)
REMARK    1  A    between atoms: C_1  and  C_2
REMARK    2  A    between atoms: C_2  and  O_3
REMARK    3  A    between atoms: O_3  and  C_4
REMARK    4  A    between atoms: C_7  and  C_8
REMARK    5  A    between atoms: C_8  and  C_9
REMARK    6  A    between atoms: C_9  and  N_10
REMARK    7  A    between atoms: C_11  and  C_13
REMARK    8  A    between atoms: C_13  and  C_14
REMARK    9  A    between atoms: C_14  and  S_15
REMARK   10  A    between atoms: S_15  and  C_18
REMARK   11  A    between atoms: C_21  and  C_22
REMARK   12  A    between atoms: C_26  and  O_27
REMARK   13  A    between atoms: O_27  and  C_28
REMARK   14  A    between atoms: C_28  and  C_29
REMARK                            x       y       z     vdW  Elec       q    Type
REMARK                         _______ _______ _______ _____ _____    ______ ____
ROOT
ATOM      1  N   UNL     1       2.362   6.864  20.553  0.00  0.00    +0.000 N 
ATOM      2  C   UNL     1       1.976   5.546  20.528  0.00  0.00    +0.000 C 
ATOM      3  O   UNL     1       0.804   5.180  20.584  0.00  0.00    +0.000 OA
ATOM      4  H   UNL     1       3.260   7.102  20.160  0.00  0.00    +0.000 HD
ENDROOT
BRANCH   1   5
ATOM      5  C   UNL     1       1.440   7.985  20.672  0.00  0.00    +0.000 C 
BRANCH   5   6
ATOM      6  C   UNL     1       1.249   8.874  19.436  0.00  0.00    +0.000 C 
BRANCH   6  10
ATOM      7  C   UNL     1      -1.656  12.059  19.944  0.00  0.00    +0.000 A 
ATOM      8  C   UNL     1      -1.040  11.444  21.044  0.00  0.00    +0.000 A 
ATOM      9  C   UNL     1      -0.116  10.414  20.875  0.00  0.00    +0.000 A 
ATOM     10  C   UNL     1       0.216   9.961  19.599  0.00  0.00    +0.000 A 
ATOM     11  C   UNL     1      -0.436  10.531  18.500  0.00  0.00    +0.000 A 
ATOM     12  C   UNL     1      -1.386  11.555  18.659  0.00  0.00    +0.000 A 
BRANCH   7  13
ATOM     13  O   UNL     1      -2.508  13.130  20.088  0.00  0.00    +0.000 OA
BRANCH  13  15
ATOM     14  C   UNL     1      -4.850  12.531  20.172  0.00  0.00    +0.000 C 
ATOM     15  C   UNL     1      -3.618  12.919  20.968  0.00  0.00    +0.000 C 
ENDBRANCH  13  15
ENDBRANCH   7  13
BRANCH  12  16
ATOM     16  O   UNL     1      -1.910  11.972  17.462  0.00  0.00    +0.000 OA
BRANCH  16  17
ATOM     17  C   UNL     1      -2.524  10.987  16.637  0.00  0.00    +0.000 C 
ATOM     18  C   UNL     1      -4.027  11.059  16.864  0.00  0.00    +0.000 C 
ENDBRANCH  16  17
ENDBRANCH  12  16
ENDBRANCH   6  10
ENDBRANCH   5   6
ENDBRANCH   1   5
BRANCH   2  19
ATOM     19  C   UNL     1       3.087   4.528  20.366  0.00  0.00    +0.000 C 
BRANCH  19  20
ATOM     20  C   UNL     1       2.670   3.212  19.732  0.00  0.00    +0.000 C 
BRANCH  20  21
ATOM     21  S   UNL     1       2.967   3.237  17.979  0.00  0.00    +0.000 S 
ATOM     22  O   UNL     1       3.487   1.943  17.583  0.00  0.00    +0.000 OA
ATOM     23  O   UNL     1       1.795   3.803  17.338  0.00  0.00    +0.000 OA
BRANCH  21  24
ATOM     24  C   UNL     1       4.283   4.418  17.816  0.00  0.00    +0.000 A 
ATOM     25  C   UNL     1       4.003   5.694  17.321  0.00  0.00    +0.000 A 
ATOM     26  C   UNL     1       5.032   6.632  17.219  0.00  0.00    +0.000 A 
ATOM     27  C   UNL     1       6.337   6.302  17.612  0.00  0.00    +0.000 A 
ATOM     28  C   UNL     1       7.441   7.314  17.532  0.00  0.00    +0.000 C 
ATOM     29  C   UNL     1       6.600   5.016  18.110  0.00  0.00    +0.000 A 
ATOM     30  C   UNL     1       5.577   4.078  18.219  0.00  0.00    +0.000 A 
ENDBRANCH  21  24
ENDBRANCH  20  21
ENDBRANCH  19  20
ENDBRANCH   2  19
TORSDOF 11
ENDMDL
MODEL 7
REMARK VINA RESULT:      -7.0      5.481      9.367
REMARK  Name = 
REMARK  14 active torsions:
REMARK  status: ('A' for Active; 'I' for Inactive)
REMARK    1  A    between atoms: C_1  and  C_2
REMARK    2  A    between atoms: C_2  and  O_3
REMARK    3  A    between atoms: O_3  and  C_4
REMARK    4  A    between atoms: C_7  and  C_8
REMARK    5  A    between atoms: C_8  and  C_9
REMARK    6  A    between atoms: C_9  and  N_10
REMARK    7  A    between atoms: C_11  and  C_13
REMARK    8  A    between atoms: C_13  and  C_14
REMARK    9  A    between atoms: C_14  and  S_15
REMARK   10  A    between atoms: S_15  and  C_18
REMARK   11  A    between atoms: C_21  and  C_22
REMARK   12  A    between atoms: C_26  and  O_27
REMARK   13  A    between atoms: O_27  and  C_28
REMARK   14  A    between atoms: C_28  and  C_29
REMARK                            x       y       z     vdW  Elec       q    Type
REMARK                         _______ _______ _______ _____ _____    ______ ____
ROOT
ATOM      1  N   UNL     1       1.560   9.003  19.334  0.00  0.00    +0.000 N 
ATOM      2  C   UNL     1       0.406   9.726  19.154  0.00  0.00    +0.000 C 
ATOM      3  O   UNL     1      -0.129   9.888  18.060  0.00  0.00    +0.000 OA
ATOM      4  H   UNL     1       1.741   8.621  20.250  0.00  0.00    +0.000 HD
ENDROOT
BRANCH   1   5
ATOM      5  C   UNL     1       2.303   8.363  18.257  0.00  0.00    +0.000 C 
BRANCH   5   6
ATOM      6  C   UNL     1       2.237   6.833  18.168  0.00  0.00    +0.000 C 
BRANCH   6  10
ATOM      7  C   UNL     1       5.790   4.921  16.569  0.00  0.00    +0.000 A 
ATOM      8  C   UNL     1       4.671   4.176  16.967  0.00  0.00    +0.000 A 
ATOM      9  C   UNL     1       3.536   4.795  17.490  0.00  0.00    +0.000 A 
ATOM     10  C   UNL     1       3.489   6.180  17.639  0.00  0.00    +0.000 A 
ATOM     11  C   UNL     1       4.622   6.925  17.297  0.00  0.00    +0.000 A 
ATOM     12  C   UNL     1       5.781   6.309  16.789  0.00  0.00    +0.000 A 
BRANCH   7  13
ATOM     13  O   UNL     1       6.885   4.335  15.977  0.00  0.00    +0.000 OA
BRANCH  13  15
ATOM     14  C   UNL     1       5.930   3.904  13.797  0.00  0.00    +0.000 C 
ATOM     15  C   UNL     1       7.038   4.589  14.576  0.00  0.00    +0.000 C 
ENDBRANCH  13  15
ENDBRANCH   7  13
BRANCH  12  16
ATOM     16  O   UNL     1       6.777   7.213  16.522  0.00  0.00    +0.000 OA
BRANCH  16  17
ATOM     17  C   UNL     1       7.325   7.929  17.625  0.00  0.00    +0.000 C 
ATOM     18  C   UNL     1       8.045   6.930  18.520  0.00  0.00    +0.000 C 
ENDBRANCH  16  17
ENDBRANCH  12  16
ENDBRANCH   6  10
ENDBRANCH   5   6
ENDBRANCH   1   5
BRANCH   2  19
ATOM     19  C   UNL     1      -0.234  10.286  20.408  0.00  0.00    +0.000 C 
BRANCH  19  20
ATOM     20  C   UNL     1      -0.141  11.793  20.563  0.00  0.00    +0.000 C 
BRANCH  20  21
ATOM     21  S   UNL     1      -0.588  12.284  22.212  0.00  0.00    +0.000 S 
ATOM     22  O   UNL     1      -0.421  11.144  23.092  0.00  0.00    +0.000 OA
ATOM     23  O   UNL     1       0.067  13.549  22.493  0.00  0.00    +0.000 OA
BRANCH  21  24
ATOM     24  C   UNL     1      -2.328  12.607  22.074  0.00  0.00    +0.000 A 
ATOM     25  C   UNL     1      -2.882  12.856  20.815  0.00  0.00    +0.000 A 
ATOM     26  C   UNL     1      -4.254  13.081  20.701  0.00  0.00    +0.000 A 
ATOM     27  C   UNL     1      -5.076  13.056  21.838  0.00  0.00    +0.000 A 
ATOM     28  C   UNL     1      -6.557  13.269  21.719  0.00  0.00    +0.000 C 
ATOM     29  C   UNL     1      -4.503  12.802  23.094  0.00  0.00    +0.000 A 
ATOM     30  C   UNL     1      -3.135  12.571  23.213  0.00  0.00    +0.000 A 
ENDBRANCH  21  24
ENDBRANCH  20  21
ENDBRANCH  19  20
ENDBRANCH   2  19
TORSDOF 11
ENDMDL
MODEL 8
REMARK VINA RESULT:      -6.9      1.182      1.371
REMARK  Name = 
REMARK  14 active torsions:
REMARK  status: ('A' for Active; 'I' for Inactive)
REMARK    1  A    between atoms: C_1  and  C_2
REMARK    2  A    between atoms: C_2  and  O_3
REMARK    3  A    between atoms: O_3  and  C_4
REMARK    4  A    between atoms: C_7  and  C_8
REMARK    5  A    between atoms: C_8  and  C_9
REMARK    6  A    between atoms: C_9  and  N_10
REMARK    7  A    between atoms: C_11  and  C_13
REMARK    8  A    between atoms: C_13  and  C_14
REMARK    9  A    between atoms: C_14  and  S_15
REMARK   10  A    between atoms: S_15  and  C_18
REMARK   11  A    between atoms: C_21  and  C_22
REMARK   12  A    between atoms: C_26  and  O_27
REMARK   13  A    between atoms: O_27  and  C_28
REMARK   14  A    between atoms: C_28  and  C_29
REMARK                            x       y       z     vdW  Elec       q    Type
REMARK                         _______ _______ _______ _____ _____    ______ ____
ROOT
ATOM      1  N   UNL     1       7.489   6.770  17.560  0.00  0.00    +0.000 N 
ATOM      2  C   UNL     1       6.429   6.336  16.802  0.00  0.00    +0.000 C 
ATOM      3  O   UNL     1       5.758   7.076  16.087  0.00  0.00    +0.000 OA
ATOM      4  H   UNL     1       8.188   6.094  17.828  0.00  0.00    +0.000 HD
ENDROOT
BRANCH   1   5
ATOM      5  C   UNL     1       7.932   8.156  17.632  0.00  0.00    +0.000 C 
BRANCH   5   6
ATOM      6  C   UNL     1       8.705   8.584  18.886  0.00  0.00    +0.000 C 
BRANCH   6  10
ATOM      7  C   UNL     1       9.570  12.835  19.032  0.00  0.00    +0.000 A 
ATOM      8  C   UNL     1       9.277  12.186  17.824  0.00  0.00    +0.000 A 
ATOM      9  C   UNL     1       9.011  10.818  17.782  0.00  0.00    +0.000 A 
ATOM     10  C   UNL     1       9.036  10.055  18.948  0.00  0.00    +0.000 A 
ATOM     11  C   UNL     1       9.383  10.684  20.148  0.00  0.00    +0.000 A 
ATOM     12  C   UNL     1       9.675  12.058  20.199  0.00  0.00    +0.000 A 
BRANCH   7  13
ATOM     13  O   UNL     1       9.756  14.197  19.104  0.00  0.00    +0.000 OA
BRANCH  13  15
ATOM     14  C   UNL     1       7.414  14.557  18.620  0.00  0.00    +0.000 C 
ATOM     15  C   UNL     1       8.601  14.957  19.476  0.00  0.00    +0.000 C 
ENDBRANCH  13  15
ENDBRANCH   7  13
BRANCH  12  16
ATOM     16  O   UNL     1       9.995  12.477  21.466  0.00  0.00    +0.000 OA
BRANCH  16  17
ATOM     17  C   UNL     1       8.955  12.469  22.440  0.00  0.00    +0.000 C 
ATOM     18  C   UNL     1       8.764  13.897  22.929  0.00  0.00    +0.000 C 
ENDBRANCH  16  17
ENDBRANCH  12  16
ENDBRANCH   6  10
ENDBRANCH   5   6
ENDBRANCH   1   5
BRANCH   2  19
ATOM     19  C   UNL     1       6.148   4.847  16.838  0.00  0.00    +0.000 C 
BRANCH  19  20
ATOM     20  C   UNL     1       4.682   4.464  16.733  0.00  0.00    +0.000 C 
BRANCH  20  21
ATOM     21  S   UNL     1       4.091   3.812  18.278  0.00  0.00    +0.000 S 
ATOM     22  O   UNL     1       3.106   2.785  17.996  0.00  0.00    +0.000 OA
ATOM     23  O   UNL     1       5.244   3.535  19.114  0.00  0.00    +0.000 OA
BRANCH  21  24
ATOM     24  C   UNL     1       3.237   5.194  18.992  0.00  0.00    +0.000 A 
ATOM     25  C   UNL     1       3.190   6.406  18.298  0.00  0.00    +0.000 A 
ATOM     26  C   UNL     1       2.495   7.485  18.846  0.00  0.00    +0.000 A 
ATOM     27  C   UNL     1       1.844   7.359  20.082  0.00  0.00    +0.000 A 
ATOM     28  C   UNL     1       1.071   8.505  20.663  0.00  0.00    +0.000 C 
ATOM     29  C   UNL     1       1.899   6.133  20.764  0.00  0.00    +0.000 A 
ATOM     30  C   UNL     1       2.587   5.051  20.220  0.00  0.00    +0.000 A 
ENDBRANCH  21  24
ENDBRANCH  20  21
ENDBRANCH  19  20
ENDBRANCH   2  19
TORSDOF 11
ENDMDL
MODEL 9
REMARK VINA RESULT:      -6.9      4.613      7.774
REMARK  Name = 
REMARK  14 active torsions:
REMARK  status: ('A' for Active; 'I' for Inactive)
REMARK    1  A    between atoms: C_1  and  C_2
REMARK    2  A    between atoms: C_2  and  O_3
REMARK    3  A    between atoms: O_3  and  C_4
REMARK    4  A    between atoms: C_7  and  C_8
REMARK    5  A    between atoms: C_8  and  C_9
REMARK    6  A    between atoms: C_9  and  N_10
REMARK    7  A    between atoms: C_11  and  C_13
REMARK    8  A    between atoms: C_13  and  C_14
REMARK    9  A    between atoms: C_14  and  S_15
REMARK   10  A    between atoms: S_15  and  C_18
REMARK   11  A    between atoms: C_21  and  C_22
REMARK   12  A    between atoms: C_26  and  O_27
REMARK   13  A    between atoms: O_27  and  C_28
REMARK   14  A    between atoms: C_28  and  C_29
REMARK                            x       y       z     vdW  Elec       q    Type
REMARK                         _______ _______ _______ _____ _____    ______ ____
ROOT
ATOM      1  N   UNL     1       3.175   5.665  19.470  0.00  0.00    +0.000 N 
ATOM      2  C   UNL     1       2.307   5.995  18.458  0.00  0.00    +0.000 C 
ATOM      3  O   UNL     1       1.530   5.194  17.942  0.00  0.00    +0.000 OA
ATOM      4  H   UNL     1       3.510   6.406  20.067  0.00  0.00    +0.000 HD
ENDROOT
BRANCH   1   5
ATOM      5  C   UNL     1       3.302   4.329  20.037  0.00  0.00    +0.000 C 
BRANCH   5   6
ATOM      6  C   UNL     1       4.079   3.288  19.221  0.00  0.00    +0.000 C 
BRANCH   6  10
ATOM      7  C   UNL     1       6.296   4.984  15.897  0.00  0.00    +0.000 A 
ATOM      8  C   UNL     1       5.111   4.261  15.697  0.00  0.00    +0.000 A 
ATOM      9  C   UNL     1       4.409   3.709  16.768  0.00  0.00    +0.000 A 
ATOM     10  C   UNL     1       4.875   3.858  18.073  0.00  0.00    +0.000 A 
ATOM     11  C   UNL     1       6.086   4.528  18.275  0.00  0.00    +0.000 A 
ATOM     12  C   UNL     1       6.815   5.069  17.201  0.00  0.00    +0.000 A 
BRANCH   7  13
ATOM     13  O   UNL     1       6.958   5.603  14.861  0.00  0.00    +0.000 OA
BRANCH  13  15
ATOM     14  C   UNL     1       8.096   5.515  12.729  0.00  0.00    +0.000 C 
ATOM     15  C   UNL     1       7.186   4.791  13.704  0.00  0.00    +0.000 C 
ENDBRANCH  13  15
ENDBRANCH   7  13
BRANCH  12  16
ATOM     16  O   UNL     1       7.972   5.680  17.611  0.00  0.00    +0.000 OA
BRANCH  16  17
ATOM     17  C   UNL     1       7.848   6.806  18.475  0.00  0.00    +0.000 C 
ATOM     18  C   UNL     1       7.787   8.056  17.609  0.00  0.00    +0.000 C 
ENDBRANCH  16  17
ENDBRANCH  12  16
ENDBRANCH   6  10
ENDBRANCH   5   6
ENDBRANCH   1   5
BRANCH   2  19
ATOM     19  C   UNL     1       2.304   7.448  18.028  0.00  0.00    +0.000 C 
BRANCH  19  20
ATOM     20  C   UNL     1       2.002   8.447  19.132  0.00  0.00    +0.000 C 
BRANCH  20  21
ATOM     21  S   UNL     1       1.146   9.863  18.480  0.00  0.00    +0.000 S 
ATOM     22  O   UNL     1       2.129  10.859  18.100  0.00  0.00    +0.000 OA
ATOM     23  O   UNL     1       0.156   9.387  17.532  0.00  0.00    +0.000 OA
BRANCH  21  24
ATOM     24  C   UNL     1       0.271  10.484  19.894  0.00  0.00    +0.000 A 
ATOM     25  C   UNL     1      -0.662  11.511  19.728  0.00  0.00    +0.000 A 
ATOM     26  C   UNL     1      -1.371  11.980  20.835  0.00  0.00    +0.000 A 
ATOM     27  C   UNL     1      -1.155  11.427  22.106  0.00  0.00    +0.000 A 
ATOM     28  C   UNL     1      -1.935  11.906  23.294  0.00  0.00    +0.000 C 
ATOM     29  C   UNL     1      -0.216  10.394  22.253  0.00  0.00    +0.000 A 
ATOM     30  C   UNL     1       0.491   9.918  21.152  0.00  0.00    +0.000 A 
ENDBRANCH  21  24
ENDBRANCH  20  21
ENDBRANCH  19  20
ENDBRANCH   2  19
TORSDOF 11
ENDMDL
