MODEL 1
REMARK VINA RESULT:      -7.7      0.000      0.000
REMARK  Name = 
REMARK  3 active torsions:
REMARK  status: ('A' for Active; 'I' for Inactive)
REMARK    1  A    between atoms: C_1  and  O_2
REMARK    2  A    between atoms: O_2  and  C_3
REMARK    3  A    between atoms: C_13  and  C_14
REMARK                            x       y       z     vdW  Elec       q    Type
REMARK                         _______ _______ _______ _____ _____    ______ ____
ROOT
ATOM      1  C   UNL     1       0.224   9.949  20.790  0.00  0.00    +0.000 A 
ATOM      2  C   UNL     1       0.182   8.833  21.640  0.00  0.00    +0.000 A 
ATOM      3  C   UNL     1       0.863   7.647  21.323  0.00  0.00    +0.000 A 
ATOM      4  C   UNL     1       1.592   7.574  20.149  0.00  0.00    +0.000 A 
ATOM      5  C   UNL     1       1.612   8.696  19.310  0.00  0.00    +0.000 A 
ATOM      6  C   UNL     1       0.951   9.883  19.599  0.00  0.00    +0.000 A 
ATOM      7  C   UNL     1       2.467   8.372  18.147  0.00  0.00    +0.000 C 
ATOM      8  O   UNL     1       2.696   9.113  17.215  0.00  0.00    +0.000 OA
ATOM      9  C   UNL     1       2.983   6.992  18.367  0.00  0.00    +0.000 A 
ATOM     10  C   UNL     1       2.433   6.529  19.581  0.00  0.00    +0.000 A 
ATOM     11  C   UNL     1       2.812   5.269  19.997  0.00  0.00    +0.000 A 
ATOM     12  C   UNL     1       2.348   4.563  21.228  0.00  0.00    +0.000 C 
ATOM     13  N   UNL     1       3.709   4.537  19.284  0.00  0.00    +0.000 NA
ATOM     14  C   UNL     1       4.251   5.017  18.152  0.00  0.00    +0.000 A 
ATOM     15  C   UNL     1       5.219   4.248  17.523  0.00  0.00    +0.000 A 
ATOM     16  C   UNL     1       5.847   4.671  16.353  0.00  0.00    +0.000 A 
ATOM     17  C   UNL     1       5.478   5.879  15.774  0.00  0.00    +0.000 A 
ATOM     18  C   UNL     1       4.508   6.673  16.389  0.00  0.00    +0.000 A 
ATOM     19  C   UNL     1       3.903   6.261  17.601  0.00  0.00    +0.000 A 
ENDROOT
BRANCH   1  21
ATOM     20  C   UNL     1      -0.884  11.339  22.367  0.00  0.00    +0.000 C 
ATOM     21  O   UNL     1      -0.401  11.141  21.040  0.00  0.00    +0.000 OA
ENDBRANCH   1  21
TORSDOF 1
ENDMDL
MODEL 2
REMARK VINA RESULT:      -7.2      1.158      1.432
REMARK  Name = 
REMARK  3 active torsions:
REMARK  status: ('A' for Active; 'I' for Inactive)
REMARK    1  A    between atoms: C_1  and  O_2
REMARK    2  A    between atoms: O_2  and  C_3
REMARK    3  A    between atoms: C_13  and  C_14
REMARK                            x       y       z     vdW  Elec       q    Type
REMARK                         _______ _______ _______ _____ _____    ______ ____
ROOT
ATOM      1  C   UNL     1       0.980   8.624  20.764  0.00  0.00    +0.000 A 
ATOM      2  C   UNL     1       0.955   7.376  21.404  0.00  0.00    +0.000 A 
ATOM      3  C   UNL     1       1.610   6.261  20.859  0.00  0.00    +0.000 A 
ATOM      4  C   UNL     1       2.298   6.392  19.665  0.00  0.00    +0.000 A 
ATOM      5  C   UNL     1       2.303   7.645  19.037  0.00  0.00    +0.000 A 
ATOM      6  C   UNL     1       1.666   8.766  19.555  0.00  0.00    +0.000 A 
ATOM      7  C   UNL     1       3.114   7.528  17.806  0.00  0.00    +0.000 C 
ATOM      8  O   UNL     1       3.319   8.420  17.013  0.00  0.00    +0.000 OA
ATOM      9  C   UNL     1       3.621   6.127  17.760  0.00  0.00    +0.000 A 
ATOM     10  C   UNL     1       3.107   5.460  18.892  0.00  0.00    +0.000 A 
ATOM     11  C   UNL     1       3.485   4.144  19.065  0.00  0.00    +0.000 A 
ATOM     12  C   UNL     1       3.055   3.234  20.167  0.00  0.00    +0.000 C 
ATOM     13  N   UNL     1       4.349   3.545  18.202  0.00  0.00    +0.000 NA
ATOM     14  C   UNL     1       4.857   4.215  17.154  0.00  0.00    +0.000 A 
ATOM     15  C   UNL     1       5.794   3.564  16.365  0.00  0.00    +0.000 A 
ATOM     16  C   UNL     1       6.387   4.184  15.267  0.00  0.00    +0.000 A 
ATOM     17  C   UNL     1       6.013   5.477  14.924  0.00  0.00    +0.000 A 
ATOM     18  C   UNL     1       5.074   6.155  15.704  0.00  0.00    +0.000 A 
ATOM     19  C   UNL     1       4.505   5.538  16.845  0.00  0.00    +0.000 A 
ENDROOT
BRANCH   1  21
ATOM     20  C   UNL     1      -0.153   9.683  22.565  0.00  0.00    +0.000 C 
ATOM     21  O   UNL     1       0.379   9.756  21.243  0.00  0.00    +0.000 OA
ENDBRANCH   1  21
TORSDOF 1
ENDMDL
MODEL 3
REMARK VINA RESULT:      -7.2      3.848      5.329
REMARK  Name = 
REMARK  3 active torsions:
REMARK  status: ('A' for Active; 'I' for Inactive)
REMARK    1  A    between atoms: C_1  and  O_2
REMARK    2  A    between atoms: O_2  and  C_3
REMARK    3  A    between atoms: C_13  and  C_14
REMARK                            x       y       z     vdW  Elec       q    Type
REMARK                         _______ _______ _______ _____ _____    ______ ____
ROOT
ATOM      1  C   UNL     1       2.378   4.722  19.722  0.00  0.00    +0.000 A 
ATOM      2  C   UNL     1       3.423   5.573  20.112  0.00  0.00    +0.000 A 
ATOM      3  C   UNL     1       4.538   5.788  19.287  0.00  0.00    +0.000 A 
ATOM      4  C   UNL     1       4.611   5.148  18.062  0.00  0.00    +0.000 A 
ATOM      5  C   UNL     1       3.562   4.294  17.696  0.00  0.00    +0.000 A 
ATOM      6  C   UNL     1       2.445   4.065  18.490  0.00  0.00    +0.000 A 
ATOM      7  C   UNL     1       3.867   3.757  16.352  0.00  0.00    +0.000 C 
ATOM      8  O   UNL     1       3.177   2.975  15.734  0.00  0.00    +0.000 OA
ATOM      9  C   UNL     1       5.154   4.376  15.926  0.00  0.00    +0.000 A 
ATOM     10  C   UNL     1       5.586   5.207  16.982  0.00  0.00    +0.000 A 
ATOM     11  C   UNL     1       6.756   5.912  16.781  0.00  0.00    +0.000 A 
ATOM     12  C   UNL     1       7.417   6.830  17.754  0.00  0.00    +0.000 C 
ATOM     13  N   UNL     1       7.426   5.835  15.599  0.00  0.00    +0.000 NA
ATOM     14  C   UNL     1       6.970   5.068  14.595  0.00  0.00    +0.000 A 
ATOM     15  C   UNL     1       7.661   5.103  13.392  0.00  0.00    +0.000 A 
ATOM     16  C   UNL     1       7.256   4.354  12.290  0.00  0.00    +0.000 A 
ATOM     17  C   UNL     1       6.149   3.521  12.396  0.00  0.00    +0.000 A 
ATOM     18  C   UNL     1       5.434   3.469  13.594  0.00  0.00    +0.000 A 
ATOM     19  C   UNL     1       5.824   4.265  14.700  0.00  0.00    +0.000 A 
ENDROOT
BRANCH   1  21
ATOM     20  C   UNL     1       1.085   3.142  20.940  0.00  0.00    +0.000 C 
ATOM     21  O   UNL     1       1.255   4.477  20.465  0.00  0.00    +0.000 OA
ENDBRANCH   1  21
TORSDOF 1
ENDMDL
MODEL 4
REMARK VINA RESULT:      -7.1      3.829      7.199
REMARK  Name = 
REMARK  3 active torsions:
REMARK  status: ('A' for Active; 'I' for Inactive)
REMARK    1  A    between atoms: C_1  and  O_2
REMARK    2  A    between atoms: O_2  and  C_3
REMARK    3  A    between atoms: C_13  and  C_14
REMARK                            x       y       z     vdW  Elec       q    Type
REMARK                         _______ _______ _______ _____ _____    ______ ____
ROOT
ATOM      1  C   UNL     1       6.350   4.713  14.416  0.00  0.00    +0.000 A 
ATOM      2  C   UNL     1       5.977   6.041  14.666  0.00  0.00    +0.000 A 
ATOM      3  C   UNL     1       5.084   6.369  15.699  0.00  0.00    +0.000 A 
ATOM      4  C   UNL     1       4.560   5.361  16.490  0.00  0.00    +0.000 A 
ATOM      5  C   UNL     1       4.938   4.039  16.217  0.00  0.00    +0.000 A 
ATOM      6  C   UNL     1       5.822   3.687  15.205  0.00  0.00    +0.000 A 
ATOM      7  C   UNL     1       4.266   3.166  17.204  0.00  0.00    +0.000 C 
ATOM      8  O   UNL     1       4.360   1.959  17.253  0.00  0.00    +0.000 OA
ATOM      9  C   UNL     1       3.487   4.061  18.106  0.00  0.00    +0.000 A 
ATOM     10  C   UNL     1       3.676   5.382  17.647  0.00  0.00    +0.000 A 
ATOM     11  C   UNL     1       3.063   6.386  18.369  0.00  0.00    +0.000 A 
ATOM     12  C   UNL     1       3.101   7.847  18.067  0.00  0.00    +0.000 C 
ATOM     13  N   UNL     1       2.351   6.105  19.493  0.00  0.00    +0.000 NA
ATOM     14  C   UNL     1       2.220   4.842  19.932  0.00  0.00    +0.000 A 
ATOM     15  C   UNL     1       1.549   4.641  21.129  0.00  0.00    +0.000 A 
ATOM     16  C   UNL     1       1.377   3.369  21.671  0.00  0.00    +0.000 A 
ATOM     17  C   UNL     1       1.859   2.261  20.985  0.00  0.00    +0.000 A 
ATOM     18  C   UNL     1       2.541   2.436  19.779  0.00  0.00    +0.000 A 
ATOM     19  C   UNL     1       2.752   3.734  19.254  0.00  0.00    +0.000 A 
ENDROOT
BRANCH   1  21
ATOM     20  C   UNL     1       6.663   3.646  12.316  0.00  0.00    +0.000 C 
ATOM     21  O   UNL     1       7.225   4.321  13.440  0.00  0.00    +0.000 OA
ENDBRANCH   1  21
TORSDOF 1
ENDMDL
MODEL 5
REMARK VINA RESULT:      -6.9      1.871      6.254
REMARK  Name = 
REMARK  3 active torsions:
REMARK  status: ('A' for Active; 'I' for Inactive)
REMARK    1  A    between atoms: C_1  and  O_2
REMARK    2  A    between atoms: O_2  and  C_3
REMARK    3  A    between atoms: C_13  and  C_14
REMARK                            x       y       z     vdW  Elec       q    Type
REMARK                         _______ _______ _______ _____ _____    ______ ____
ROOT
ATOM      1  C   UNL     1       5.212   4.059  16.334  0.00  0.00    +0.000 A 
ATOM      2  C   UNL     1       4.833   3.192  17.370  0.00  0.00    +0.000 A 
ATOM      3  C   UNL     1       4.047   3.635  18.445  0.00  0.00    +0.000 A 
ATOM      4  C   UNL     1       3.634   4.956  18.487  0.00  0.00    +0.000 A 
ATOM      5  C   UNL     1       4.031   5.808  17.448  0.00  0.00    +0.000 A 
ATOM      6  C   UNL     1       4.806   5.396  16.370  0.00  0.00    +0.000 A 
ATOM      7  C   UNL     1       3.451   7.142  17.713  0.00  0.00    +0.000 C 
ATOM      8  O   UNL     1       3.602   8.125  17.021  0.00  0.00    +0.000 OA
ATOM      9  C   UNL     1       2.651   7.018  18.965  0.00  0.00    +0.000 A 
ATOM     10  C   UNL     1       2.785   5.688  19.416  0.00  0.00    +0.000 A 
ATOM     11  C   UNL     1       2.088   5.344  20.557  0.00  0.00    +0.000 A 
ATOM     12  C   UNL     1       2.092   4.012  21.230  0.00  0.00    +0.000 C 
ATOM     13  N   UNL     1       1.279   6.242  21.181  0.00  0.00    +0.000 NA
ATOM     14  C   UNL     1       1.136   7.491  20.707  0.00  0.00    +0.000 A 
ATOM     15  C   UNL     1       0.232   8.324  21.348  0.00  0.00    +0.000 A 
ATOM     16  C   UNL     1       0.005   9.630  20.920  0.00  0.00    +0.000 A 
ATOM     17  C   UNL     1       0.723  10.133  19.841  0.00  0.00    +0.000 A 
ATOM     18  C   UNL     1       1.637   9.313  19.177  0.00  0.00    +0.000 A 
ATOM     19  C   UNL     1       1.833   7.972  19.588  0.00  0.00    +0.000 A 
ENDROOT
BRANCH   1  21
ATOM     20  C   UNL     1       6.556   4.756  14.503  0.00  0.00    +0.000 C 
ATOM     21  O   UNL     1       5.962   3.695  15.249  0.00  0.00    +0.000 OA
ENDBRANCH   1  21
TORSDOF 1
ENDMDL
MODEL 6
REMARK VINA RESULT:      -6.9      1.627      3.588
REMARK  Name = 
REMARK  3 active torsions:
REMARK  status: ('A' for Active; 'I' for Inactive)
REMARK    1  A    between atoms: C_1  and  O_2
REMARK    2  A    between atoms: O_2  and  C_3
REMARK    3  A    between atoms: C_13  and  C_14
REMARK                            x       y       z     vdW  Elec       q    Type
REMARK                         _______ _______ _______ _____ _____    ______ ____
ROOT
ATOM      1  C   UNL     1       0.871  10.623  18.891  0.00  0.00    +0.000 A 
ATOM      2  C   UNL     1       1.762  10.439  17.824  0.00  0.00    +0.000 A 
ATOM      3  C   UNL     1       2.503   9.255  17.685  0.00  0.00    +0.000 A 
ATOM      4  C   UNL     1       2.353   8.245  18.619  0.00  0.00    +0.000 A 
ATOM      5  C   UNL     1       1.466   8.453  19.684  0.00  0.00    +0.000 A 
ATOM      6  C   UNL     1       0.717   9.613  19.844  0.00  0.00    +0.000 A 
ATOM      7  C   UNL     1       1.471   7.233  20.519  0.00  0.00    +0.000 C 
ATOM      8  O   UNL     1       0.826   7.072  21.532  0.00  0.00    +0.000 OA
ATOM      9  C   UNL     1       2.397   6.269  19.861  0.00  0.00    +0.000 A 
ATOM     10  C   UNL     1       2.923   6.909  18.718  0.00  0.00    +0.000 A 
ATOM     11  C   UNL     1       3.788   6.172  17.934  0.00  0.00    +0.000 A 
ATOM     12  C   UNL     1       4.481   6.640  16.698  0.00  0.00    +0.000 C 
ATOM     13  N   UNL     1       4.076   4.878  18.235  0.00  0.00    +0.000 NA
ATOM     14  C   UNL     1       3.530   4.278  19.306  0.00  0.00    +0.000 A 
ATOM     15  C   UNL     1       3.806   2.933  19.503  0.00  0.00    +0.000 A 
ATOM     16  C   UNL     1       3.273   2.223  20.577  0.00  0.00    +0.000 A 
ATOM     17  C   UNL     1       2.467   2.879  21.500  0.00  0.00    +0.000 A 
ATOM     18  C   UNL     1       2.172   4.232  21.323  0.00  0.00    +0.000 A 
ATOM     19  C   UNL     1       2.680   4.939  20.207  0.00  0.00    +0.000 A 
ENDROOT
BRANCH   1  21
ATOM     20  C   UNL     1      -1.149  11.549  19.733  0.00  0.00    +0.000 C 
ATOM     21  O   UNL     1       0.106  11.742  19.083  0.00  0.00    +0.000 OA
ENDBRANCH   1  21
TORSDOF 1
ENDMDL
MODEL 7
REMARK VINA RESULT:      -6.9      2.450      6.898
REMARK  Name = 
REMARK  3 active torsions:
REMARK  status: ('A' for Active; 'I' for Inactive)
REMARK    1  A    between atoms: C_1  and  O_2
REMARK    2  A    between atoms: O_2  and  C_3
REMARK    3  A    between atoms: C_13  and  C_14
REMARK                            x       y       z     vdW  Elec       q    Type
REMARK                         _______ _______ _______ _____ _____    ______ ____
ROOT
ATOM      1  C   UNL     1       6.699   4.942  14.339  0.00  0.00    +0.000 A 
ATOM      2  C   UNL     1       6.380   3.604  14.615  0.00  0.00    +0.000 A 
ATOM      3  C   UNL     1       5.543   3.259  15.687  0.00  0.00    +0.000 A 
ATOM      4  C   UNL     1       5.018   4.257  16.490  0.00  0.00    +0.000 A 
ATOM      5  C   UNL     1       5.357   5.586  16.202  0.00  0.00    +0.000 A 
ATOM      6  C   UNL     1       6.180   5.957  15.147  0.00  0.00    +0.000 A 
ATOM      7  C   UNL     1       4.660   6.450  17.180  0.00  0.00    +0.000 C 
ATOM      8  O   UNL     1       4.738   7.657  17.231  0.00  0.00    +0.000 OA
ATOM      9  C   UNL     1       3.854   5.547  18.050  0.00  0.00    +0.000 A 
ATOM     10  C   UNL     1       4.094   4.225  17.616  0.00  0.00    +0.000 A 
ATOM     11  C   UNL     1       3.412   3.220  18.271  0.00  0.00    +0.000 A 
ATOM     12  C   UNL     1       3.518   1.756  18.004  0.00  0.00    +0.000 C 
ATOM     13  N   UNL     1       2.519   3.507  19.256  0.00  0.00    +0.000 NA
ATOM     14  C   UNL     1       2.278   4.777  19.623  0.00  0.00    +0.000 A 
ATOM     15  C   UNL     1       1.295   4.997  20.577  0.00  0.00    +0.000 A 
ATOM     16  C   UNL     1       0.965   6.280  21.009  0.00  0.00    +0.000 A 
ATOM     17  C   UNL     1       1.654   7.374  20.500  0.00  0.00    +0.000 A 
ATOM     18  C   UNL     1       2.646   7.180  19.536  0.00  0.00    +0.000 A 
ATOM     19  C   UNL     1       2.949   5.878  19.068  0.00  0.00    +0.000 A 
ENDROOT
BRANCH   1  21
ATOM     20  C   UNL     1       7.379   4.626  12.083  0.00  0.00    +0.000 C 
ATOM     21  O   UNL     1       7.495   5.354  13.304  0.00  0.00    +0.000 OA
ENDBRANCH   1  21
TORSDOF 1
ENDMDL
MODEL 8
REMARK VINA RESULT:      -6.6      1.996      6.521
REMARK  Name = 
REMARK  3 active torsions:
REMARK  status: ('A' for Active; 'I' for Inactive)
REMARK    1  A    between atoms: C_1  and  O_2
REMARK    2  A    between atoms: O_2  and  C_3
REMARK    3  A    between atoms: C_13  and  C_14
REMARK                            x       y       z     vdW  Elec       q    Type
REMARK                         _______ _______ _______ _____ _____    ______ ____
ROOT
ATOM      1  C   UNL     1       5.891   4.624  14.951  0.00  0.00    +0.000 A 
ATOM      2  C   UNL     1       5.782   3.525  15.815  0.00  0.00    +0.000 A 
ATOM      3  C   UNL     1       5.088   3.615  17.031  0.00  0.00    +0.000 A 
ATOM      4  C   UNL     1       4.496   4.815  17.389  0.00  0.00    +0.000 A 
ATOM      5  C   UNL     1       4.625   5.904  16.517  0.00  0.00    +0.000 A 
ATOM      6  C   UNL     1       5.303   5.842  15.305  0.00  0.00    +0.000 A 
ATOM      7  C   UNL     1       3.896   7.045  17.111  0.00  0.00    +0.000 C 
ATOM      8  O   UNL     1       3.811   8.153  16.628  0.00  0.00    +0.000 OA
ATOM      9  C   UNL     1       3.294   6.552  18.382  0.00  0.00    +0.000 A 
ATOM     10  C   UNL     1       3.678   5.202  18.530  0.00  0.00    +0.000 A 
ATOM     11  C   UNL     1       3.194   4.534  19.637  0.00  0.00    +0.000 A 
ATOM     12  C   UNL     1       3.480   3.119  20.014  0.00  0.00    +0.000 C 
ATOM     13  N   UNL     1       2.352   5.147  20.512  0.00  0.00    +0.000 NA
ATOM     14  C   UNL     1       1.968   6.421  20.326  0.00  0.00    +0.000 A 
ATOM     15  C   UNL     1       1.044   6.952  21.213  0.00  0.00    +0.000 A 
ATOM     16  C   UNL     1       0.576   8.259  21.092  0.00  0.00    +0.000 A 
ATOM     17  C   UNL     1       1.065   9.071  20.077  0.00  0.00    +0.000 A 
ATOM     18  C   UNL     1       1.994   8.560  19.168  0.00  0.00    +0.000 A 
ATOM     19  C   UNL     1       2.435   7.218  19.269  0.00  0.00    +0.000 A 
ENDROOT
BRANCH   1  21
ATOM     20  C   UNL     1       6.112   3.615  12.811  0.00  0.00    +0.000 C 
ATOM     21  O   UNL     1       6.537   4.606  13.745  0.00  0.00    +0.000 OA
ENDBRANCH   1  21
TORSDOF 1
ENDMDL
MODEL 9
REMARK VINA RESULT:      -6.6      2.696      6.587
REMARK  Name = 
REMARK  3 active torsions:
REMARK  status: ('A' for Active; 'I' for Inactive)
REMARK    1  A    between atoms: C_1  and  O_2
REMARK    2  A    between atoms: O_2  and  C_3
REMARK    3  A    between atoms: C_13  and  C_14
REMARK                            x       y       z     vdW  Elec       q    Type
REMARK                         _______ _______ _______ _____ _____    ______ ____
ROOT
ATOM      1  C   UNL     1       2.590   5.945  19.016  0.00  0.00    +0.000 A 
ATOM      2  C   UNL     1       2.106   5.864  20.330  0.00  0.00    +0.000 A 
ATOM      3  C   UNL     1       1.530   6.974  20.967  0.00  0.00    +0.000 A 
ATOM      4  C   UNL     1       1.435   8.176  20.287  0.00  0.00    +0.000 A 
ATOM      5  C   UNL     1       1.933   8.238  18.978  0.00  0.00    +0.000 A 
ATOM      6  C   UNL     1       2.505   7.155  18.322  0.00  0.00    +0.000 A 
ATOM      7  C   UNL     1       1.696   9.607  18.471  0.00  0.00    +0.000 C 
ATOM      8  O   UNL     1       2.014  10.015  17.375  0.00  0.00    +0.000 OA
ATOM      9  C   UNL     1       0.991  10.348  19.555  0.00  0.00    +0.000 A 
ATOM     10  C   UNL     1       0.852   9.462  20.644  0.00  0.00    +0.000 A 
ATOM     11  C   UNL     1       0.187   9.939  21.755  0.00  0.00    +0.000 A 
ATOM     12  C   UNL     1      -0.061   9.199  23.027  0.00  0.00    +0.000 C 
ATOM     13  N   UNL     1      -0.343  11.192  21.769  0.00  0.00    +0.000 NA
ATOM     14  C   UNL     1      -0.233  12.002  20.703  0.00  0.00    +0.000 A 
ATOM     15  C   UNL     1      -0.869  13.233  20.760  0.00  0.00    +0.000 A 
ATOM     16  C   UNL     1      -0.823  14.134  19.698  0.00  0.00    +0.000 A 
ATOM     17  C   UNL     1      -0.097  13.813  18.557  0.00  0.00    +0.000 A 
ATOM     18  C   UNL     1       0.550  12.578  18.474  0.00  0.00    +0.000 A 
ATOM     19  C   UNL     1       0.466  11.648  19.538  0.00  0.00    +0.000 A 
ENDROOT
BRANCH   1  21
ATOM     20  C   UNL     1       4.103   4.112  19.034  0.00  0.00    +0.000 C 
ATOM     21  O   UNL     1       3.149   4.903  18.327  0.00  0.00    +0.000 OA
ENDBRANCH   1  21
TORSDOF 1
ENDMDL
