MODEL 1
REMARK VINA RESULT:      -8.2      0.000      0.000
REMARK  Name = 
REMARK  6 active torsions:
REMARK  status: ('A' for Active; 'I' for Inactive)
REMARK    1  A    between atoms: C_1  and  C_2
REMARK    2  A    between atoms: C_2  and  O_3
REMARK    3  A    between atoms: O_3  and  C_4
REMARK    4  A    between atoms: C_8  and  N_9
REMARK    5  A    between atoms: C_12  and  N_13
REMARK    6  A    between atoms: C_14  and  C_16
REMARK                            x       y       z     vdW  Elec       q    Type
REMARK                         _______ _______ _______ _____ _____    ______ ____
ROOT
ATOM      1  N   UNL     1       5.066   6.177  16.746  0.00  0.00    +0.000 N 
ATOM      2  C   UNL     1       6.202   6.580  17.496  0.00  0.00    +0.000 A 
ATOM      3  C   UNL     1       6.788   7.809  17.232  0.00  0.00    +0.000 A 
ATOM      4  C   UNL     1       7.943   8.120  17.923  0.00  0.00    +0.000 A 
ATOM      5  N   UNL     1       8.487   7.275  18.802  0.00  0.00    +0.000 NA
ATOM      6  C   UNL     1       7.869   6.109  18.982  0.00  0.00    +0.000 A 
ATOM      7  N   UNL     1       6.749   5.721  18.371  0.00  0.00    +0.000 NA
ATOM      8  H   UNL     1       4.561   6.987  16.402  0.00  0.00    +0.000 HD
ENDROOT
BRANCH   1  13
ATOM      9  C   UNL     1       2.457   4.607  18.887  0.00  0.00    +0.000 A 
ATOM     10  C   UNL     1       2.366   3.337  18.314  0.00  0.00    +0.000 A 
ATOM     11  C   UNL     1       3.138   3.004  17.204  0.00  0.00    +0.000 A 
ATOM     12  C   UNL     1       4.008   3.946  16.658  0.00  0.00    +0.000 A 
ATOM     13  C   UNL     1       4.099   5.236  17.199  0.00  0.00    +0.000 A 
ATOM     14  C   UNL     1       3.331   5.549  18.333  0.00  0.00    +0.000 A 
BRANCH   9  15
ATOM     15  O   UNL     1       1.661   4.793  19.985  0.00  0.00    +0.000 OA
BRANCH  15  17
ATOM     16  C   UNL     1       1.586   3.089  21.652  0.00  0.00    +0.000 C 
ATOM     17  C   UNL     1       2.204   4.416  21.249  0.00  0.00    +0.000 C 
ENDBRANCH  15  17
ENDBRANCH   9  15
ENDBRANCH   1  13
BRANCH   4  18
ATOM     18  N   UNL     1       8.545   9.374  17.694  0.00  0.00    +0.000 N 
ATOM     19  C   UNL     1       9.019  10.197  18.701  0.00  0.00    +0.000 C 
ATOM     20  O   UNL     1       9.031   9.953  19.903  0.00  0.00    +0.000 OA
ATOM     21  H   UNL     1       8.580   9.694  16.738  0.00  0.00    +0.000 HD
BRANCH  19  22
ATOM     22  C   UNL     1       9.550  11.527  18.278  0.00  0.00    +0.000 A 
ATOM     23  C   UNL     1      10.849  11.563  17.741  0.00  0.00    +0.000 A 
ATOM     24  C   UNL     1      11.412  12.770  17.326  0.00  0.00    +0.000 A 
ATOM     25  C   UNL     1      10.674  13.937  17.439  0.00  0.00    +0.000 A 
ATOM     26  F   UNL     1      11.211  15.100  17.048  0.00  0.00    +0.000 F 
ATOM     27  C   UNL     1       9.376  13.920  17.944  0.00  0.00    +0.000 A 
ATOM     28  C   UNL     1       8.806  12.711  18.359  0.00  0.00    +0.000 A 
ENDBRANCH  19  22
ENDBRANCH   4  18
TORSDOF 5
ENDMDL
MODEL 2
REMARK VINA RESULT:      -8.0      1.453      1.757
REMARK  Name = 
REMARK  6 active torsions:
REMARK  status: ('A' for Active; 'I' for Inactive)
REMARK    1  A    between atoms: C_1  and  C_2
REMARK    2  A    between atoms: C_2  and  O_3
REMARK    3  A    between atoms: O_3  and  C_4
REMARK    4  A    between atoms: C_8  and  N_9
REMARK    5  A    between atoms: C_12  and  N_13
REMARK    6  A    between atoms: C_14  and  C_16
REMARK                            x       y       z     vdW  Elec       q    Type
REMARK                         _______ _______ _______ _____ _____    ______ ____
ROOT
ATOM      1  N   UNL     1       3.519   5.826  17.322  0.00  0.00    +0.000 N 
ATOM      2  C   UNL     1       4.923   5.968  17.169  0.00  0.00    +0.000 A 
ATOM      3  C   UNL     1       5.498   7.222  17.321  0.00  0.00    +0.000 A 
ATOM      4  C   UNL     1       6.854   7.329  17.075  0.00  0.00    +0.000 A 
ATOM      5  N   UNL     1       7.585   6.279  16.695  0.00  0.00    +0.000 NA
ATOM      6  C   UNL     1       6.950   5.116  16.557  0.00  0.00    +0.000 A 
ATOM      7  N   UNL     1       5.651   4.911  16.778  0.00  0.00    +0.000 NA
ATOM      8  H   UNL     1       3.152   6.553  17.927  0.00  0.00    +0.000 HD
ENDROOT
BRANCH   1  13
ATOM      9  C   UNL     1       1.470   3.399  19.262  0.00  0.00    +0.000 A 
ATOM     10  C   UNL     1       1.768   2.206  18.603  0.00  0.00    +0.000 A 
ATOM     11  C   UNL     1       2.619   2.199  17.500  0.00  0.00    +0.000 A 
ATOM     12  C   UNL     1       3.175   3.395  17.049  0.00  0.00    +0.000 A 
ATOM     13  C   UNL     1       2.871   4.610  17.678  0.00  0.00    +0.000 A 
ATOM     14  C   UNL     1       2.030   4.596  18.803  0.00  0.00    +0.000 A 
BRANCH   9  15
ATOM     15  O   UNL     1       0.641   3.259  20.342  0.00  0.00    +0.000 OA
BRANCH  15  17
ATOM     16  C   UNL     1       2.402   3.479  21.936  0.00  0.00    +0.000 C 
ATOM     17  C   UNL     1       1.197   2.659  21.511  0.00  0.00    +0.000 C 
ENDBRANCH  15  17
ENDBRANCH   9  15
ENDBRANCH   1  13
BRANCH   4  18
ATOM     18  N   UNL     1       7.470   8.584  17.247  0.00  0.00    +0.000 N 
ATOM     19  C   UNL     1       8.374   8.868  18.255  0.00  0.00    +0.000 C 
ATOM     20  O   UNL     1       8.800   8.086  19.099  0.00  0.00    +0.000 OA
ATOM     21  H   UNL     1       7.186   9.321  16.618  0.00  0.00    +0.000 HD
BRANCH  19  22
ATOM     22  C   UNL     1       8.861  10.278  18.335  0.00  0.00    +0.000 A 
ATOM     23  C   UNL     1       9.968  10.533  19.165  0.00  0.00    +0.000 A 
ATOM     24  C   UNL     1      10.477  11.824  19.291  0.00  0.00    +0.000 A 
ATOM     25  C   UNL     1       9.888  12.859  18.581  0.00  0.00    +0.000 A 
ATOM     26  F   UNL     1      10.369  14.103  18.702  0.00  0.00    +0.000 F 
ATOM     27  C   UNL     1       8.808  12.623  17.733  0.00  0.00    +0.000 A 
ATOM     28  C   UNL     1       8.295  11.328  17.602  0.00  0.00    +0.000 A 
ENDBRANCH  19  22
ENDBRANCH   4  18
TORSDOF 5
ENDMDL
MODEL 3
REMARK VINA RESULT:      -7.6      1.289      1.700
REMARK  Name = 
REMARK  6 active torsions:
REMARK  status: ('A' for Active; 'I' for Inactive)
REMARK    1  A    between atoms: C_1  and  C_2
REMARK    2  A    between atoms: C_2  and  O_3
REMARK    3  A    between atoms: O_3  and  C_4
REMARK    4  A    between atoms: C_8  and  N_9
REMARK    5  A    between atoms: C_12  and  N_13
REMARK    6  A    between atoms: C_14  and  C_16
REMARK                            x       y       z     vdW  Elec       q    Type
REMARK                         _______ _______ _______ _____ _____    ______ ____
ROOT
ATOM      1  N   UNL     1       4.732   6.313  16.948  0.00  0.00    +0.000 N 
ATOM      2  C   UNL     1       5.943   6.628  17.617  0.00  0.00    +0.000 A 
ATOM      3  C   UNL     1       6.604   7.807  17.305  0.00  0.00    +0.000 A 
ATOM      4  C   UNL     1       7.824   8.028  17.914  0.00  0.00    +0.000 A 
ATOM      5  N   UNL     1       8.359   7.145  18.759  0.00  0.00    +0.000 NA
ATOM      6  C   UNL     1       7.667   6.030  18.990  0.00  0.00    +0.000 A 
ATOM      7  N   UNL     1       6.481   5.731  18.458  0.00  0.00    +0.000 NA
ATOM      8  H   UNL     1       4.269   7.159  16.633  0.00  0.00    +0.000 HD
ENDROOT
BRANCH   1  13
ATOM      9  C   UNL     1       2.905   3.177  17.776  0.00  0.00    +0.000 A 
ATOM     10  C   UNL     1       1.690   3.686  18.236  0.00  0.00    +0.000 A 
ATOM     11  C   UNL     1       1.478   5.060  18.305  0.00  0.00    +0.000 A 
ATOM     12  C   UNL     1       2.489   5.937  17.914  0.00  0.00    +0.000 A 
ATOM     13  C   UNL     1       3.728   5.451  17.473  0.00  0.00    +0.000 A 
ATOM     14  C   UNL     1       3.917   4.062  17.386  0.00  0.00    +0.000 A 
BRANCH   9  15
ATOM     15  O   UNL     1       2.970   1.811  17.737  0.00  0.00    +0.000 OA
BRANCH  15  17
ATOM     16  C   UNL     1       4.176   1.798  19.795  0.00  0.00    +0.000 C 
ATOM     17  C   UNL     1       4.070   1.196  18.405  0.00  0.00    +0.000 C 
ENDBRANCH  15  17
ENDBRANCH   9  15
ENDBRANCH   1  13
BRANCH   4  18
ATOM     18  N   UNL     1       8.505   9.231  17.636  0.00  0.00    +0.000 N 
ATOM     19  C   UNL     1       9.005  10.076  18.610  0.00  0.00    +0.000 C 
ATOM     20  O   UNL     1       8.977   9.895  19.824  0.00  0.00    +0.000 OA
ATOM     21  H   UNL     1       8.579   9.498  16.666  0.00  0.00    +0.000 HD
BRANCH  19  22
ATOM     22  C   UNL     1       9.624  11.349  18.133  0.00  0.00    +0.000 A 
ATOM     23  C   UNL     1      11.009  11.344  17.893  0.00  0.00    +0.000 A 
ATOM     24  C   UNL     1      11.656  12.496  17.448  0.00  0.00    +0.000 A 
ATOM     25  C   UNL     1      10.918  13.650  17.234  0.00  0.00    +0.000 A 
ATOM     26  F   UNL     1      11.535  14.761  16.812  0.00  0.00    +0.000 F 
ATOM     27  C   UNL     1       9.541  13.669  17.441  0.00  0.00    +0.000 A 
ATOM     28  C   UNL     1       8.887  12.514  17.885  0.00  0.00    +0.000 A 
ENDBRANCH  19  22
ENDBRANCH   4  18
TORSDOF 5
ENDMDL
MODEL 4
REMARK VINA RESULT:      -7.6      6.591      8.566
REMARK  Name = 
REMARK  6 active torsions:
REMARK  status: ('A' for Active; 'I' for Inactive)
REMARK    1  A    between atoms: C_1  and  C_2
REMARK    2  A    between atoms: C_2  and  O_3
REMARK    3  A    between atoms: O_3  and  C_4
REMARK    4  A    between atoms: C_8  and  N_9
REMARK    5  A    between atoms: C_12  and  N_13
REMARK    6  A    between atoms: C_14  and  C_16
REMARK                            x       y       z     vdW  Elec       q    Type
REMARK                         _______ _______ _______ _____ _____    ______ ____
ROOT
ATOM      1  N   UNL     1       2.114   6.215  19.731  0.00  0.00    +0.000 N 
ATOM      2  C   UNL     1       1.932   7.581  19.391  0.00  0.00    +0.000 A 
ATOM      3  C   UNL     1       1.381   8.446  20.326  0.00  0.00    +0.000 A 
ATOM      4  C   UNL     1       1.140   9.745  19.921  0.00  0.00    +0.000 A 
ATOM      5  N   UNL     1       1.410  10.157  18.680  0.00  0.00    +0.000 NA
ATOM      6  C   UNL     1       1.921   9.257  17.841  0.00  0.00    +0.000 A 
ATOM      7  N   UNL     1       2.196   7.987  18.139  0.00  0.00    +0.000 NA
ATOM      8  H   UNL     1       2.215   6.109  20.735  0.00  0.00    +0.000 HD
ENDROOT
BRANCH   1  13
ATOM      9  C   UNL     1       5.402   4.717  18.841  0.00  0.00    +0.000 A 
ATOM     10  C   UNL     1       5.044   3.895  17.771  0.00  0.00    +0.000 A 
ATOM     11  C   UNL     1       3.716   3.806  17.360  0.00  0.00    +0.000 A 
ATOM     12  C   UNL     1       2.736   4.543  18.022  0.00  0.00    +0.000 A 
ATOM     13  C   UNL     1       3.066   5.356  19.115  0.00  0.00    +0.000 A 
ATOM     14  C   UNL     1       4.413   5.452  19.503  0.00  0.00    +0.000 A 
BRANCH   9  15
ATOM     15  O   UNL     1       6.741   4.727  19.124  0.00  0.00    +0.000 OA
BRANCH  15  17
ATOM     16  C   UNL     1       7.732   6.667  18.153  0.00  0.00    +0.000 C 
ATOM     17  C   UNL     1       7.619   5.155  18.085  0.00  0.00    +0.000 C 
ENDBRANCH  15  17
ENDBRANCH   9  15
ENDBRANCH   1  13
BRANCH   4  18
ATOM     18  N   UNL     1       0.606  10.652  20.858  0.00  0.00    +0.000 N 
ATOM     19  C   UNL     1      -0.617  11.283  20.711  0.00  0.00    +0.000 C 
ATOM     20  O   UNL     1      -1.419  11.122  19.797  0.00  0.00    +0.000 OA
ATOM     21  H   UNL     1       1.186  10.879  21.652  0.00  0.00    +0.000 HD
BRANCH  19  22
ATOM     22  C   UNL     1      -0.983  12.277  21.763  0.00  0.00    +0.000 A 
ATOM     23  C   UNL     1      -2.101  11.987  22.565  0.00  0.00    +0.000 A 
ATOM     24  C   UNL     1      -2.504  12.869  23.566  0.00  0.00    +0.000 A 
ATOM     25  C   UNL     1      -1.786  14.037  23.772  0.00  0.00    +0.000 A 
ATOM     26  F   UNL     1      -2.173  14.891  24.728  0.00  0.00    +0.000 F 
ATOM     27  C   UNL     1      -0.661  14.331  23.005  0.00  0.00    +0.000 A 
ATOM     28  C   UNL     1      -0.251  13.447  22.001  0.00  0.00    +0.000 A 
ENDBRANCH  19  22
ENDBRANCH   4  18
TORSDOF 5
ENDMDL
MODEL 5
REMARK VINA RESULT:      -7.5      0.852      1.053
REMARK  Name = 
REMARK  6 active torsions:
REMARK  status: ('A' for Active; 'I' for Inactive)
REMARK    1  A    between atoms: C_1  and  C_2
REMARK    2  A    between atoms: C_2  and  O_3
REMARK    3  A    between atoms: O_3  and  C_4
REMARK    4  A    between atoms: C_8  and  N_9
REMARK    5  A    between atoms: C_12  and  N_13
REMARK    6  A    between atoms: C_14  and  C_16
REMARK                            x       y       z     vdW  Elec       q    Type
REMARK                         _______ _______ _______ _____ _____    ______ ____
ROOT
ATOM      1  N   UNL     1       5.353   6.531  16.665  0.00  0.00    +0.000 N 
ATOM      2  C   UNL     1       6.448   6.872  17.501  0.00  0.00    +0.000 A 
ATOM      3  C   UNL     1       7.051   8.113  17.356  0.00  0.00    +0.000 A 
ATOM      4  C   UNL     1       8.169   8.367  18.128  0.00  0.00    +0.000 A 
ATOM      5  N   UNL     1       8.662   7.458  18.972  0.00  0.00    +0.000 NA
ATOM      6  C   UNL     1       8.032   6.286  19.037  0.00  0.00    +0.000 A 
ATOM      7  N   UNL     1       6.945   5.951  18.340  0.00  0.00    +0.000 NA
ATOM      8  H   UNL     1       4.870   7.367  16.353  0.00  0.00    +0.000 HD
ENDROOT
BRANCH   1  13
ATOM      9  C   UNL     1       2.567   4.879  18.498  0.00  0.00    +0.000 A 
ATOM     10  C   UNL     1       2.553   3.621  17.893  0.00  0.00    +0.000 A 
ATOM     11  C   UNL     1       3.437   3.324  16.859  0.00  0.00    +0.000 A 
ATOM     12  C   UNL     1       4.344   4.290  16.423  0.00  0.00    +0.000 A 
ATOM     13  C   UNL     1       4.360   5.568  16.999  0.00  0.00    +0.000 A 
ATOM     14  C   UNL     1       3.477   5.844  18.056  0.00  0.00    +0.000 A 
BRANCH   9  15
ATOM     15  O   UNL     1       1.662   5.028  19.515  0.00  0.00    +0.000 OA
BRANCH  15  17
ATOM     16  C   UNL     1       1.649   3.489  21.338  0.00  0.00    +0.000 C 
ATOM     17  C   UNL     1       1.029   3.845  19.997  0.00  0.00    +0.000 C 
ENDBRANCH  15  17
ENDBRANCH   9  15
ENDBRANCH   1  13
BRANCH   4  18
ATOM     18  N   UNL     1       8.786   9.629  18.021  0.00  0.00    +0.000 N 
ATOM     19  C   UNL     1       9.146  10.406  19.108  0.00  0.00    +0.000 C 
ATOM     20  O   UNL     1       9.031  10.108  20.293  0.00  0.00    +0.000 OA
ATOM     21  H   UNL     1       8.921   9.992  17.089  0.00  0.00    +0.000 HD
BRANCH  19  22
ATOM     22  C   UNL     1       9.713  11.754  18.804  0.00  0.00    +0.000 A 
ATOM     23  C   UNL     1       9.926  12.625  19.887  0.00  0.00    +0.000 A 
ATOM     24  C   UNL     1      10.450  13.900  19.680  0.00  0.00    +0.000 A 
ATOM     25  C   UNL     1      10.771  14.301  18.393  0.00  0.00    +0.000 A 
ATOM     26  F   UNL     1      11.269  15.527  18.187  0.00  0.00    +0.000 F 
ATOM     27  C   UNL     1      10.592  13.445  17.309  0.00  0.00    +0.000 A 
ATOM     28  C   UNL     1      10.068  12.163  17.512  0.00  0.00    +0.000 A 
ENDBRANCH  19  22
ENDBRANCH   4  18
TORSDOF 5
ENDMDL
MODEL 6
REMARK VINA RESULT:      -7.5      1.600      1.932
REMARK  Name = 
REMARK  6 active torsions:
REMARK  status: ('A' for Active; 'I' for Inactive)
REMARK    1  A    between atoms: C_1  and  C_2
REMARK    2  A    between atoms: C_2  and  O_3
REMARK    3  A    between atoms: O_3  and  C_4
REMARK    4  A    between atoms: C_8  and  N_9
REMARK    5  A    between atoms: C_12  and  N_13
REMARK    6  A    between atoms: C_14  and  C_16
REMARK                            x       y       z     vdW  Elec       q    Type
REMARK                         _______ _______ _______ _____ _____    ______ ____
ROOT
ATOM      1  N   UNL     1       4.166   5.725  17.793  0.00  0.00    +0.000 N 
ATOM      2  C   UNL     1       5.575   5.655  17.943  0.00  0.00    +0.000 A 
ATOM      3  C   UNL     1       6.273   6.790  18.331  0.00  0.00    +0.000 A 
ATOM      4  C   UNL     1       7.651   6.699  18.378  0.00  0.00    +0.000 A 
ATOM      5  N   UNL     1       8.294   5.575  18.053  0.00  0.00    +0.000 NA
ATOM      6  C   UNL     1       7.548   4.539  17.674  0.00  0.00    +0.000 A 
ATOM      7  N   UNL     1       6.216   4.526  17.606  0.00  0.00    +0.000 NA
ATOM      8  H   UNL     1       3.781   6.458  18.380  0.00  0.00    +0.000 HD
ENDROOT
BRANCH   1  13
ATOM      9  C   UNL     1       1.682   3.343  19.212  0.00  0.00    +0.000 A 
ATOM     10  C   UNL     1       1.744   2.303  18.283  0.00  0.00    +0.000 A 
ATOM     11  C   UNL     1       2.577   2.396  17.171  0.00  0.00    +0.000 A 
ATOM     12  C   UNL     1       3.356   3.537  16.983  0.00  0.00    +0.000 A 
ATOM     13  C   UNL     1       3.293   4.605  17.888  0.00  0.00    +0.000 A 
ATOM     14  C   UNL     1       2.465   4.486  19.016  0.00  0.00    +0.000 A 
BRANCH   9  15
ATOM     15  O   UNL     1       0.842   3.113  20.267  0.00  0.00    +0.000 OA
BRANCH  15  17
ATOM     16  C   UNL     1       2.576   2.326  21.704  0.00  0.00    +0.000 C 
ATOM     17  C   UNL     1       1.389   3.264  21.576  0.00  0.00    +0.000 C 
ENDBRANCH  15  17
ENDBRANCH   9  15
ENDBRANCH   1  13
BRANCH   4  18
ATOM     18  N   UNL     1       8.384   7.828  18.795  0.00  0.00    +0.000 N 
ATOM     19  C   UNL     1       8.316   9.064  18.176  0.00  0.00    +0.000 C 
ATOM     20  O   UNL     1       7.596   9.372  17.230  0.00  0.00    +0.000 OA
ATOM     21  H   UNL     1       9.028   7.695  19.560  0.00  0.00    +0.000 HD
BRANCH  19  22
ATOM     22  C   UNL     1       9.228  10.124  18.702  0.00  0.00    +0.000 A 
ATOM     23  C   UNL     1      10.008  10.826  17.767  0.00  0.00    +0.000 A 
ATOM     24  C   UNL     1      10.884  11.828  18.184  0.00  0.00    +0.000 A 
ATOM     25  C   UNL     1      10.973  12.133  19.533  0.00  0.00    +0.000 A 
ATOM     26  F   UNL     1      11.817  13.090  19.941  0.00  0.00    +0.000 F 
ATOM     27  C   UNL     1      10.189  11.467  20.473  0.00  0.00    +0.000 A 
ATOM     28  C   UNL     1       9.307  10.463  20.058  0.00  0.00    +0.000 A 
ENDBRANCH  19  22
ENDBRANCH   4  18
TORSDOF 5
ENDMDL
MODEL 7
REMARK VINA RESULT:      -7.2      8.436     10.657
REMARK  Name = 
REMARK  6 active torsions:
REMARK  status: ('A' for Active; 'I' for Inactive)
REMARK    1  A    between atoms: C_1  and  C_2
REMARK    2  A    between atoms: C_2  and  O_3
REMARK    3  A    between atoms: O_3  and  C_4
REMARK    4  A    between atoms: C_8  and  N_9
REMARK    5  A    between atoms: C_12  and  N_13
REMARK    6  A    between atoms: C_14  and  C_16
REMARK                            x       y       z     vdW  Elec       q    Type
REMARK                         _______ _______ _______ _____ _____    ______ ____
ROOT
ATOM      1  N   UNL     1      -0.808  12.316  22.604  0.00  0.00    +0.000 N 
ATOM      2  C   UNL     1      -0.800  11.599  21.379  0.00  0.00    +0.000 A 
ATOM      3  C   UNL     1       0.144  10.601  21.183  0.00  0.00    +0.000 A 
ATOM      4  C   UNL     1       0.171   9.991  19.943  0.00  0.00    +0.000 A 
ATOM      5  N   UNL     1      -0.664  10.349  18.965  0.00  0.00    +0.000 NA
ATOM      6  C   UNL     1      -1.527  11.328  19.232  0.00  0.00    +0.000 A 
ATOM      7  N   UNL     1      -1.635  11.970  20.396  0.00  0.00    +0.000 NA
ATOM      8  H   UNL     1      -0.410  11.753  23.348  0.00  0.00    +0.000 HD
ENDROOT
BRANCH   1  13
ATOM      9  C   UNL     1      -4.248  12.828  23.929  0.00  0.00    +0.000 A 
ATOM     10  C   UNL     1      -4.327  14.221  23.944  0.00  0.00    +0.000 A 
ATOM     11  C   UNL     1      -3.240  14.996  23.550  0.00  0.00    +0.000 A 
ATOM     12  C   UNL     1      -2.061  14.377  23.137  0.00  0.00    +0.000 A 
ATOM     13  C   UNL     1      -1.948  12.980  23.137  0.00  0.00    +0.000 A 
ATOM     14  C   UNL     1      -3.062  12.212  23.516  0.00  0.00    +0.000 A 
BRANCH   9  15
ATOM     15  O   UNL     1      -5.394  12.190  24.319  0.00  0.00    +0.000 OA
BRANCH  15  17
ATOM     16  C   UNL     1      -7.203  12.335  22.770  0.00  0.00    +0.000 C 
ATOM     17  C   UNL     1      -6.626  12.865  24.071  0.00  0.00    +0.000 C 
ENDBRANCH  15  17
ENDBRANCH   9  15
ENDBRANCH   1  13
BRANCH   4  18
ATOM     18  N   UNL     1       1.101   8.956  19.725  0.00  0.00    +0.000 N 
ATOM     19  C   UNL     1       1.844   8.818  18.565  0.00  0.00    +0.000 C 
ATOM     20  O   UNL     1       1.842   9.575  17.599  0.00  0.00    +0.000 OA
ATOM     21  H   UNL     1       1.181   8.256  20.447  0.00  0.00    +0.000 HD
BRANCH  19  22
ATOM     22  C   UNL     1       2.719   7.611  18.475  0.00  0.00    +0.000 A 
ATOM     23  C   UNL     1       2.569   6.628  19.469  0.00  0.00    +0.000 A 
ATOM     24  C   UNL     1       3.353   5.475  19.451  0.00  0.00    +0.000 A 
ATOM     25  C   UNL     1       4.279   5.300  18.435  0.00  0.00    +0.000 A 
ATOM     26  F   UNL     1       5.040   4.198  18.416  0.00  0.00    +0.000 F 
ATOM     27  C   UNL     1       4.426   6.250  17.426  0.00  0.00    +0.000 A 
ATOM     28  C   UNL     1       3.639   7.407  17.439  0.00  0.00    +0.000 A 
ENDBRANCH  19  22
ENDBRANCH   4  18
TORSDOF 5
ENDMDL
MODEL 8
REMARK VINA RESULT:      -7.1      5.757      8.279
REMARK  Name = 
REMARK  6 active torsions:
REMARK  status: ('A' for Active; 'I' for Inactive)
REMARK    1  A    between atoms: C_1  and  C_2
REMARK    2  A    between atoms: C_2  and  O_3
REMARK    3  A    between atoms: O_3  and  C_4
REMARK    4  A    between atoms: C_8  and  N_9
REMARK    5  A    between atoms: C_12  and  N_13
REMARK    6  A    between atoms: C_14  and  C_16
REMARK                            x       y       z     vdW  Elec       q    Type
REMARK                         _______ _______ _______ _____ _____    ______ ____
ROOT
ATOM      1  N   UNL     1       4.982   7.213  17.079  0.00  0.00    +0.000 N 
ATOM      2  C   UNL     1       3.906   7.037  17.987  0.00  0.00    +0.000 A 
ATOM      3  C   UNL     1       3.011   8.079  18.188  0.00  0.00    +0.000 A 
ATOM      4  C   UNL     1       2.033   7.894  19.146  0.00  0.00    +0.000 A 
ATOM      5  N   UNL     1       1.950   6.770  19.862  0.00  0.00    +0.000 NA
ATOM      6  C   UNL     1       2.859   5.828  19.616  0.00  0.00    +0.000 A 
ATOM      7  N   UNL     1       3.834   5.909  18.709  0.00  0.00    +0.000 NA
ATOM      8  H   UNL     1       4.746   7.906  16.376  0.00  0.00    +0.000 HD
ENDROOT
BRANCH   1  13
ATOM      9  C   UNL     1       5.670   4.531  14.592  0.00  0.00    +0.000 A 
ATOM     10  C   UNL     1       6.756   3.885  15.184  0.00  0.00    +0.000 A 
ATOM     11  C   UNL     1       7.286   4.348  16.386  0.00  0.00    +0.000 A 
ATOM     12  C   UNL     1       6.728   5.467  17.003  0.00  0.00    +0.000 A 
ATOM     13  C   UNL     1       5.653   6.148  16.415  0.00  0.00    +0.000 A 
ATOM     14  C   UNL     1       5.116   5.654  15.215  0.00  0.00    +0.000 A 
BRANCH   9  15
ATOM     15  O   UNL     1       5.236   3.958  13.427  0.00  0.00    +0.000 OA
BRANCH  15  17
ATOM     16  C   UNL     1       5.705   2.353  11.726  0.00  0.00    +0.000 C 
ATOM     17  C   UNL     1       6.236   3.550  12.495  0.00  0.00    +0.000 C 
ENDBRANCH  15  17
ENDBRANCH   9  15
ENDBRANCH   1  13
BRANCH   4  18
ATOM     18  N   UNL     1       1.094   8.925  19.354  0.00  0.00    +0.000 N 
ATOM     19  C   UNL     1       0.810   9.471  20.593  0.00  0.00    +0.000 C 
ATOM     20  O   UNL     1       1.344   9.186  21.660  0.00  0.00    +0.000 OA
ATOM     21  H   UNL     1       0.574   9.236  18.547  0.00  0.00    +0.000 HD
BRANCH  19  22
ATOM     22  C   UNL     1      -0.275  10.497  20.635  0.00  0.00    +0.000 A 
ATOM     23  C   UNL     1      -0.953  10.770  19.433  0.00  0.00    +0.000 A 
ATOM     24  C   UNL     1      -1.975  11.717  19.395  0.00  0.00    +0.000 A 
ATOM     25  C   UNL     1      -2.328  12.383  20.559  0.00  0.00    +0.000 A 
ATOM     26  F   UNL     1      -3.305  13.298  20.527  0.00  0.00    +0.000 F 
ATOM     27  C   UNL     1      -1.687  12.109  21.765  0.00  0.00    +0.000 A 
ATOM     28  C   UNL     1      -0.661  11.157  21.808  0.00  0.00    +0.000 A 
ENDBRANCH  19  22
ENDBRANCH   4  18
TORSDOF 5
ENDMDL
MODEL 9
REMARK VINA RESULT:      -7.1      6.541     10.242
REMARK  Name = 
REMARK  6 active torsions:
REMARK  status: ('A' for Active; 'I' for Inactive)
REMARK    1  A    between atoms: C_1  and  C_2
REMARK    2  A    between atoms: C_2  and  O_3
REMARK    3  A    between atoms: O_3  and  C_4
REMARK    4  A    between atoms: C_8  and  N_9
REMARK    5  A    between atoms: C_12  and  N_13
REMARK    6  A    between atoms: C_14  and  C_16
REMARK                            x       y       z     vdW  Elec       q    Type
REMARK                         _______ _______ _______ _____ _____    ______ ____
ROOT
ATOM      1  N   UNL     1       0.510  11.238  18.543  0.00  0.00    +0.000 N 
ATOM      2  C   UNL     1       0.880  10.349  19.586  0.00  0.00    +0.000 A 
ATOM      3  C   UNL     1       1.293   9.064  19.267  0.00  0.00    +0.000 A 
ATOM      4  C   UNL     1       1.557   8.206  20.318  0.00  0.00    +0.000 A 
ATOM      5  N   UNL     1       1.411   8.585  21.590  0.00  0.00    +0.000 NA
ATOM      6  C   UNL     1       0.994   9.831  21.806  0.00  0.00    +0.000 A 
ATOM      7  N   UNL     1       0.722  10.733  20.862  0.00  0.00    +0.000 NA
ATOM      8  H   UNL     1       0.980  10.987  17.679  0.00  0.00    +0.000 HD
ENDROOT
BRANCH   1  13
ATOM      9  C   UNL     1       1.882  14.692  18.741  0.00  0.00    +0.000 A 
ATOM     10  C   UNL     1       0.745  15.414  19.107  0.00  0.00    +0.000 A 
ATOM     11  C   UNL     1      -0.482  14.773  19.259  0.00  0.00    +0.000 A 
ATOM     12  C   UNL     1      -0.577  13.399  19.042  0.00  0.00    +0.000 A 
ATOM     13  C   UNL     1       0.545  12.657  18.649  0.00  0.00    +0.000 A 
ATOM     14  C   UNL     1       1.780  13.314  18.523  0.00  0.00    +0.000 A 
BRANCH   9  15
ATOM     15  O   UNL     1       3.025  15.440  18.650  0.00  0.00    +0.000 OA
BRANCH  15  17
ATOM     16  C   UNL     1       2.957  16.999  16.845  0.00  0.00    +0.000 C 
ATOM     17  C   UNL     1       2.868  16.826  18.351  0.00  0.00    +0.000 C 
ENDBRANCH  15  17
ENDBRANCH   9  15
ENDBRANCH   1  13
BRANCH   4  18
ATOM     18  N   UNL     1       2.004   6.902  20.024  0.00  0.00    +0.000 N 
ATOM     19  C   UNL     1       2.792   6.585  18.931  0.00  0.00    +0.000 C 
ATOM     20  O   UNL     1       3.246   7.368  18.103  0.00  0.00    +0.000 OA
ATOM     21  H   UNL     1       1.681   6.163  20.630  0.00  0.00    +0.000 HD
BRANCH  19  22
ATOM     22  C   UNL     1       3.100   5.137  18.731  0.00  0.00    +0.000 A 
ATOM     23  C   UNL     1       2.292   4.424  17.828  0.00  0.00    +0.000 A 
ATOM     24  C   UNL     1       2.519   3.069  17.591  0.00  0.00    +0.000 A 
ATOM     25  C   UNL     1       3.558   2.429  18.249  0.00  0.00    +0.000 A 
ATOM     26  F   UNL     1       3.777   1.126  18.031  0.00  0.00    +0.000 F 
ATOM     27  C   UNL     1       4.386   3.124  19.128  0.00  0.00    +0.000 A 
ATOM     28  C   UNL     1       4.164   4.485  19.367  0.00  0.00    +0.000 A 
ENDBRANCH  19  22
ENDBRANCH   4  18
TORSDOF 5
ENDMDL
