MODEL 1
REMARK VINA RESULT:      -7.3      0.000      0.000
REMARK  Name = 
REMARK  4 active torsions:
REMARK  status: ('A' for Active; 'I' for Inactive)
REMARK    1  A    between atoms: C_1  and  C_2
REMARK    2  A    between atoms: C_8  and  C_10
REMARK    3  A    between atoms: C_10  and  N_11
REMARK    4  A    between atoms: C_12  and  C_14
REMARK                            x       y       z     vdW  Elec       q    Type
REMARK                         _______ _______ _______ _____ _____    ______ ____
ROOT
ATOM      1  C   UNL     1       8.283   8.990  18.286  0.00  0.00    +0.000 C 
ATOM      2  C   UNL     1       7.918   7.562  18.019  0.00  0.00    +0.000 A 
ATOM      3  C   UNL     1       8.098   6.582  18.995  0.00  0.00    +0.000 A 
ATOM      4  C   UNL     1       7.739   5.284  18.691  0.00  0.00    +0.000 A 
ATOM      5  N   UNL     1       7.204   4.915  17.512  0.00  0.00    +0.000 NA
ATOM      6  C   UNL     1       6.990   5.869  16.588  0.00  0.00    +0.000 A 
ATOM      7  N   UNL     1       6.361   5.539  15.387  0.00  0.00    +0.000 N 
ATOM      8  C   UNL     1       5.638   4.412  15.095  0.00  0.00    +0.000 C 
ATOM      9  O   UNL     1       5.226   4.281  13.937  0.00  0.00    +0.000 OA
ATOM     10  C   UNL     1       7.364   7.192  16.787  0.00  0.00    +0.000 A 
ATOM     11  H   UNL     1       6.385   6.204  14.628  0.00  0.00    +0.000 HD
ENDROOT
BRANCH   8  12
ATOM     12  C   UNL     1       5.359   3.358  16.170  0.00  0.00    +0.000 C 
BRANCH  12  13
ATOM     13  N   UNL     1       4.395   3.864  17.120  0.00  0.00    +0.000 N 
ATOM     14  C   UNL     1       3.633   3.036  17.912  0.00  0.00    +0.000 C 
ATOM     15  O   UNL     1       3.643   1.818  17.771  0.00  0.00    +0.000 OA
ATOM     16  H   UNL     1       4.456   4.848  17.345  0.00  0.00    +0.000 HD
BRANCH  14  17
ATOM     17  C   UNL     1       2.808   3.704  18.910  0.00  0.00    +0.000 A 
ATOM     18  C   UNL     1       1.546   3.321  19.325  0.00  0.00    +0.000 A 
ATOM     19  C   UNL     1       0.996   4.201  20.300  0.00  0.00    +0.000 A 
ATOM     20  C   UNL     1       1.857   5.229  20.606  0.00  0.00    +0.000 A 
ATOM     21  S   UNL     1       3.317   5.127  19.724  0.00  0.00    +0.000 S 
ENDBRANCH  14  17
ENDBRANCH  12  13
ENDBRANCH   8  12
TORSDOF 3
ENDMDL
MODEL 2
REMARK VINA RESULT:      -6.9      2.973      6.337
REMARK  Name = 
REMARK  4 active torsions:
REMARK  status: ('A' for Active; 'I' for Inactive)
REMARK    1  A    between atoms: C_1  and  C_2
REMARK    2  A    between atoms: C_8  and  C_10
REMARK    3  A    between atoms: C_10  and  N_11
REMARK    4  A    between atoms: C_12  and  C_14
REMARK                            x       y       z     vdW  Elec       q    Type
REMARK                         _______ _______ _______ _____ _____    ______ ____
ROOT
ATOM      1  C   UNL     1       1.884   2.742  21.821  0.00  0.00    +0.000 C 
ATOM      2  C   UNL     1       2.497   3.289  20.568  0.00  0.00    +0.000 A 
ATOM      3  C   UNL     1       1.707   3.889  19.588  0.00  0.00    +0.000 A 
ATOM      4  C   UNL     1       2.331   4.378  18.456  0.00  0.00    +0.000 A 
ATOM      5  N   UNL     1       3.662   4.325  18.258  0.00  0.00    +0.000 NA
ATOM      6  C   UNL     1       4.425   3.786  19.224  0.00  0.00    +0.000 A 
ATOM      7  N   UNL     1       5.815   3.791  19.090  0.00  0.00    +0.000 N 
ATOM      8  C   UNL     1       6.577   4.539  18.232  0.00  0.00    +0.000 C 
ATOM      9  O   UNL     1       7.796   4.333  18.222  0.00  0.00    +0.000 OA
ATOM     10  C   UNL     1       3.882   3.226  20.373  0.00  0.00    +0.000 A 
ATOM     11  H   UNL     1       6.364   3.214  19.710  0.00  0.00    +0.000 HD
ENDROOT
BRANCH   8  12
ATOM     12  C   UNL     1       5.933   5.588  17.321  0.00  0.00    +0.000 C 
BRANCH  12  13
ATOM     13  N   UNL     1       5.690   5.024  16.013  0.00  0.00    +0.000 N 
ATOM     14  C   UNL     1       6.618   5.082  14.999  0.00  0.00    +0.000 C 
ATOM     15  O   UNL     1       7.658   5.722  15.110  0.00  0.00    +0.000 OA
ATOM     16  H   UNL     1       4.906   4.390  15.934  0.00  0.00    +0.000 HD
BRANCH  14  17
ATOM     17  C   UNL     1       6.272   4.351  13.788  0.00  0.00    +0.000 A 
ATOM     18  C   UNL     1       5.028   3.841  13.462  0.00  0.00    +0.000 A 
ATOM     19  C   UNL     1       5.023   3.156  12.213  0.00  0.00    +0.000 A 
ATOM     20  C   UNL     1       6.264   3.167  11.619  0.00  0.00    +0.000 A 
ATOM     21  S   UNL     1       7.420   4.001  12.560  0.00  0.00    +0.000 S 
ENDBRANCH  14  17
ENDBRANCH  12  13
ENDBRANCH   8  12
TORSDOF 3
ENDMDL
MODEL 3
REMARK VINA RESULT:      -6.8      2.455      3.971
REMARK  Name = 
REMARK  4 active torsions:
REMARK  status: ('A' for Active; 'I' for Inactive)
REMARK    1  A    between atoms: C_1  and  C_2
REMARK    2  A    between atoms: C_8  and  C_10
REMARK    3  A    between atoms: C_10  and  N_11
REMARK    4  A    between atoms: C_12  and  C_14
REMARK                            x       y       z     vdW  Elec       q    Type
REMARK                         _______ _______ _______ _____ _____    ______ ____
ROOT
ATOM      1  C   UNL     1       6.333   3.559  12.988  0.00  0.00    +0.000 C 
ATOM      2  C   UNL     1       6.200   4.420  14.206  0.00  0.00    +0.000 A 
ATOM      3  C   UNL     1       5.185   5.371  14.303  0.00  0.00    +0.000 A 
ATOM      4  C   UNL     1       5.112   6.132  15.453  0.00  0.00    +0.000 A 
ATOM      5  N   UNL     1       5.954   5.992  16.495  0.00  0.00    +0.000 NA
ATOM      6  C   UNL     1       6.905   5.044  16.416  0.00  0.00    +0.000 A 
ATOM      7  N   UNL     1       7.741   4.814  17.510  0.00  0.00    +0.000 N 
ATOM      8  C   UNL     1       7.565   5.215  18.807  0.00  0.00    +0.000 C 
ATOM      9  O   UNL     1       8.471   4.969  19.611  0.00  0.00    +0.000 OA
ATOM     10  C   UNL     1       7.084   4.265  15.281  0.00  0.00    +0.000 A 
ATOM     11  H   UNL     1       8.569   4.252  17.376  0.00  0.00    +0.000 HD
ENDROOT
BRANCH   8  12
ATOM     12  C   UNL     1       6.288   5.945  19.236  0.00  0.00    +0.000 C 
BRANCH  12  13
ATOM     13  N   UNL     1       5.223   4.994  19.449  0.00  0.00    +0.000 N 
ATOM     14  C   UNL     1       3.897   5.316  19.270  0.00  0.00    +0.000 C 
ATOM     15  O   UNL     1       3.537   6.465  19.036  0.00  0.00    +0.000 OA
ATOM     16  H   UNL     1       5.492   4.021  19.517  0.00  0.00    +0.000 HD
BRANCH  14  17
ATOM     17  C   UNL     1       2.958   4.209  19.394  0.00  0.00    +0.000 A 
ATOM     18  C   UNL     1       1.740   4.233  20.048  0.00  0.00    +0.000 A 
ATOM     19  C   UNL     1       1.069   2.977  20.009  0.00  0.00    +0.000 A 
ATOM     20  C   UNL     1       1.792   2.032  19.320  0.00  0.00    +0.000 A 
ATOM     21  S   UNL     1       3.266   2.659  18.725  0.00  0.00    +0.000 S 
ENDBRANCH  14  17
ENDBRANCH  12  13
ENDBRANCH   8  12
TORSDOF 3
ENDMDL
MODEL 4
REMARK VINA RESULT:      -6.7      3.209      4.782
REMARK  Name = 
REMARK  4 active torsions:
REMARK  status: ('A' for Active; 'I' for Inactive)
REMARK    1  A    between atoms: C_1  and  C_2
REMARK    2  A    between atoms: C_8  and  C_10
REMARK    3  A    between atoms: C_10  and  N_11
REMARK    4  A    between atoms: C_12  and  C_14
REMARK                            x       y       z     vdW  Elec       q    Type
REMARK                         _______ _______ _______ _____ _____    ______ ____
ROOT
ATOM      1  C   UNL     1       6.354   4.020  13.805  0.00  0.00    +0.000 C 
ATOM      2  C   UNL     1       6.079   4.229  15.262  0.00  0.00    +0.000 A 
ATOM      3  C   UNL     1       7.029   4.825  16.092  0.00  0.00    +0.000 A 
ATOM      4  C   UNL     1       6.716   4.994  17.426  0.00  0.00    +0.000 A 
ATOM      5  N   UNL     1       5.535   4.636  17.966  0.00  0.00    +0.000 NA
ATOM      6  C   UNL     1       4.605   4.102  17.155  0.00  0.00    +0.000 A 
ATOM      7  N   UNL     1       3.340   3.796  17.662  0.00  0.00    +0.000 N 
ATOM      8  C   UNL     1       2.773   4.229  18.830  0.00  0.00    +0.000 C 
ATOM      9  O   UNL     1       1.662   3.774  19.130  0.00  0.00    +0.000 OA
ATOM     10  C   UNL     1       4.849   3.850  15.811  0.00  0.00    +0.000 A 
ATOM     11  H   UNL     1       2.723   3.220  17.109  0.00  0.00    +0.000 HD
ENDROOT
BRANCH   8  12
ATOM     12  C   UNL     1       3.495   5.238  19.728  0.00  0.00    +0.000 C 
BRANCH  12  13
ATOM     13  N   UNL     1       2.718   6.451  19.834  0.00  0.00    +0.000 N 
ATOM     14  C   UNL     1       2.684   7.397  18.835  0.00  0.00    +0.000 C 
ATOM     15  O   UNL     1       3.407   7.321  17.848  0.00  0.00    +0.000 OA
ATOM     16  H   UNL     1       2.023   6.479  20.569  0.00  0.00    +0.000 HD
BRANCH  14  17
ATOM     17  C   UNL     1       1.749   8.495  19.041  0.00  0.00    +0.000 A 
ATOM     18  C   UNL     1       1.282   9.370  18.077  0.00  0.00    +0.000 A 
ATOM     19  C   UNL     1       0.393  10.349  18.606  0.00  0.00    +0.000 A 
ATOM     20  C   UNL     1       0.203  10.190  19.959  0.00  0.00    +0.000 A 
ATOM     21  S   UNL     1       1.088   8.867  20.581  0.00  0.00    +0.000 S 
ENDBRANCH  14  17
ENDBRANCH  12  13
ENDBRANCH   8  12
TORSDOF 3
ENDMDL
MODEL 5
REMARK VINA RESULT:      -6.6      2.994      4.598
REMARK  Name = 
REMARK  4 active torsions:
REMARK  status: ('A' for Active; 'I' for Inactive)
REMARK    1  A    between atoms: C_1  and  C_2
REMARK    2  A    between atoms: C_8  and  C_10
REMARK    3  A    between atoms: C_10  and  N_11
REMARK    4  A    between atoms: C_12  and  C_14
REMARK                            x       y       z     vdW  Elec       q    Type
REMARK                         _______ _______ _______ _____ _____    ______ ____
ROOT
ATOM      1  C   UNL     1       6.654   4.282  13.756  0.00  0.00    +0.000 C 
ATOM      2  C   UNL     1       6.330   4.384  15.215  0.00  0.00    +0.000 A 
ATOM      3  C   UNL     1       7.109   5.165  16.068  0.00  0.00    +0.000 A 
ATOM      4  C   UNL     1       6.759   5.223  17.403  0.00  0.00    +0.000 A 
ATOM      5  N   UNL     1       5.693   4.584  17.921  0.00  0.00    +0.000 NA
ATOM      6  C   UNL     1       4.917   3.867  17.088  0.00  0.00    +0.000 A 
ATOM      7  N   UNL     1       3.758   3.261  17.574  0.00  0.00    +0.000 N 
ATOM      8  C   UNL     1       3.099   3.519  18.746  0.00  0.00    +0.000 C 
ATOM      9  O   UNL     1       2.125   2.809  19.024  0.00  0.00    +0.000 OA
ATOM     10  C   UNL     1       5.220   3.713  15.741  0.00  0.00    +0.000 A 
ATOM     11  H   UNL     1       3.297   2.569  17.002  0.00  0.00    +0.000 HD
ENDROOT
BRANCH   8  12
ATOM     12  C   UNL     1       3.559   4.646  19.675  0.00  0.00    +0.000 C 
BRANCH  12  13
ATOM     13  N   UNL     1       3.078   5.917  19.186  0.00  0.00    +0.000 N 
ATOM     14  C   UNL     1       2.170   6.682  19.884  0.00  0.00    +0.000 C 
ATOM     15  O   UNL     1       1.627   6.270  20.903  0.00  0.00    +0.000 OA
ATOM     16  H   UNL     1       3.596   6.334  18.424  0.00  0.00    +0.000 HD
BRANCH  14  17
ATOM     17  C   UNL     1       1.891   7.995  19.320  0.00  0.00    +0.000 A 
ATOM     18  C   UNL     1       2.267   8.451  18.069  0.00  0.00    +0.000 A 
ATOM     19  C   UNL     1       1.858   9.794  17.826  0.00  0.00    +0.000 A 
ATOM     20  C   UNL     1       1.176  10.323  18.897  0.00  0.00    +0.000 A 
ATOM     21  S   UNL     1       1.030   9.205  20.181  0.00  0.00    +0.000 S 
ENDBRANCH  14  17
ENDBRANCH  12  13
ENDBRANCH   8  12
TORSDOF 3
ENDMDL
MODEL 6
REMARK VINA RESULT:      -6.6      2.246      3.761
REMARK  Name = 
REMARK  4 active torsions:
REMARK  status: ('A' for Active; 'I' for Inactive)
REMARK    1  A    between atoms: C_1  and  C_2
REMARK    2  A    between atoms: C_8  and  C_10
REMARK    3  A    between atoms: C_10  and  N_11
REMARK    4  A    between atoms: C_12  and  C_14
REMARK                            x       y       z     vdW  Elec       q    Type
REMARK                         _______ _______ _______ _____ _____    ______ ____
ROOT
ATOM      1  C   UNL     1       7.386   4.698  11.850  0.00  0.00    +0.000 C 
ATOM      2  C   UNL     1       6.920   4.584  13.269  0.00  0.00    +0.000 A 
ATOM      3  C   UNL     1       6.041   3.574  13.656  0.00  0.00    +0.000 A 
ATOM      4  C   UNL     1       5.651   3.519  14.980  0.00  0.00    +0.000 A 
ATOM      5  N   UNL     1       6.091   4.374  15.922  0.00  0.00    +0.000 NA
ATOM      6  C   UNL     1       6.973   5.321  15.556  0.00  0.00    +0.000 A 
ATOM      7  N   UNL     1       7.514   6.172  16.521  0.00  0.00    +0.000 N 
ATOM      8  C   UNL     1       7.511   6.014  17.881  0.00  0.00    +0.000 C 
ATOM      9  O   UNL     1       7.982   6.930  18.565  0.00  0.00    +0.000 OA
ATOM     10  C   UNL     1       7.384   5.482  14.239  0.00  0.00    +0.000 A 
ATOM     11  H   UNL     1       8.011   6.996  16.217  0.00  0.00    +0.000 HD
ENDROOT
BRANCH   8  12
ATOM     12  C   UNL     1       6.941   4.746  18.524  0.00  0.00    +0.000 C 
BRANCH  12  13
ATOM     13  N   UNL     1       5.546   4.938  18.844  0.00  0.00    +0.000 N 
ATOM     14  C   UNL     1       4.777   3.953  19.421  0.00  0.00    +0.000 C 
ATOM     15  O   UNL     1       5.202   2.815  19.586  0.00  0.00    +0.000 OA
ATOM     16  H   UNL     1       5.208   5.892  18.837  0.00  0.00    +0.000 HD
BRANCH  14  17
ATOM     17  C   UNL     1       3.429   4.351  19.803  0.00  0.00    +0.000 A 
ATOM     18  C   UNL     1       2.955   5.645  19.921  0.00  0.00    +0.000 A 
ATOM     19  C   UNL     1       1.593   5.697  20.335  0.00  0.00    +0.000 A 
ATOM     20  C   UNL     1       1.064   4.440  20.516  0.00  0.00    +0.000 A 
ATOM     21  S   UNL     1       2.203   3.211  20.184  0.00  0.00    +0.000 S 
ENDBRANCH  14  17
ENDBRANCH  12  13
ENDBRANCH   8  12
TORSDOF 3
ENDMDL
MODEL 7
REMARK VINA RESULT:      -6.5      2.868      4.608
REMARK  Name = 
REMARK  4 active torsions:
REMARK  status: ('A' for Active; 'I' for Inactive)
REMARK    1  A    between atoms: C_1  and  C_2
REMARK    2  A    between atoms: C_8  and  C_10
REMARK    3  A    between atoms: C_10  and  N_11
REMARK    4  A    between atoms: C_12  and  C_14
REMARK                            x       y       z     vdW  Elec       q    Type
REMARK                         _______ _______ _______ _____ _____    ______ ____
ROOT
ATOM      1  C   UNL     1       6.107   3.805  13.107  0.00  0.00    +0.000 C 
ATOM      2  C   UNL     1       6.070   4.056  14.583  0.00  0.00    +0.000 A 
ATOM      3  C   UNL     1       7.103   4.745  15.219  0.00  0.00    +0.000 A 
ATOM      4  C   UNL     1       7.010   4.948  16.582  0.00  0.00    +0.000 A 
ATOM      5  N   UNL     1       5.966   4.536  17.327  0.00  0.00    +0.000 NA
ATOM      6  C   UNL     1       4.951   3.911  16.704  0.00  0.00    +0.000 A 
ATOM      7  N   UNL     1       3.816   3.546  17.430  0.00  0.00    +0.000 N 
ATOM      8  C   UNL     1       3.427   3.989  18.666  0.00  0.00    +0.000 C 
ATOM      9  O   UNL     1       2.418   3.476  19.166  0.00  0.00    +0.000 OA
ATOM     10  C   UNL     1       4.980   3.621  15.347  0.00  0.00    +0.000 A 
ATOM     11  H   UNL     1       3.157   2.908  17.009  0.00  0.00    +0.000 HD
ENDROOT
BRANCH   8  12
ATOM     12  C   UNL     1       4.218   5.078  19.396  0.00  0.00    +0.000 C 
BRANCH  12  13
ATOM     13  N   UNL     1       3.348   6.181  19.731  0.00  0.00    +0.000 N 
ATOM     14  C   UNL     1       2.994   7.148  18.818  0.00  0.00    +0.000 C 
ATOM     15  O   UNL     1       3.495   7.195  17.700  0.00  0.00    +0.000 OA
ATOM     16  H   UNL     1       2.827   6.098  20.595  0.00  0.00    +0.000 HD
BRANCH  14  17
ATOM     17  C   UNL     1       2.005   8.114  19.277  0.00  0.00    +0.000 A 
ATOM     18  C   UNL     1       1.426   8.165  20.532  0.00  0.00    +0.000 A 
ATOM     19  C   UNL     1       0.475   9.219  20.657  0.00  0.00    +0.000 A 
ATOM     20  C   UNL     1       0.361   9.946  19.495  0.00  0.00    +0.000 A 
ATOM     21  S   UNL     1       1.395   9.361  18.267  0.00  0.00    +0.000 S 
ENDBRANCH  14  17
ENDBRANCH  12  13
ENDBRANCH   8  12
TORSDOF 3
ENDMDL
MODEL 8
REMARK VINA RESULT:      -6.5      3.203      6.304
REMARK  Name = 
REMARK  4 active torsions:
REMARK  status: ('A' for Active; 'I' for Inactive)
REMARK    1  A    between atoms: C_1  and  C_2
REMARK    2  A    between atoms: C_8  and  C_10
REMARK    3  A    between atoms: C_10  and  N_11
REMARK    4  A    between atoms: C_12  and  C_14
REMARK                            x       y       z     vdW  Elec       q    Type
REMARK                         _______ _______ _______ _____ _____    ______ ____
ROOT
ATOM      1  C   UNL     1       0.990   1.896  19.241  0.00  0.00    +0.000 C 
ATOM      2  C   UNL     1       2.130   2.857  19.107  0.00  0.00    +0.000 A 
ATOM      3  C   UNL     1       3.441   2.453  19.358  0.00  0.00    +0.000 A 
ATOM      4  C   UNL     1       4.450   3.385  19.214  0.00  0.00    +0.000 A 
ATOM      5  N   UNL     1       4.240   4.656  18.823  0.00  0.00    +0.000 NA
ATOM      6  C   UNL     1       2.981   5.031  18.538  0.00  0.00    +0.000 A 
ATOM      7  N   UNL     1       2.736   6.315  18.049  0.00  0.00    +0.000 N 
ATOM      8  C   UNL     1       3.636   7.202  17.521  0.00  0.00    +0.000 C 
ATOM      9  O   UNL     1       3.220   8.326  17.215  0.00  0.00    +0.000 OA
ATOM     10  C   UNL     1       1.898   4.177  18.701  0.00  0.00    +0.000 A 
ATOM     11  H   UNL     1       1.786   6.654  18.030  0.00  0.00    +0.000 HD
ENDROOT
BRANCH   8  12
ATOM     12  C   UNL     1       5.103   6.809  17.322  0.00  0.00    +0.000 C 
BRANCH  12  13
ATOM     13  N   UNL     1       5.268   6.142  16.051  0.00  0.00    +0.000 N 
ATOM     14  C   UNL     1       6.490   5.689  15.608  0.00  0.00    +0.000 C 
ATOM     15  O   UNL     1       7.528   5.932  16.213  0.00  0.00    +0.000 OA
ATOM     16  H   UNL     1       4.424   5.820  15.597  0.00  0.00    +0.000 HD
BRANCH  14  17
ATOM     17  C   UNL     1       6.463   4.921  14.370  0.00  0.00    +0.000 A 
ATOM     18  C   UNL     1       5.500   4.004  13.991  0.00  0.00    +0.000 A 
ATOM     19  C   UNL     1       5.776   3.405  12.729  0.00  0.00    +0.000 A 
ATOM     20  C   UNL     1       6.940   3.887  12.177  0.00  0.00    +0.000 A 
ATOM     21  S   UNL     1       7.689   5.054  13.175  0.00  0.00    +0.000 S 
ENDBRANCH  14  17
ENDBRANCH  12  13
ENDBRANCH   8  12
TORSDOF 3
ENDMDL
MODEL 9
REMARK VINA RESULT:      -6.5      3.103      4.934
REMARK  Name = 
REMARK  4 active torsions:
REMARK  status: ('A' for Active; 'I' for Inactive)
REMARK    1  A    between atoms: C_1  and  C_2
REMARK    2  A    between atoms: C_8  and  C_10
REMARK    3  A    between atoms: C_10  and  N_11
REMARK    4  A    between atoms: C_12  and  C_14
REMARK                            x       y       z     vdW  Elec       q    Type
REMARK                         _______ _______ _______ _____ _____    ______ ____
ROOT
ATOM      1  C   UNL     1       5.964   4.006  14.386  0.00  0.00    +0.000 C 
ATOM      2  C   UNL     1       5.660   4.065  15.852  0.00  0.00    +0.000 A 
ATOM      3  C   UNL     1       6.637   4.447  16.771  0.00  0.00    +0.000 A 
ATOM      4  C   UNL     1       6.295   4.486  18.108  0.00  0.00    +0.000 A 
ATOM      5  N   UNL     1       5.064   4.197  18.571  0.00  0.00    +0.000 NA
ATOM      6  C   UNL     1       4.112   3.872  17.679  0.00  0.00    +0.000 A 
ATOM      7  N   UNL     1       2.805   3.649  18.114  0.00  0.00    +0.000 N 
ATOM      8  C   UNL     1       2.244   3.996  19.314  0.00  0.00    +0.000 C 
ATOM      9  O   UNL     1       1.081   3.634  19.530  0.00  0.00    +0.000 OA
ATOM     10  C   UNL     1       4.377   3.760  16.320  0.00  0.00    +0.000 A 
ATOM     11  H   UNL     1       2.150   3.215  17.480  0.00  0.00    +0.000 HD
ENDROOT
BRANCH   8  12
ATOM     12  C   UNL     1       3.037   4.802  20.348  0.00  0.00    +0.000 C 
BRANCH  12  13
ATOM     13  N   UNL     1       2.330   6.019  20.674  0.00  0.00    +0.000 N 
ATOM     14  C   UNL     1       2.323   7.116  19.842  0.00  0.00    +0.000 C 
ATOM     15  O   UNL     1       3.017   7.165  18.832  0.00  0.00    +0.000 OA
ATOM     16  H   UNL     1       1.657   5.962  21.426  0.00  0.00    +0.000 HD
BRANCH  14  17
ATOM     17  C   UNL     1       1.455   8.211  20.253  0.00  0.00    +0.000 A 
ATOM     18  C   UNL     1       0.925   8.411  21.514  0.00  0.00    +0.000 A 
ATOM     19  C   UNL     1       0.094   9.566  21.585  0.00  0.00    +0.000 A 
ATOM     20  C   UNL     1       0.018  10.217  20.376  0.00  0.00    +0.000 A 
ATOM     21  S   UNL     1       0.946   9.441  19.170  0.00  0.00    +0.000 S 
ENDBRANCH  14  17
ENDBRANCH  12  13
ENDBRANCH   8  12
TORSDOF 3
ENDMDL
