MODEL 1
REMARK VINA RESULT:      -6.6      0.000      0.000
REMARK  Name = 
REMARK  20 active torsions:
REMARK  status: ('A' for Active; 'I' for Inactive)
REMARK    1  A    between atoms: C_1  and  C_2
REMARK    2  A    between atoms: C_2  and  C_3
REMARK    3  A    between atoms: C_3  and  C_4
REMARK    4  A    between atoms: C_4  and  C_5
REMARK    5  A    between atoms: C_5  and  C_6
REMARK    6  A    between atoms: C_6  and  C_7
REMARK    7  A    between atoms: C_7  and  C_8
REMARK    8  A    between atoms: C_8  and  C_9
REMARK    9  A    between atoms: C_9  and  C_10
REMARK   10  A    between atoms: C_10  and  C_11
REMARK   11  A    between atoms: C_11  and  C_12
REMARK   12  A    between atoms: C_12  and  C_13
REMARK   13  A    between atoms: C_13  and  C_14
REMARK   14  A    between atoms: C_14  and  C_15
REMARK   15  A    between atoms: C_15  and  C_16
REMARK   16  A    between atoms: C_16  and  O_17
REMARK   17  A    between atoms: C_22  and  O_23
REMARK   18  A    between atoms: C_24  and  C_25
REMARK   19  A    between atoms: C_26  and  O_27
REMARK   20  A    between atoms: C_28  and  C_29
REMARK                            x       y       z     vdW  Elec       q    Type
REMARK                         _______ _______ _______ _____ _____    ______ ____
ROOT
ATOM      1  C   UNL     1       0.816   9.708  18.415  0.00  0.00    +0.000 C 
ATOM      2  C   UNL     1       1.868  10.800  18.268  0.00  0.00    +0.000 C 
ATOM      3  C   UNL     1       1.315  12.054  18.845  0.00  0.00    +0.000 C 
ATOM      4  O   UNL     1       1.548  13.136  18.304  0.00  0.00    +0.000 OA
ATOM      5  C   UNL     1       0.576  11.919  20.125  0.00  0.00    +0.000 C 
ATOM      6  C   UNL     1       0.338  13.028  20.848  0.00  0.00    +0.000 C 
ATOM      7  C   UNL     1      -0.377  12.996  22.180  0.00  0.00    +0.000 C 
ATOM      8  C   UNL     1      -1.618  13.893  22.098  0.00  0.00    +0.000 C 
ATOM      9  C   UNL     1      -0.685  11.564  22.712  0.00  0.00    +0.000 C 
ATOM     10  C   UNL     1      -0.331  10.402  21.807  0.00  0.00    +0.000 C 
ATOM     11  C   UNL     1      -0.606   9.023  22.356  0.00  0.00    +0.000 C 
ATOM     12  C   UNL     1       0.222  10.590  20.594  0.00  0.00    +0.000 C 
ATOM     13  O   UNL     1       0.520   9.492  19.804  0.00  0.00    +0.000 OA
ENDROOT
BRANCH   9  14
ATOM     14  O   UNL     1      -2.064  11.416  23.058  0.00  0.00    +0.000 OA
ATOM     15  H   UNL     1      -2.574  12.040  22.517  0.00  0.00    +0.000 HD
ENDBRANCH   9  14
BRANCH   6  16
ATOM     16  O   UNL     1       0.744  14.301  20.481  0.00  0.00    +0.000 OA
ATOM     17  H   UNL     1       0.609  14.936  21.204  0.00  0.00    +0.000 HD
ENDBRANCH   6  16
BRANCH   1  18
ATOM     18  O   UNL     1      -0.364  10.053  17.687  0.00  0.00    +0.000 OA
ATOM     19  H   UNL     1      -0.153  10.023  16.738  0.00  0.00    +0.000 HD
ENDBRANCH   1  18
BRANCH   1  20
ATOM     20  C   UNL     1       1.337   8.361  17.843  0.00  0.00    +0.000 C 
BRANCH  20  21
ATOM     21  C   UNL     1       2.867   8.349  17.750  0.00  0.00    +0.000 C 
BRANCH  21  22
ATOM     22  C   UNL     1       3.506   7.029  18.140  0.00  0.00    +0.000 C 
BRANCH  22  23
ATOM     23  C   UNL     1       2.459   6.207  18.887  0.00  0.00    +0.000 C 
BRANCH  23  24
ATOM     24  C   UNL     1       3.117   5.331  19.931  0.00  0.00    +0.000 C 
BRANCH  24  25
ATOM     25  C   UNL     1       2.099   4.905  20.974  0.00  0.00    +0.000 C 
BRANCH  25  26
ATOM     26  C   UNL     1       1.021   4.068  20.310  0.00  0.00    +0.000 C 
BRANCH  26  27
ATOM     27  C   UNL     1       1.538   2.670  20.025  0.00  0.00    +0.000 C 
BRANCH  27  28
ATOM     28  C   UNL     1       1.369   2.352  18.550  0.00  0.00    +0.000 C 
BRANCH  28  29
ATOM     29  C   UNL     1       2.727   2.150  17.900  0.00  0.00    +0.000 C 
BRANCH  29  30
ATOM     30  C   UNL     1       3.093   3.366  17.064  0.00  0.00    +0.000 C 
BRANCH  30  31
ATOM     31  C   UNL     1       4.594   3.616  17.121  0.00  0.00    +0.000 C 
BRANCH  31  32
ATOM     32  C   UNL     1       5.075   4.258  15.826  0.00  0.00    +0.000 C 
BRANCH  32  34
ATOM     33  C   UNL     1       7.090   4.659  17.259  0.00  0.00    +0.000 C 
ATOM     34  C   UNL     1       6.588   4.442  15.843  0.00  0.00    +0.000 C 
ENDBRANCH  32  34
ENDBRANCH  31  32
ENDBRANCH  30  31
ENDBRANCH  29  30
ENDBRANCH  28  29
ENDBRANCH  27  28
ENDBRANCH  26  27
ENDBRANCH  25  26
ENDBRANCH  24  25
ENDBRANCH  23  24
ENDBRANCH  22  23
ENDBRANCH  21  22
ENDBRANCH  20  21
ENDBRANCH   1  20
TORSDOF 17
ENDMDL
MODEL 2
REMARK VINA RESULT:      -6.5      1.937      3.079
REMARK  Name = 
REMARK  20 active torsions:
REMARK  status: ('A' for Active; 'I' for Inactive)
REMARK    1  A    between atoms: C_1  and  C_2
REMARK    2  A    between atoms: C_2  and  C_3
REMARK    3  A    between atoms: C_3  and  C_4
REMARK    4  A    between atoms: C_4  and  C_5
REMARK    5  A    between atoms: C_5  and  C_6
REMARK    6  A    between atoms: C_6  and  C_7
REMARK    7  A    between atoms: C_7  and  C_8
REMARK    8  A    between atoms: C_8  and  C_9
REMARK    9  A    between atoms: C_9  and  C_10
REMARK   10  A    between atoms: C_10  and  C_11
REMARK   11  A    between atoms: C_11  and  C_12
REMARK   12  A    between atoms: C_12  and  C_13
REMARK   13  A    between atoms: C_13  and  C_14
REMARK   14  A    between atoms: C_14  and  C_15
REMARK   15  A    between atoms: C_15  and  C_16
REMARK   16  A    between atoms: C_16  and  O_17
REMARK   17  A    between atoms: C_22  and  O_23
REMARK   18  A    between atoms: C_24  and  C_25
REMARK   19  A    between atoms: C_26  and  O_27
REMARK   20  A    between atoms: C_28  and  C_29
REMARK                            x       y       z     vdW  Elec       q    Type
REMARK                         _______ _______ _______ _____ _____    ______ ____
ROOT
ATOM      1  C   UNL     1       1.454   9.641  18.523  0.00  0.00    +0.000 C 
ATOM      2  C   UNL     1       0.088   9.537  17.857  0.00  0.00    +0.000 C 
ATOM      3  C   UNL     1      -0.799  10.568  18.459  0.00  0.00    +0.000 C 
ATOM      4  O   UNL     1      -1.985  10.311  18.671  0.00  0.00    +0.000 OA
ATOM      5  C   UNL     1      -0.195  11.905  18.682  0.00  0.00    +0.000 C 
ATOM      6  C   UNL     1      -1.014  12.946  18.914  0.00  0.00    +0.000 C 
ATOM      7  C   UNL     1      -0.504  14.355  19.122  0.00  0.00    +0.000 C 
ATOM      8  C   UNL     1      -0.980  14.858  20.489  0.00  0.00    +0.000 C 
ATOM      9  C   UNL     1       1.030  14.524  18.901  0.00  0.00    +0.000 C 
ATOM     10  C   UNL     1       1.826  13.268  18.611  0.00  0.00    +0.000 C 
ATOM     11  C   UNL     1       3.305  13.460  18.367  0.00  0.00    +0.000 C 
ATOM     12  C   UNL     1       1.244  12.057  18.549  0.00  0.00    +0.000 C 
ATOM     13  O   UNL     1       2.020  10.940  18.286  0.00  0.00    +0.000 OA
ENDROOT
BRANCH   9  14
ATOM     14  O   UNL     1       1.655  15.164  20.017  0.00  0.00    +0.000 OA
ATOM     15  H   UNL     1       1.065  15.069  20.781  0.00  0.00    +0.000 HD
ENDBRANCH   9  14
BRANCH   6  16
ATOM     16  O   UNL     1      -2.396  12.859  18.954  0.00  0.00    +0.000 OA
ATOM     17  H   UNL     1      -2.717  12.109  18.426  0.00  0.00    +0.000 HD
ENDBRANCH   6  16
BRANCH   1  18
ATOM     18  O   UNL     1       1.346   9.377  19.923  0.00  0.00    +0.000 OA
ATOM     19  H   UNL     1       2.065   9.852  20.376  0.00  0.00    +0.000 HD
ENDBRANCH   1  18
BRANCH   1  20
ATOM     20  C   UNL     1       2.439   8.597  17.928  0.00  0.00    +0.000 C 
BRANCH  20  21
ATOM     21  C   UNL     1       2.046   7.170  18.325  0.00  0.00    +0.000 C 
BRANCH  21  22
ATOM     22  C   UNL     1       2.854   6.597  19.476  0.00  0.00    +0.000 C 
BRANCH  22  23
ATOM     23  C   UNL     1       1.879   5.921  20.437  0.00  0.00    +0.000 C 
BRANCH  23  24
ATOM     24  C   UNL     1       2.144   4.433  20.503  0.00  0.00    +0.000 C 
BRANCH  24  25
ATOM     25  C   UNL     1       0.891   3.661  20.129  0.00  0.00    +0.000 C 
BRANCH  25  26
ATOM     26  C   UNL     1       1.086   3.015  18.771  0.00  0.00    +0.000 C 
BRANCH  26  27
ATOM     27  C   UNL     1       2.563   2.809  18.491  0.00  0.00    +0.000 C 
BRANCH  27  28
ATOM     28  C   UNL     1       2.915   3.396  17.135  0.00  0.00    +0.000 C 
BRANCH  28  29
ATOM     29  C   UNL     1       4.170   4.247  17.243  0.00  0.00    +0.000 C 
BRANCH  29  30
ATOM     30  C   UNL     1       5.026   4.077  15.998  0.00  0.00    +0.000 C 
BRANCH  30  31
ATOM     31  C   UNL     1       5.728   5.384  15.656  0.00  0.00    +0.000 C 
BRANCH  31  32
ATOM     32  C   UNL     1       5.323   6.477  16.636  0.00  0.00    +0.000 C 
BRANCH  32  34
ATOM     33  C   UNL     1       7.391   6.144  18.009  0.00  0.00    +0.000 C 
ATOM     34  C   UNL     1       6.552   7.147  17.239  0.00  0.00    +0.000 C 
ENDBRANCH  32  34
ENDBRANCH  31  32
ENDBRANCH  30  31
ENDBRANCH  29  30
ENDBRANCH  28  29
ENDBRANCH  27  28
ENDBRANCH  26  27
ENDBRANCH  25  26
ENDBRANCH  24  25
ENDBRANCH  23  24
ENDBRANCH  22  23
ENDBRANCH  21  22
ENDBRANCH  20  21
ENDBRANCH   1  20
TORSDOF 17
ENDMDL
MODEL 3
REMARK VINA RESULT:      -6.4      0.976      1.681
REMARK  Name = 
REMARK  20 active torsions:
REMARK  status: ('A' for Active; 'I' for Inactive)
REMARK    1  A    between atoms: C_1  and  C_2
REMARK    2  A    between atoms: C_2  and  C_3
REMARK    3  A    between atoms: C_3  and  C_4
REMARK    4  A    between atoms: C_4  and  C_5
REMARK    5  A    between atoms: C_5  and  C_6
REMARK    6  A    between atoms: C_6  and  C_7
REMARK    7  A    between atoms: C_7  and  C_8
REMARK    8  A    between atoms: C_8  and  C_9
REMARK    9  A    between atoms: C_9  and  C_10
REMARK   10  A    between atoms: C_10  and  C_11
REMARK   11  A    between atoms: C_11  and  C_12
REMARK   12  A    between atoms: C_12  and  C_13
REMARK   13  A    between atoms: C_13  and  C_14
REMARK   14  A    between atoms: C_14  and  C_15
REMARK   15  A    between atoms: C_15  and  C_16
REMARK   16  A    between atoms: C_16  and  O_17
REMARK   17  A    between atoms: C_22  and  O_23
REMARK   18  A    between atoms: C_24  and  C_25
REMARK   19  A    between atoms: C_26  and  O_27
REMARK   20  A    between atoms: C_28  and  C_29
REMARK                            x       y       z     vdW  Elec       q    Type
REMARK                         _______ _______ _______ _____ _____    ______ ____
ROOT
ATOM      1  C   UNL     1       1.127   9.726  18.680  0.00  0.00    +0.000 C 
ATOM      2  C   UNL     1       2.040  10.926  18.468  0.00  0.00    +0.000 C 
ATOM      3  C   UNL     1       1.309  12.146  18.901  0.00  0.00    +0.000 C 
ATOM      4  O   UNL     1       1.432  13.195  18.266  0.00  0.00    +0.000 OA
ATOM      5  C   UNL     1       0.530  12.034  20.159  0.00  0.00    +0.000 C 
ATOM      6  C   UNL     1       0.121  13.165  20.762  0.00  0.00    +0.000 C 
ATOM      7  C   UNL     1      -0.648  13.163  22.064  0.00  0.00    +0.000 C 
ATOM      8  C   UNL     1      -1.985  13.882  21.851  0.00  0.00    +0.000 C 
ATOM      9  C   UNL     1      -0.802  11.757  22.720  0.00  0.00    +0.000 C 
ATOM     10  C   UNL     1      -0.262  10.573  21.944  0.00  0.00    +0.000 C 
ATOM     11  C   UNL     1      -0.390   9.225  22.614  0.00  0.00    +0.000 C 
ATOM     12  C   UNL     1       0.322  10.719  20.741  0.00  0.00    +0.000 C 
ATOM     13  O   UNL     1       0.793   9.601  20.072  0.00  0.00    +0.000 OA
ENDROOT
BRANCH   9  14
ATOM     14  O   UNL     1      -2.167  11.466  23.027  0.00  0.00    +0.000 OA
ATOM     15  H   UNL     1      -2.233  11.328  23.985  0.00  0.00    +0.000 HD
ENDBRANCH   9  14
BRANCH   6  16
ATOM     16  O   UNL     1       0.384  14.440  20.290  0.00  0.00    +0.000 OA
ATOM     17  H   UNL     1       1.098  14.431  19.630  0.00  0.00    +0.000 HD
ENDBRANCH   6  16
BRANCH   1  18
ATOM     18  O   UNL     1      -0.050   9.849  17.880  0.00  0.00    +0.000 OA
ATOM     19  H   UNL     1      -0.615   9.077  18.053  0.00  0.00    +0.000 HD
ENDBRANCH   1  18
BRANCH   1  20
ATOM     20  C   UNL     1       1.838   8.410  18.260  0.00  0.00    +0.000 C 
BRANCH  20  21
ATOM     21  C   UNL     1       2.307   7.615  19.483  0.00  0.00    +0.000 C 
BRANCH  21  22
ATOM     22  C   UNL     1       2.238   6.108  19.313  0.00  0.00    +0.000 C 
BRANCH  22  23
ATOM     23  C   UNL     1       1.788   5.510  20.644  0.00  0.00    +0.000 C 
BRANCH  23  24
ATOM     24  C   UNL     1       2.029   4.017  20.664  0.00  0.00    +0.000 C 
BRANCH  24  25
ATOM     25  C   UNL     1       1.432   3.373  19.425  0.00  0.00    +0.000 C 
BRANCH  25  26
ATOM     26  C   UNL     1       2.123   2.048  19.166  0.00  0.00    +0.000 C 
BRANCH  26  27
ATOM     27  C   UNL     1       2.954   2.123  17.899  0.00  0.00    +0.000 C 
BRANCH  27  28
ATOM     28  C   UNL     1       2.626   3.402  17.147  0.00  0.00    +0.000 C 
BRANCH  28  29
ATOM     29  C   UNL     1       3.899   4.034  16.611  0.00  0.00    +0.000 C 
BRANCH  29  30
ATOM     30  C   UNL     1       4.981   4.019  17.679  0.00  0.00    +0.000 C 
BRANCH  30  31
ATOM     31  C   UNL     1       5.177   5.415  18.254  0.00  0.00    +0.000 C 
BRANCH  31  32
ATOM     32  C   UNL     1       6.340   5.425  19.238  0.00  0.00    +0.000 C 
BRANCH  32  34
ATOM     33  C   UNL     1       7.710   7.109  17.989  0.00  0.00    +0.000 C 
ATOM     34  C   UNL     1       7.658   5.686  18.517  0.00  0.00    +0.000 C 
ENDBRANCH  32  34
ENDBRANCH  31  32
ENDBRANCH  30  31
ENDBRANCH  29  30
ENDBRANCH  28  29
ENDBRANCH  27  28
ENDBRANCH  26  27
ENDBRANCH  25  26
ENDBRANCH  24  25
ENDBRANCH  23  24
ENDBRANCH  22  23
ENDBRANCH  21  22
ENDBRANCH  20  21
ENDBRANCH   1  20
TORSDOF 17
ENDMDL
MODEL 4
REMARK VINA RESULT:      -6.4      6.137      9.990
REMARK  Name = 
REMARK  20 active torsions:
REMARK  status: ('A' for Active; 'I' for Inactive)
REMARK    1  A    between atoms: C_1  and  C_2
REMARK    2  A    between atoms: C_2  and  C_3
REMARK    3  A    between atoms: C_3  and  C_4
REMARK    4  A    between atoms: C_4  and  C_5
REMARK    5  A    between atoms: C_5  and  C_6
REMARK    6  A    between atoms: C_6  and  C_7
REMARK    7  A    between atoms: C_7  and  C_8
REMARK    8  A    between atoms: C_8  and  C_9
REMARK    9  A    between atoms: C_9  and  C_10
REMARK   10  A    between atoms: C_10  and  C_11
REMARK   11  A    between atoms: C_11  and  C_12
REMARK   12  A    between atoms: C_12  and  C_13
REMARK   13  A    between atoms: C_13  and  C_14
REMARK   14  A    between atoms: C_14  and  C_15
REMARK   15  A    between atoms: C_15  and  C_16
REMARK   16  A    between atoms: C_16  and  O_17
REMARK   17  A    between atoms: C_22  and  O_23
REMARK   18  A    between atoms: C_24  and  C_25
REMARK   19  A    between atoms: C_26  and  O_27
REMARK   20  A    between atoms: C_28  and  C_29
REMARK                            x       y       z     vdW  Elec       q    Type
REMARK                         _______ _______ _______ _____ _____    ______ ____
ROOT
ATOM      1  C   UNL     1       5.721   5.804  17.402  0.00  0.00    +0.000 C 
ATOM      2  C   UNL     1       5.420   4.796  16.300  0.00  0.00    +0.000 C 
ATOM      3  C   UNL     1       4.683   3.656  16.906  0.00  0.00    +0.000 C 
ATOM      4  O   UNL     1       4.912   2.505  16.529  0.00  0.00    +0.000 OA
ATOM      5  C   UNL     1       3.624   4.003  17.886  0.00  0.00    +0.000 C 
ATOM      6  C   UNL     1       2.724   3.061  18.217  0.00  0.00    +0.000 C 
ATOM      7  C   UNL     1       1.587   3.321  19.180  0.00  0.00    +0.000 C 
ATOM      8  C   UNL     1       1.686   2.329  20.345  0.00  0.00    +0.000 C 
ATOM      9  C   UNL     1       1.460   4.805  19.642  0.00  0.00    +0.000 C 
ATOM     10  C   UNL     1       2.527   5.768  19.162  0.00  0.00    +0.000 C 
ATOM     11  C   UNL     1       2.366   7.207  19.594  0.00  0.00    +0.000 C 
ATOM     12  C   UNL     1       3.543   5.368  18.376  0.00  0.00    +0.000 C 
ATOM     13  O   UNL     1       4.495   6.290  17.972  0.00  0.00    +0.000 OA
ENDROOT
BRANCH   9  14
ATOM     14  O   UNL     1       1.415   4.910  21.067  0.00  0.00    +0.000 OA
ATOM     15  H   UNL     1       1.435   4.011  21.431  0.00  0.00    +0.000 HD
ENDBRANCH   9  14
BRANCH   6  16
ATOM     16  O   UNL     1       2.710   1.777  17.698  0.00  0.00    +0.000 OA
ATOM     17  H   UNL     1       3.604   1.489  17.448  0.00  0.00    +0.000 HD
ENDBRANCH   6  16
BRANCH   1  18
ATOM     18  O   UNL     1       6.552   5.214  18.402  0.00  0.00    +0.000 OA
ATOM     19  H   UNL     1       6.435   4.249  18.362  0.00  0.00    +0.000 HD
ENDBRANCH   1  18
BRANCH   1  20
ATOM     20  C   UNL     1       6.480   7.033  16.832  0.00  0.00    +0.000 C 
BRANCH  20  21
ATOM     21  C   UNL     1       7.587   7.496  17.785  0.00  0.00    +0.000 C 
BRANCH  21  22
ATOM     22  C   UNL     1       7.998   8.946  17.608  0.00  0.00    +0.000 C 
BRANCH  22  23
ATOM     23  C   UNL     1       8.749   9.373  18.867  0.00  0.00    +0.000 C 
BRANCH  23  24
ATOM     24  C   UNL     1       9.525  10.647  18.617  0.00  0.00    +0.000 C 
BRANCH  24  25
ATOM     25  C   UNL     1      10.405  10.968  19.812  0.00  0.00    +0.000 C 
BRANCH  25  26
ATOM     26  C   UNL     1      11.622  11.745  19.344  0.00  0.00    +0.000 C 
BRANCH  26  27
ATOM     27  C   UNL     1      11.501  12.079  17.869  0.00  0.00    +0.000 C 
BRANCH  27  28
ATOM     28  C   UNL     1      12.306  13.329  17.559  0.00  0.00    +0.000 C 
BRANCH  28  29
ATOM     29  C   UNL     1      11.726  14.521  18.299  0.00  0.00    +0.000 C 
BRANCH  29  30
ATOM     30  C   UNL     1      10.314  14.804  17.812  0.00  0.00    +0.000 C 
BRANCH  30  31
ATOM     31  C   UNL     1       9.438  15.268  18.967  0.00  0.00    +0.000 C 
BRANCH  31  32
ATOM     32  C   UNL     1       8.623  14.105  19.516  0.00  0.00    +0.000 C 
BRANCH  32  34
ATOM     33  C   UNL     1       9.991  14.237  21.610  0.00  0.00    +0.000 C 
ATOM     34  C   UNL     1       8.587  14.139  21.040  0.00  0.00    +0.000 C 
ENDBRANCH  32  34
ENDBRANCH  31  32
ENDBRANCH  30  31
ENDBRANCH  29  30
ENDBRANCH  28  29
ENDBRANCH  27  28
ENDBRANCH  26  27
ENDBRANCH  25  26
ENDBRANCH  24  25
ENDBRANCH  23  24
ENDBRANCH  22  23
ENDBRANCH  21  22
ENDBRANCH  20  21
ENDBRANCH   1  20
TORSDOF 17
ENDMDL
MODEL 5
REMARK VINA RESULT:      -6.4      6.568      8.114
REMARK  Name = 
REMARK  20 active torsions:
REMARK  status: ('A' for Active; 'I' for Inactive)
REMARK    1  A    between atoms: C_1  and  C_2
REMARK    2  A    between atoms: C_2  and  C_3
REMARK    3  A    between atoms: C_3  and  C_4
REMARK    4  A    between atoms: C_4  and  C_5
REMARK    5  A    between atoms: C_5  and  C_6
REMARK    6  A    between atoms: C_6  and  C_7
REMARK    7  A    between atoms: C_7  and  C_8
REMARK    8  A    between atoms: C_8  and  C_9
REMARK    9  A    between atoms: C_9  and  C_10
REMARK   10  A    between atoms: C_10  and  C_11
REMARK   11  A    between atoms: C_11  and  C_12
REMARK   12  A    between atoms: C_12  and  C_13
REMARK   13  A    between atoms: C_13  and  C_14
REMARK   14  A    between atoms: C_14  and  C_15
REMARK   15  A    between atoms: C_15  and  C_16
REMARK   16  A    between atoms: C_16  and  O_17
REMARK   17  A    between atoms: C_22  and  O_23
REMARK   18  A    between atoms: C_24  and  C_25
REMARK   19  A    between atoms: C_26  and  O_27
REMARK   20  A    between atoms: C_28  and  C_29
REMARK                            x       y       z     vdW  Elec       q    Type
REMARK                         _______ _______ _______ _____ _____    ______ ____
ROOT
ATOM      1  C   UNL     1       9.241  10.879  18.603  0.00  0.00    +0.000 C 
ATOM      2  C   UNL     1      10.558  11.108  17.873  0.00  0.00    +0.000 C 
ATOM      3  C   UNL     1      10.801  12.573  17.807  0.00  0.00    +0.000 C 
ATOM      4  O   UNL     1      11.297  13.070  16.794  0.00  0.00    +0.000 OA
ATOM      5  C   UNL     1      10.506  13.345  19.039  0.00  0.00    +0.000 C 
ATOM      6  C   UNL     1      10.999  14.591  19.148  0.00  0.00    +0.000 C 
ATOM      7  C   UNL     1      10.785  15.449  20.376  0.00  0.00    +0.000 C 
ATOM      8  C   UNL     1      10.089  16.749  19.956  0.00  0.00    +0.000 C 
ATOM      9  C   UNL     1      10.073  14.721  21.555  0.00  0.00    +0.000 C 
ATOM     10  C   UNL     1       9.600  13.303  21.304  0.00  0.00    +0.000 C 
ATOM     11  C   UNL     1       8.943  12.605  22.471  0.00  0.00    +0.000 C 
ATOM     12  C   UNL     1       9.779  12.695  20.117  0.00  0.00    +0.000 C 
ATOM     13  O   UNL     1       9.322  11.400  19.939  0.00  0.00    +0.000 OA
ENDROOT
BRANCH   9  14
ATOM     14  O   UNL     1       8.942  15.459  22.024  0.00  0.00    +0.000 OA
ATOM     15  H   UNL     1       8.914  16.299  21.539  0.00  0.00    +0.000 HD
ENDBRANCH   9  14
BRANCH   6  16
ATOM     16  O   UNL     1      11.777  15.210  18.184  0.00  0.00    +0.000 OA
ATOM     17  H   UNL     1      11.707  16.178  18.242  0.00  0.00    +0.000 HD
ENDBRANCH   6  16
BRANCH   1  18
ATOM     18  O   UNL     1       8.163  11.480  17.883  0.00  0.00    +0.000 OA
ATOM     19  H   UNL     1       7.427  10.844  17.857  0.00  0.00    +0.000 HD
ENDBRANCH   1  18
BRANCH   1  20
ATOM     20  C   UNL     1       8.932   9.361  18.720  0.00  0.00    +0.000 C 
BRANCH  20  21
ATOM     21  C   UNL     1       7.687   8.981  17.912  0.00  0.00    +0.000 C 
BRANCH  21  22
ATOM     22  C   UNL     1       7.744   7.598  17.290  0.00  0.00    +0.000 C 
BRANCH  22  23
ATOM     23  C   UNL     1       6.406   6.913  17.555  0.00  0.00    +0.000 C 
BRANCH  23  24
ATOM     24  C   UNL     1       6.594   5.708  18.451  0.00  0.00    +0.000 C 
BRANCH  24  25
ATOM     25  C   UNL     1       5.284   5.350  19.129  0.00  0.00    +0.000 C 
BRANCH  25  26
ATOM     26  C   UNL     1       4.819   3.993  18.635  0.00  0.00    +0.000 C 
BRANCH  26  27
ATOM     27  C   UNL     1       3.607   4.144  17.735  0.00  0.00    +0.000 C 
BRANCH  27  28
ATOM     28  C   UNL     1       3.020   2.777  17.430  0.00  0.00    +0.000 C 
BRANCH  28  29
ATOM     29  C   UNL     1       2.836   1.989  18.715  0.00  0.00    +0.000 C 
BRANCH  29  30
ATOM     30  C   UNL     1       1.501   2.334  19.354  0.00  0.00    +0.000 C 
BRANCH  30  31
ATOM     31  C   UNL     1       1.660   2.499  20.859  0.00  0.00    +0.000 C 
BRANCH  31  32
ATOM     32  C   UNL     1       2.124   3.911  21.192  0.00  0.00    +0.000 C 
BRANCH  32  34
ATOM     33  C   UNL     1       1.912   6.273  20.387  0.00  0.00    +0.000 C 
ATOM     34  C   UNL     1       1.196   4.948  20.570  0.00  0.00    +0.000 C 
ENDBRANCH  32  34
ENDBRANCH  31  32
ENDBRANCH  30  31
ENDBRANCH  29  30
ENDBRANCH  28  29
ENDBRANCH  27  28
ENDBRANCH  26  27
ENDBRANCH  25  26
ENDBRANCH  24  25
ENDBRANCH  23  24
ENDBRANCH  22  23
ENDBRANCH  21  22
ENDBRANCH  20  21
ENDBRANCH   1  20
TORSDOF 17
ENDMDL
MODEL 6
REMARK VINA RESULT:      -6.3      1.618      2.415
REMARK  Name = 
REMARK  20 active torsions:
REMARK  status: ('A' for Active; 'I' for Inactive)
REMARK    1  A    between atoms: C_1  and  C_2
REMARK    2  A    between atoms: C_2  and  C_3
REMARK    3  A    between atoms: C_3  and  C_4
REMARK    4  A    between atoms: C_4  and  C_5
REMARK    5  A    between atoms: C_5  and  C_6
REMARK    6  A    between atoms: C_6  and  C_7
REMARK    7  A    between atoms: C_7  and  C_8
REMARK    8  A    between atoms: C_8  and  C_9
REMARK    9  A    between atoms: C_9  and  C_10
REMARK   10  A    between atoms: C_10  and  C_11
REMARK   11  A    between atoms: C_11  and  C_12
REMARK   12  A    between atoms: C_12  and  C_13
REMARK   13  A    between atoms: C_13  and  C_14
REMARK   14  A    between atoms: C_14  and  C_15
REMARK   15  A    between atoms: C_15  and  C_16
REMARK   16  A    between atoms: C_16  and  O_17
REMARK   17  A    between atoms: C_22  and  O_23
REMARK   18  A    between atoms: C_24  and  C_25
REMARK   19  A    between atoms: C_26  and  O_27
REMARK   20  A    between atoms: C_28  and  C_29
REMARK                            x       y       z     vdW  Elec       q    Type
REMARK                         _______ _______ _______ _____ _____    ______ ____
ROOT
ATOM      1  C   UNL     1       0.831   9.819  18.988  0.00  0.00    +0.000 C 
ATOM      2  C   UNL     1       0.906   9.131  20.345  0.00  0.00    +0.000 C 
ATOM      3  C   UNL     1       0.568  10.132  21.390  0.00  0.00    +0.000 C 
ATOM      4  O   UNL     1       1.171  10.127  22.465  0.00  0.00    +0.000 OA
ATOM      5  C   UNL     1      -0.571  11.035  21.092  0.00  0.00    +0.000 C 
ATOM      6  C   UNL     1      -1.122  11.728  22.105  0.00  0.00    +0.000 C 
ATOM      7  C   UNL     1      -2.306  12.649  21.915  0.00  0.00    +0.000 C 
ATOM      8  C   UNL     1      -1.917  14.058  22.378  0.00  0.00    +0.000 C 
ATOM      9  C   UNL     1      -2.923  12.618  20.484  0.00  0.00    +0.000 C 
ATOM     10  C   UNL     1      -2.219  11.765  19.449  0.00  0.00    +0.000 C 
ATOM     11  C   UNL     1      -2.854  11.723  18.079  0.00  0.00    +0.000 C 
ATOM     12  C   UNL     1      -1.108  11.065  19.742  0.00  0.00    +0.000 C 
ATOM     13  O   UNL     1      -0.500  10.306  18.756  0.00  0.00    +0.000 OA
ENDROOT
BRANCH   9  14
ATOM     14  O   UNL     1      -3.038  13.932  19.932  0.00  0.00    +0.000 OA
ATOM     15  H   UNL     1      -3.740  14.396  20.414  0.00  0.00    +0.000 HD
ENDBRANCH   9  14
BRANCH   6  16
ATOM     16  O   UNL     1      -0.700  11.652  23.422  0.00  0.00    +0.000 OA
ATOM     17  H   UNL     1      -1.430  11.840  24.037  0.00  0.00    +0.000 HD
ENDBRANCH   6  16
BRANCH   1  18
ATOM     18  O   UNL     1       1.784  10.881  18.916  0.00  0.00    +0.000 OA
ATOM     19  H   UNL     1       2.341  10.734  18.133  0.00  0.00    +0.000 HD
ENDBRANCH   1  18
BRANCH   1  20
ATOM     20  C   UNL     1       1.161   8.821  17.844  0.00  0.00    +0.000 C 
BRANCH  20  21
ATOM     21  C   UNL     1       2.669   8.746  17.588  0.00  0.00    +0.000 C 
BRANCH  21  22
ATOM     22  C   UNL     1       3.335   7.496  18.136  0.00  0.00    +0.000 C 
BRANCH  22  23
ATOM     23  C   UNL     1       2.260   6.421  18.277  0.00  0.00    +0.000 C 
BRANCH  23  24
ATOM     24  C   UNL     1       1.995   6.123  19.737  0.00  0.00    +0.000 C 
BRANCH  24  25
ATOM     25  C   UNL     1       3.014   5.127  20.262  0.00  0.00    +0.000 C 
BRANCH  25  26
ATOM     26  C   UNL     1       2.292   4.010  20.993  0.00  0.00    +0.000 C 
BRANCH  26  27
ATOM     27  C   UNL     1       1.141   3.487  20.154  0.00  0.00    +0.000 C 
BRANCH  27  28
ATOM     28  C   UNL     1       1.586   2.257  19.382  0.00  0.00    +0.000 C 
BRANCH  28  29
ATOM     29  C   UNL     1       1.973   2.641  17.965  0.00  0.00    +0.000 C 
BRANCH  29  30
ATOM     30  C   UNL     1       3.467   2.449  17.759  0.00  0.00    +0.000 C 
BRANCH  30  31
ATOM     31  C   UNL     1       4.037   3.583  16.917  0.00  0.00    +0.000 C 
BRANCH  31  32
ATOM     32  C   UNL     1       5.245   4.202  17.608  0.00  0.00    +0.000 C 
BRANCH  32  34
ATOM     33  C   UNL     1       5.498   5.122  15.292  0.00  0.00    +0.000 C 
ATOM     34  C   UNL     1       5.842   5.317  16.758  0.00  0.00    +0.000 C 
ENDBRANCH  32  34
ENDBRANCH  31  32
ENDBRANCH  30  31
ENDBRANCH  29  30
ENDBRANCH  28  29
ENDBRANCH  27  28
ENDBRANCH  26  27
ENDBRANCH  25  26
ENDBRANCH  24  25
ENDBRANCH  23  24
ENDBRANCH  22  23
ENDBRANCH  21  22
ENDBRANCH  20  21
ENDBRANCH   1  20
TORSDOF 17
ENDMDL
MODEL 7
REMARK VINA RESULT:      -6.3      1.693      3.658
REMARK  Name = 
REMARK  20 active torsions:
REMARK  status: ('A' for Active; 'I' for Inactive)
REMARK    1  A    between atoms: C_1  and  C_2
REMARK    2  A    between atoms: C_2  and  C_3
REMARK    3  A    between atoms: C_3  and  C_4
REMARK    4  A    between atoms: C_4  and  C_5
REMARK    5  A    between atoms: C_5  and  C_6
REMARK    6  A    between atoms: C_6  and  C_7
REMARK    7  A    between atoms: C_7  and  C_8
REMARK    8  A    between atoms: C_8  and  C_9
REMARK    9  A    between atoms: C_9  and  C_10
REMARK   10  A    between atoms: C_10  and  C_11
REMARK   11  A    between atoms: C_11  and  C_12
REMARK   12  A    between atoms: C_12  and  C_13
REMARK   13  A    between atoms: C_13  and  C_14
REMARK   14  A    between atoms: C_14  and  C_15
REMARK   15  A    between atoms: C_15  and  C_16
REMARK   16  A    between atoms: C_16  and  O_17
REMARK   17  A    between atoms: C_22  and  O_23
REMARK   18  A    between atoms: C_24  and  C_25
REMARK   19  A    between atoms: C_26  and  O_27
REMARK   20  A    between atoms: C_28  and  C_29
REMARK                            x       y       z     vdW  Elec       q    Type
REMARK                         _______ _______ _______ _____ _____    ______ ____
ROOT
ATOM      1  C   UNL     1       1.263   9.422  18.925  0.00  0.00    +0.000 C 
ATOM      2  C   UNL     1       1.260   8.740  20.287  0.00  0.00    +0.000 C 
ATOM      3  C   UNL     1       0.857   9.746  21.306  0.00  0.00    +0.000 C 
ATOM      4  O   UNL     1       1.395   9.748  22.414  0.00  0.00    +0.000 OA
ATOM      5  C   UNL     1      -0.265  10.644  20.936  0.00  0.00    +0.000 C 
ATOM      6  C   UNL     1      -0.876  11.340  21.911  0.00  0.00    +0.000 C 
ATOM      7  C   UNL     1      -2.049  12.257  21.646  0.00  0.00    +0.000 C 
ATOM      8  C   UNL     1      -1.692  13.669  22.124  0.00  0.00    +0.000 C 
ATOM      9  C   UNL     1      -2.581  12.217  20.181  0.00  0.00    +0.000 C 
ATOM     10  C   UNL     1      -1.814  11.361  19.194  0.00  0.00    +0.000 C 
ATOM     11  C   UNL     1      -2.367  11.310  17.789  0.00  0.00    +0.000 C 
ATOM     12  C   UNL     1      -0.721  10.666  19.556  0.00  0.00    +0.000 C 
ATOM     13  O   UNL     1      -0.054   9.903  18.612  0.00  0.00    +0.000 OA
ENDROOT
BRANCH   9  14
ATOM     14  O   UNL     1      -2.666  13.528  19.617  0.00  0.00    +0.000 OA
ATOM     15  H   UNL     1      -2.279  14.150  20.252  0.00  0.00    +0.000 HD
ENDBRANCH   9  14
BRANCH   6  16
ATOM     16  O   UNL     1      -0.533  11.272  23.251  0.00  0.00    +0.000 OA
ATOM     17  H   UNL     1      -1.315  11.366  23.820  0.00  0.00    +0.000 HD
ENDBRANCH   6  16
BRANCH   1  18
ATOM     18  O   UNL     1       2.216  10.486  18.904  0.00  0.00    +0.000 OA
ATOM     19  H   UNL     1       2.408  10.701  17.975  0.00  0.00    +0.000 HD
ENDBRANCH   1  18
BRANCH   1  20
ATOM     20  C   UNL     1       1.662   8.419  17.807  0.00  0.00    +0.000 C 
BRANCH  20  21
ATOM     21  C   UNL     1       2.907   7.617  18.197  0.00  0.00    +0.000 C 
BRANCH  21  22
ATOM     22  C   UNL     1       3.849   7.324  17.043  0.00  0.00    +0.000 C 
BRANCH  22  23
ATOM     23  C   UNL     1       5.225   7.020  17.631  0.00  0.00    +0.000 C 
BRANCH  23  24
ATOM     24  C   UNL     1       5.455   5.526  17.699  0.00  0.00    +0.000 C 
BRANCH  24  25
ATOM     25  C   UNL     1       5.035   4.871  16.395  0.00  0.00    +0.000 C 
BRANCH  25  26
ATOM     26  C   UNL     1       4.446   3.504  16.688  0.00  0.00    +0.000 C 
BRANCH  26  27
ATOM     27  C   UNL     1       4.718   3.109  18.127  0.00  0.00    +0.000 C 
BRANCH  27  28
ATOM     28  C   UNL     1       3.668   2.114  18.592  0.00  0.00    +0.000 C 
BRANCH  28  29
ATOM     29  C   UNL     1       2.433   2.208  17.713  0.00  0.00    +0.000 C 
BRANCH  29  30
ATOM     30  C   UNL     1       1.247   2.701  18.527  0.00  0.00    +0.000 C 
BRANCH  30  31
ATOM     31  C   UNL     1       1.397   4.184  18.839  0.00  0.00    +0.000 C 
BRANCH  31  32
ATOM     32  C   UNL     1       1.060   4.456  20.299  0.00  0.00    +0.000 C 
BRANCH  32  34
ATOM     33  C   UNL     1       1.662   2.655  21.932  0.00  0.00    +0.000 C 
ATOM     34  C   UNL     1       2.145   3.905  21.217  0.00  0.00    +0.000 C 
ENDBRANCH  32  34
ENDBRANCH  31  32
ENDBRANCH  30  31
ENDBRANCH  29  30
ENDBRANCH  28  29
ENDBRANCH  27  28
ENDBRANCH  26  27
ENDBRANCH  25  26
ENDBRANCH  24  25
ENDBRANCH  23  24
ENDBRANCH  22  23
ENDBRANCH  21  22
ENDBRANCH  20  21
ENDBRANCH   1  20
TORSDOF 17
ENDMDL
MODEL 8
REMARK VINA RESULT:      -6.3      1.880      2.801
REMARK  Name = 
REMARK  20 active torsions:
REMARK  status: ('A' for Active; 'I' for Inactive)
REMARK    1  A    between atoms: C_1  and  C_2
REMARK    2  A    between atoms: C_2  and  C_3
REMARK    3  A    between atoms: C_3  and  C_4
REMARK    4  A    between atoms: C_4  and  C_5
REMARK    5  A    between atoms: C_5  and  C_6
REMARK    6  A    between atoms: C_6  and  C_7
REMARK    7  A    between atoms: C_7  and  C_8
REMARK    8  A    between atoms: C_8  and  C_9
REMARK    9  A    between atoms: C_9  and  C_10
REMARK   10  A    between atoms: C_10  and  C_11
REMARK   11  A    between atoms: C_11  and  C_12
REMARK   12  A    between atoms: C_12  and  C_13
REMARK   13  A    between atoms: C_13  and  C_14
REMARK   14  A    between atoms: C_14  and  C_15
REMARK   15  A    between atoms: C_15  and  C_16
REMARK   16  A    between atoms: C_16  and  O_17
REMARK   17  A    between atoms: C_22  and  O_23
REMARK   18  A    between atoms: C_24  and  C_25
REMARK   19  A    between atoms: C_26  and  O_27
REMARK   20  A    between atoms: C_28  and  C_29
REMARK                            x       y       z     vdW  Elec       q    Type
REMARK                         _______ _______ _______ _____ _____    ______ ____
ROOT
ATOM      1  C   UNL     1       1.189   9.608  18.879  0.00  0.00    +0.000 C 
ATOM      2  C   UNL     1       1.214   8.893  20.224  0.00  0.00    +0.000 C 
ATOM      3  C   UNL     1       0.812   9.866  21.273  0.00  0.00    +0.000 C 
ATOM      4  O   UNL     1       1.366   9.849  22.374  0.00  0.00    +0.000 OA
ATOM      5  C   UNL     1      -0.328  10.757  20.941  0.00  0.00    +0.000 C 
ATOM      6  C   UNL     1      -0.935  11.420  21.942  0.00  0.00    +0.000 C 
ATOM      7  C   UNL     1      -2.125  12.326  21.716  0.00  0.00    +0.000 C 
ATOM      8  C   UNL     1      -1.782  13.731  22.224  0.00  0.00    +0.000 C 
ATOM      9  C   UNL     1      -2.677  12.314  20.258  0.00  0.00    +0.000 C 
ATOM     10  C   UNL     1      -1.912  11.494  19.240  0.00  0.00    +0.000 C 
ATOM     11  C   UNL     1      -2.483  11.470  17.841  0.00  0.00    +0.000 C 
ATOM     12  C   UNL     1      -0.803  10.806  19.569  0.00  0.00    +0.000 C 
ATOM     13  O   UNL     1      -0.139  10.077  18.597  0.00  0.00    +0.000 OA
ENDROOT
BRANCH   9  14
ATOM     14  O   UNL     1      -2.789  13.637  19.727  0.00  0.00    +0.000 OA
ATOM     15  H   UNL     1      -3.710  13.922  19.833  0.00  0.00    +0.000 HD
ENDBRANCH   9  14
BRANCH   6  16
ATOM     16  O   UNL     1      -0.572  11.324  23.275  0.00  0.00    +0.000 OA
ATOM     17  H   UNL     1      -0.951  10.529  23.687  0.00  0.00    +0.000 HD
ENDBRANCH   6  16
BRANCH   1  18
ATOM     18  O   UNL     1       2.126  10.686  18.872  0.00  0.00    +0.000 OA
ATOM     19  H   UNL     1       1.939  11.253  19.640  0.00  0.00    +0.000 HD
ENDBRANCH   1  18
BRANCH   1  20
ATOM     20  C   UNL     1       1.586   8.639  17.732  0.00  0.00    +0.000 C 
BRANCH  20  21
ATOM     21  C   UNL     1       2.529   7.540  18.232  0.00  0.00    +0.000 C 
BRANCH  21  22
ATOM     22  C   UNL     1       1.938   6.142  18.190  0.00  0.00    +0.000 C 
BRANCH  22  23
ATOM     23  C   UNL     1       2.153   5.506  19.561  0.00  0.00    +0.000 C 
BRANCH  23  24
ATOM     24  C   UNL     1       1.372   4.215  19.676  0.00  0.00    +0.000 C 
BRANCH  24  25
ATOM     25  C   UNL     1       1.187   3.591  18.303  0.00  0.00    +0.000 C 
BRANCH  25  26
ATOM     26  C   UNL     1       2.357   2.671  18.009  0.00  0.00    +0.000 C 
BRANCH  26  27
ATOM     27  C   UNL     1       3.084   2.313  19.291  0.00  0.00    +0.000 C 
BRANCH  27  28
ATOM     28  C   UNL     1       4.540   2.737  19.191  0.00  0.00    +0.000 C 
BRANCH  28  29
ATOM     29  C   UNL     1       4.825   3.303  17.811  0.00  0.00    +0.000 C 
BRANCH  29  30
ATOM     30  C   UNL     1       5.297   4.744  17.923  0.00  0.00    +0.000 C 
BRANCH  30  31
ATOM     31  C   UNL     1       5.134   5.461  16.590  0.00  0.00    +0.000 C 
BRANCH  31  32
ATOM     32  C   UNL     1       5.878   6.790  16.608  0.00  0.00    +0.000 C 
BRANCH  32  34
ATOM     33  C   UNL     1       7.800   8.026  17.631  0.00  0.00    +0.000 C 
ATOM     34  C   UNL     1       7.202   6.660  17.352  0.00  0.00    +0.000 C 
ENDBRANCH  32  34
ENDBRANCH  31  32
ENDBRANCH  30  31
ENDBRANCH  29  30
ENDBRANCH  28  29
ENDBRANCH  27  28
ENDBRANCH  26  27
ENDBRANCH  25  26
ENDBRANCH  24  25
ENDBRANCH  23  24
ENDBRANCH  22  23
ENDBRANCH  21  22
ENDBRANCH  20  21
ENDBRANCH   1  20
TORSDOF 17
ENDMDL
MODEL 9
REMARK VINA RESULT:      -6.2      2.525      4.129
REMARK  Name = 
REMARK  20 active torsions:
REMARK  status: ('A' for Active; 'I' for Inactive)
REMARK    1  A    between atoms: C_1  and  C_2
REMARK    2  A    between atoms: C_2  and  C_3
REMARK    3  A    between atoms: C_3  and  C_4
REMARK    4  A    between atoms: C_4  and  C_5
REMARK    5  A    between atoms: C_5  and  C_6
REMARK    6  A    between atoms: C_6  and  C_7
REMARK    7  A    between atoms: C_7  and  C_8
REMARK    8  A    between atoms: C_8  and  C_9
REMARK    9  A    between atoms: C_9  and  C_10
REMARK   10  A    between atoms: C_10  and  C_11
REMARK   11  A    between atoms: C_11  and  C_12
REMARK   12  A    between atoms: C_12  and  C_13
REMARK   13  A    between atoms: C_13  and  C_14
REMARK   14  A    between atoms: C_14  and  C_15
REMARK   15  A    between atoms: C_15  and  C_16
REMARK   16  A    between atoms: C_16  and  O_17
REMARK   17  A    between atoms: C_22  and  O_23
REMARK   18  A    between atoms: C_24  and  C_25
REMARK   19  A    between atoms: C_26  and  O_27
REMARK   20  A    between atoms: C_28  and  C_29
REMARK                            x       y       z     vdW  Elec       q    Type
REMARK                         _______ _______ _______ _____ _____    ______ ____
ROOT
ATOM      1  C   UNL     1      -0.541  10.807  18.692  0.00  0.00    +0.000 C 
ATOM      2  C   UNL     1      -0.302  10.620  20.185  0.00  0.00    +0.000 C 
ATOM      3  C   UNL     1      -0.955  11.747  20.902  0.00  0.00    +0.000 C 
ATOM      4  O   UNL     1      -0.409  12.248  21.887  0.00  0.00    +0.000 OA
ATOM      5  C   UNL     1      -2.303  12.139  20.422  0.00  0.00    +0.000 C 
ATOM      6  C   UNL     1      -3.065  12.915  21.214  0.00  0.00    +0.000 C 
ATOM      7  C   UNL     1      -4.464  13.343  20.834  0.00  0.00    +0.000 C 
ATOM      8  C   UNL     1      -4.529  14.875  20.827  0.00  0.00    +0.000 C 
ATOM      9  C   UNL     1      -5.003  12.697  19.522  0.00  0.00    +0.000 C 
ATOM     10  C   UNL     1      -4.046  11.814  18.747  0.00  0.00    +0.000 C 
ATOM     11  C   UNL     1      -4.599  11.171  17.497  0.00  0.00    +0.000 C 
ATOM     12  C   UNL     1      -2.785  11.596  19.163  0.00  0.00    +0.000 C 
ATOM     13  O   UNL     1      -1.950  10.785  18.413  0.00  0.00    +0.000 OA
ENDROOT
BRANCH   9  14
ATOM     14  O   UNL     1      -5.490  13.684  18.610  0.00  0.00    +0.000 OA
ATOM     15  H   UNL     1      -4.890  14.446  18.650  0.00  0.00    +0.000 HD
ENDBRANCH   9  14
BRANCH   6  16
ATOM     16  O   UNL     1      -2.678  13.373  22.463  0.00  0.00    +0.000 OA
ATOM     17  H   UNL     1      -3.315  14.017  22.815  0.00  0.00    +0.000 HD
ENDBRANCH   6  16
BRANCH   1  18
ATOM     18  O   UNL     1       0.052  12.026  18.243  0.00  0.00    +0.000 OA
ATOM     19  H   UNL     1      -0.660  12.608  17.923  0.00  0.00    +0.000 HD
ENDBRANCH   1  18
BRANCH   1  20
ATOM     20  C   UNL     1       0.105   9.650  17.881  0.00  0.00    +0.000 C 
BRANCH  20  21
ATOM     21  C   UNL     1       1.633   9.688  17.976  0.00  0.00    +0.000 C 
BRANCH  21  22
ATOM     22  C   UNL     1       2.248   8.479  18.660  0.00  0.00    +0.000 C 
BRANCH  22  23
ATOM     23  C   UNL     1       2.630   7.476  17.575  0.00  0.00    +0.000 C 
BRANCH  23  24
ATOM     24  C   UNL     1       3.848   6.682  17.992  0.00  0.00    +0.000 C 
BRANCH  24  25
ATOM     25  C   UNL     1       4.711   6.370  16.781  0.00  0.00    +0.000 C 
BRANCH  25  26
ATOM     26  C   UNL     1       5.075   4.898  16.790  0.00  0.00    +0.000 C 
BRANCH  26  27
ATOM     27  C   UNL     1       4.672   4.262  18.107  0.00  0.00    +0.000 C 
BRANCH  27  28
ATOM     28  C   UNL     1       3.933   2.961  17.844  0.00  0.00    +0.000 C 
BRANCH  28  29
ATOM     29  C   UNL     1       2.657   3.234  17.066  0.00  0.00    +0.000 C 
BRANCH  29  30
ATOM     30  C   UNL     1       1.634   3.916  17.960  0.00  0.00    +0.000 C 
BRANCH  30  31
ATOM     31  C   UNL     1       1.159   2.960  19.047  0.00  0.00    +0.000 C 
BRANCH  31  32
ATOM     32  C   UNL     1       0.842   3.725  20.325  0.00  0.00    +0.000 C 
BRANCH  32  34
ATOM     33  C   UNL     1       2.783   2.543  21.376  0.00  0.00    +0.000 C 
ATOM     34  C   UNL     1       1.335   2.962  21.549  0.00  0.00    +0.000 C 
ENDBRANCH  32  34
ENDBRANCH  31  32
ENDBRANCH  30  31
ENDBRANCH  29  30
ENDBRANCH  28  29
ENDBRANCH  27  28
ENDBRANCH  26  27
ENDBRANCH  25  26
ENDBRANCH  24  25
ENDBRANCH  23  24
ENDBRANCH  22  23
ENDBRANCH  21  22
ENDBRANCH  20  21
ENDBRANCH   1  20
TORSDOF 17
ENDMDL
