MODEL 1
REMARK VINA RESULT:      -7.7      0.000      0.000
REMARK  Name = 
REMARK  17 active torsions:
REMARK  status: ('A' for Active; 'I' for Inactive)
REMARK    1  A    between atoms: C_1  and  O_2
REMARK    2  A    between atoms: O_2  and  C_3
REMARK    3  A    between atoms: C_6  and  C_7
REMARK    4  A    between atoms: C_8  and  C_9
REMARK    5  A    between atoms: N_11  and  C_12
REMARK    6  A    between atoms: C_12  and  CA_13
REMARK    7  A    between atoms: CA_13  and  N_14
REMARK    8  A    between atoms: CA_13  and  C_29
REMARK    9  A    between atoms: C_15  and  C_17
REMARK   10  A    between atoms: C_18  and  C_19
REMARK   11  A    between atoms: C_22  and  O_23
REMARK   12  A    between atoms: O_23  and  C_24
REMARK   13  A    between atoms: C_25  and  O_26
REMARK   14  A    between atoms: O_26  and  C_27
REMARK   15  A    between atoms: C_29  and  OXT_31
REMARK   16  A    between atoms: C_33  and  O_34
REMARK   17  A    between atoms: O_34  and  C_35
REMARK                            x       y       z     vdW  Elec       q    Type
REMARK                         _______ _______ _______ _____ _____    ______ ____
ROOT
ATOM      1  CA  UNL     1       5.937   4.547  17.817  0.00  0.00    +0.000 C 
ENDROOT
BRANCH   1   2
ATOM      2  N   UNL     1       4.967   5.482  18.424  0.00  0.00    +0.000 N 
ATOM      3  C   UNL     1       3.924   5.013  19.173  0.00  0.00    +0.000 C 
ATOM      4  O   UNL     1       3.735   3.816  19.339  0.00  0.00    +0.000 OA
ATOM      5  H   UNL     1       5.005   6.456  18.153  0.00  0.00    +0.000 HD
BRANCH   3   6
ATOM      6  C   UNL     1       2.967   6.054  19.610  0.00  0.00    +0.000 C 
ATOM      7  C   UNL     1       2.588   7.010  18.745  0.00  0.00    +0.000 C 
BRANCH   7   8
ATOM      8  C   UNL     1       1.844   8.214  19.150  0.00  0.00    +0.000 A 
ATOM      9  C   UNL     1       1.479   9.175  18.209  0.00  0.00    +0.000 A 
ATOM     10  C   UNL     1       0.856  10.357  18.626  0.00  0.00    +0.000 A 
ATOM     11  C   UNL     1       0.600  10.612  19.982  0.00  0.00    +0.000 A 
ATOM     12  C   UNL     1       0.989   9.663  20.941  0.00  0.00    +0.000 A 
ATOM     13  C   UNL     1       1.606   8.479  20.507  0.00  0.00    +0.000 A 
BRANCH  11  14
ATOM     14  O   UNL     1      -0.018  11.822  20.177  0.00  0.00    +0.000 OA
ATOM     15  C   UNL     1      -1.416  11.922  19.951  0.00  0.00    +0.000 C 
ENDBRANCH  11  14
BRANCH  12  16
ATOM     16  O   UNL     1       0.774   9.937  22.266  0.00  0.00    +0.000 OA
ATOM     17  C   UNL     1      -0.415   9.448  22.873  0.00  0.00    +0.000 C 
ENDBRANCH  12  16
ENDBRANCH   7   8
ENDBRANCH   3   6
ENDBRANCH   1   2
BRANCH   1  18
ATOM     18  C   UNL     1       5.710   4.451  16.298  0.00  0.00    +0.000 C 
ATOM     19  O   UNL     1       5.871   3.439  15.629  0.00  0.00    +0.000 OA
BRANCH  18  20
ATOM     20  OXT UNL     1       5.279   5.609  15.740  0.00  0.00    +0.000 OA
ATOM     21  HXT UNL     1       5.956   6.329  15.781  0.00  0.00    +0.000 HD
ENDBRANCH  18  20
ENDBRANCH   1  18
BRANCH   1  22
ATOM     22  C   UNL     1       7.387   4.965  18.126  0.00  0.00    +0.000 C 
BRANCH  22  25
ATOM     23  C   UNL     1       7.740   7.356  17.612  0.00  0.00    +0.000 C 
ATOM     24  O   UNL     1       7.820   7.175  16.406  0.00  0.00    +0.000 OA
ATOM     25  N   UNL     1       7.555   6.350  18.527  0.00  0.00    +0.000 N 
ATOM     26  H   UNL     1       7.348   6.586  19.490  0.00  0.00    +0.000 HD
BRANCH  23  28
ATOM     27  C   UNL     1       8.942   9.411  18.149  0.00  0.00    +0.000 C 
ATOM     28  C   UNL     1       7.811   8.696  18.238  0.00  0.00    +0.000 C 
BRANCH  27  32
ATOM     29  C   UNL     1       9.678  13.226  19.965  0.00  0.00    +0.000 A 
ATOM     30  C   UNL     1       9.865  12.027  20.677  0.00  0.00    +0.000 A 
ATOM     31  C   UNL     1       9.621  10.792  20.074  0.00  0.00    +0.000 A 
ATOM     32  C   UNL     1       9.130  10.727  18.769  0.00  0.00    +0.000 A 
ATOM     33  C   UNL     1       8.880  11.924  18.092  0.00  0.00    +0.000 A 
ATOM     34  C   UNL     1       9.133  13.177  18.675  0.00  0.00    +0.000 A 
BRANCH  29  36
ATOM     35  C   UNL     1      11.315  14.913  20.202  0.00  0.00    +0.000 C 
ATOM     36  O   UNL     1      10.006  14.436  20.516  0.00  0.00    +0.000 OA
ENDBRANCH  29  36
BRANCH  34  37
ATOM     37  O   UNL     1       8.809  14.201  17.825  0.00  0.00    +0.000 OA
ATOM     38  C   UNL     1       7.490  14.719  17.820  0.00  0.00    +0.000 C 
ENDBRANCH  34  37
ENDBRANCH  27  32
ENDBRANCH  23  28
ENDBRANCH  22  25
ENDBRANCH   1  22
TORSDOF 13
ENDMDL
MODEL 2
REMARK VINA RESULT:      -7.6      1.763      8.196
REMARK  Name = 
REMARK  17 active torsions:
REMARK  status: ('A' for Active; 'I' for Inactive)
REMARK    1  A    between atoms: C_1  and  O_2
REMARK    2  A    between atoms: O_2  and  C_3
REMARK    3  A    between atoms: C_6  and  C_7
REMARK    4  A    between atoms: C_8  and  C_9
REMARK    5  A    between atoms: N_11  and  C_12
REMARK    6  A    between atoms: C_12  and  CA_13
REMARK    7  A    between atoms: CA_13  and  N_14
REMARK    8  A    between atoms: CA_13  and  C_29
REMARK    9  A    between atoms: C_15  and  C_17
REMARK   10  A    between atoms: C_18  and  C_19
REMARK   11  A    between atoms: C_22  and  O_23
REMARK   12  A    between atoms: O_23  and  C_24
REMARK   13  A    between atoms: C_25  and  O_26
REMARK   14  A    between atoms: O_26  and  C_27
REMARK   15  A    between atoms: C_29  and  OXT_31
REMARK   16  A    between atoms: C_33  and  O_34
REMARK   17  A    between atoms: O_34  and  C_35
REMARK                            x       y       z     vdW  Elec       q    Type
REMARK                         _______ _______ _______ _____ _____    ______ ____
ROOT
ATOM      1  CA  UNL     1       5.835   6.059  16.018  0.00  0.00    +0.000 C 
ENDROOT
BRANCH   1   2
ATOM      2  N   UNL     1       6.617   7.065  16.769  0.00  0.00    +0.000 N 
ATOM      3  C   UNL     1       7.534   6.674  17.704  0.00  0.00    +0.000 C 
ATOM      4  O   UNL     1       7.717   5.496  17.978  0.00  0.00    +0.000 OA
ATOM      5  H   UNL     1       6.355   8.038  16.683  0.00  0.00    +0.000 HD
BRANCH   3   6
ATOM      6  C   UNL     1       8.147   7.789  18.462  0.00  0.00    +0.000 C 
ATOM      7  C   UNL     1       8.101   9.035  17.961  0.00  0.00    +0.000 C 
BRANCH   7   8
ATOM      8  C   UNL     1       8.885  10.154  18.510  0.00  0.00    +0.000 A 
ATOM      9  C   UNL     1       9.305  10.142  19.838  0.00  0.00    +0.000 A 
ATOM     10  C   UNL     1       9.966  11.255  20.369  0.00  0.00    +0.000 A 
ATOM     11  C   UNL     1      10.206  12.403  19.597  0.00  0.00    +0.000 A 
ATOM     12  C   UNL     1       9.760  12.436  18.266  0.00  0.00    +0.000 A 
ATOM     13  C   UNL     1       9.106  11.308  17.746  0.00  0.00    +0.000 A 
BRANCH  11  14
ATOM     14  O   UNL     1      10.868  13.378  20.302  0.00  0.00    +0.000 OA
ATOM     15  C   UNL     1      10.118  14.253  21.131  0.00  0.00    +0.000 C 
ENDBRANCH  11  14
BRANCH  12  16
ATOM     16  O   UNL     1       9.960  13.574  17.531  0.00  0.00    +0.000 OA
ATOM     17  C   UNL     1      11.252  13.809  16.985  0.00  0.00    +0.000 C 
ENDBRANCH  12  16
ENDBRANCH   7   8
ENDBRANCH   3   6
ENDBRANCH   1   2
BRANCH   1  18
ATOM     18  C   UNL     1       6.771   5.013  15.389  0.00  0.00    +0.000 C 
ATOM     19  O   UNL     1       7.638   5.257  14.559  0.00  0.00    +0.000 OA
BRANCH  18  20
ATOM     20  OXT UNL     1       6.574   3.756  15.860  0.00  0.00    +0.000 OA
ATOM     21  HXT UNL     1       7.400   3.347  16.218  0.00  0.00    +0.000 HD
ENDBRANCH  18  20
ENDBRANCH   1  18
BRANCH   1  22
ATOM     22  C   UNL     1       4.786   5.380  16.918  0.00  0.00    +0.000 C 
BRANCH  22  25
ATOM     23  C   UNL     1       3.398   6.431  18.671  0.00  0.00    +0.000 C 
ATOM     24  O   UNL     1       3.984   5.876  19.590  0.00  0.00    +0.000 OA
ATOM     25  N   UNL     1       3.696   6.238  17.346  0.00  0.00    +0.000 N 
ATOM     26  H   UNL     1       3.273   6.840  16.649  0.00  0.00    +0.000 HD
BRANCH  23  28
ATOM     27  C   UNL     1       2.191   8.463  18.064  0.00  0.00    +0.000 C 
ATOM     28  C   UNL     1       2.300   7.403  18.879  0.00  0.00    +0.000 C 
BRANCH  27  32
ATOM     29  C   UNL     1      -0.897  11.391  18.600  0.00  0.00    +0.000 A 
ATOM     30  C   UNL     1      -1.112  10.230  17.836  0.00  0.00    +0.000 A 
ATOM     31  C   UNL     1      -0.098   9.285  17.669  0.00  0.00    +0.000 A 
ATOM     32  C   UNL     1       1.169   9.505  18.210  0.00  0.00    +0.000 A 
ATOM     33  C   UNL     1       1.397  10.694  18.910  0.00  0.00    +0.000 A 
ATOM     34  C   UNL     1       0.386  11.651  19.102  0.00  0.00    +0.000 A 
BRANCH  29  36
ATOM     35  C   UNL     1      -3.225  11.791  18.564  0.00  0.00    +0.000 C 
ATOM     36  O   UNL     1      -1.913  12.275  18.850  0.00  0.00    +0.000 OA
ENDBRANCH  29  36
BRANCH  34  37
ATOM     37  O   UNL     1       0.844  12.729  19.811  0.00  0.00    +0.000 OA
ATOM     38  C   UNL     1       1.914  13.505  19.298  0.00  0.00    +0.000 C 
ENDBRANCH  34  37
ENDBRANCH  27  32
ENDBRANCH  23  28
ENDBRANCH  22  25
ENDBRANCH   1  22
TORSDOF 13
ENDMDL
MODEL 3
REMARK VINA RESULT:      -7.6      1.217      8.016
REMARK  Name = 
REMARK  17 active torsions:
REMARK  status: ('A' for Active; 'I' for Inactive)
REMARK    1  A    between atoms: C_1  and  O_2
REMARK    2  A    between atoms: O_2  and  C_3
REMARK    3  A    between atoms: C_6  and  C_7
REMARK    4  A    between atoms: C_8  and  C_9
REMARK    5  A    between atoms: N_11  and  C_12
REMARK    6  A    between atoms: C_12  and  CA_13
REMARK    7  A    between atoms: CA_13  and  N_14
REMARK    8  A    between atoms: CA_13  and  C_29
REMARK    9  A    between atoms: C_15  and  C_17
REMARK   10  A    between atoms: C_18  and  C_19
REMARK   11  A    between atoms: C_22  and  O_23
REMARK   12  A    between atoms: O_23  and  C_24
REMARK   13  A    between atoms: C_25  and  O_26
REMARK   14  A    between atoms: O_26  and  C_27
REMARK   15  A    between atoms: C_29  and  OXT_31
REMARK   16  A    between atoms: C_33  and  O_34
REMARK   17  A    between atoms: O_34  and  C_35
REMARK                            x       y       z     vdW  Elec       q    Type
REMARK                         _______ _______ _______ _____ _____    ______ ____
ROOT
ATOM      1  CA  UNL     1       5.724   5.936  15.903  0.00  0.00    +0.000 C 
ENDROOT
BRANCH   1   2
ATOM      2  N   UNL     1       6.331   7.062  16.644  0.00  0.00    +0.000 N 
ATOM      3  C   UNL     1       7.357   6.844  17.522  0.00  0.00    +0.000 C 
ATOM      4  O   UNL     1       7.784   5.721  17.751  0.00  0.00    +0.000 OA
ATOM      5  H   UNL     1       5.877   7.965  16.601  0.00  0.00    +0.000 HD
BRANCH   3   6
ATOM      6  C   UNL     1       7.777   8.044  18.281  0.00  0.00    +0.000 C 
ATOM      7  C   UNL     1       8.167   9.145  17.618  0.00  0.00    +0.000 C 
BRANCH   7   8
ATOM      8  C   UNL     1       8.828  10.287  18.271  0.00  0.00    +0.000 A 
ATOM      9  C   UNL     1       9.576  10.107  19.432  0.00  0.00    +0.000 A 
ATOM     10  C   UNL     1      10.117  11.216  20.091  0.00  0.00    +0.000 A 
ATOM     11  C   UNL     1       9.912  12.522  19.619  0.00  0.00    +0.000 A 
ATOM     12  C   UNL     1       9.136  12.717  18.466  0.00  0.00    +0.000 A 
ATOM     13  C   UNL     1       8.606  11.593  17.812  0.00  0.00    +0.000 A 
BRANCH  11  14
ATOM     14  O   UNL     1      10.528  13.464  20.405  0.00  0.00    +0.000 OA
ATOM     15  C   UNL     1       9.825  13.992  21.520  0.00  0.00    +0.000 C 
ENDBRANCH  11  14
BRANCH  12  16
ATOM     16  O   UNL     1       8.904  13.996  18.034  0.00  0.00    +0.000 OA
ATOM     17  C   UNL     1       7.557  14.441  17.929  0.00  0.00    +0.000 C 
ENDBRANCH  12  16
ENDBRANCH   7   8
ENDBRANCH   3   6
ENDBRANCH   1   2
BRANCH   1  18
ATOM     18  C   UNL     1       6.818   4.995  15.368  0.00  0.00    +0.000 C 
ATOM     19  O   UNL     1       7.646   5.297  14.518  0.00  0.00    +0.000 OA
BRANCH  18  20
ATOM     20  OXT UNL     1       6.810   3.770  15.948  0.00  0.00    +0.000 OA
ATOM     21  HXT UNL     1       5.904   3.479  16.218  0.00  0.00    +0.000 HD
ENDBRANCH  18  20
ENDBRANCH   1  18
BRANCH   1  22
ATOM     22  C   UNL     1       4.723   5.162  16.782  0.00  0.00    +0.000 C 
BRANCH  22  25
ATOM     23  C   UNL     1       3.575   5.882  18.848  0.00  0.00    +0.000 C 
ATOM     24  O   UNL     1       4.156   5.071  19.556  0.00  0.00    +0.000 OA
ATOM     25  N   UNL     1       3.764   5.988  17.493  0.00  0.00    +0.000 N 
ATOM     26  H   UNL     1       3.366   6.775  16.996  0.00  0.00    +0.000 HD
BRANCH  23  28
ATOM     27  C   UNL     1       2.251   7.918  18.613  0.00  0.00    +0.000 C 
ATOM     28  C   UNL     1       2.607   6.871  19.373  0.00  0.00    +0.000 C 
BRANCH  27  32
ATOM     29  C   UNL     1      -0.573  10.894  19.865  0.00  0.00    +0.000 A 
ATOM     30  C   UNL     1      -0.442  10.531  18.513  0.00  0.00    +0.000 A 
ATOM     31  C   UNL     1       0.482   9.561  18.118  0.00  0.00    +0.000 A 
ATOM     32  C   UNL     1       1.335   8.975  19.055  0.00  0.00    +0.000 A 
ATOM     33  C   UNL     1       1.248   9.392  20.387  0.00  0.00    +0.000 A 
ATOM     34  C   UNL     1       0.315  10.355  20.806  0.00  0.00    +0.000 A 
BRANCH  29  36
ATOM     35  C   UNL     1      -1.231  13.153  20.078  0.00  0.00    +0.000 C 
ATOM     36  O   UNL     1      -1.541  11.773  20.273  0.00  0.00    +0.000 OA
ENDBRANCH  29  36
BRANCH  34  37
ATOM     37  O   UNL     1       0.419  10.603  22.149  0.00  0.00    +0.000 OA
ATOM     38  C   UNL     1      -0.347   9.840  23.066  0.00  0.00    +0.000 C 
ENDBRANCH  34  37
ENDBRANCH  27  32
ENDBRANCH  23  28
ENDBRANCH  22  25
ENDBRANCH   1  22
TORSDOF 13
ENDMDL
MODEL 4
REMARK VINA RESULT:      -7.5      1.367      2.230
REMARK  Name = 
REMARK  17 active torsions:
REMARK  status: ('A' for Active; 'I' for Inactive)
REMARK    1  A    between atoms: C_1  and  O_2
REMARK    2  A    between atoms: O_2  and  C_3
REMARK    3  A    between atoms: C_6  and  C_7
REMARK    4  A    between atoms: C_8  and  C_9
REMARK    5  A    between atoms: N_11  and  C_12
REMARK    6  A    between atoms: C_12  and  CA_13
REMARK    7  A    between atoms: CA_13  and  N_14
REMARK    8  A    between atoms: CA_13  and  C_29
REMARK    9  A    between atoms: C_15  and  C_17
REMARK   10  A    between atoms: C_18  and  C_19
REMARK   11  A    between atoms: C_22  and  O_23
REMARK   12  A    between atoms: O_23  and  C_24
REMARK   13  A    between atoms: C_25  and  O_26
REMARK   14  A    between atoms: O_26  and  C_27
REMARK   15  A    between atoms: C_29  and  OXT_31
REMARK   16  A    between atoms: C_33  and  O_34
REMARK   17  A    between atoms: O_34  and  C_35
REMARK                            x       y       z     vdW  Elec       q    Type
REMARK                         _______ _______ _______ _____ _____    ______ ____
ROOT
ATOM      1  CA  UNL     1       4.817   4.697  18.805  0.00  0.00    +0.000 C 
ENDROOT
BRANCH   1   2
ATOM      2  N   UNL     1       4.106   5.993  18.843  0.00  0.00    +0.000 N 
ATOM      3  C   UNL     1       3.003   6.157  19.633  0.00  0.00    +0.000 C 
ATOM      4  O   UNL     1       2.547   5.241  20.304  0.00  0.00    +0.000 OA
ATOM      5  H   UNL     1       4.362   6.700  18.166  0.00  0.00    +0.000 HD
BRANCH   3   6
ATOM      6  C   UNL     1       2.325   7.463  19.473  0.00  0.00    +0.000 C 
ATOM      7  C   UNL     1       1.745   8.043  20.537  0.00  0.00    +0.000 C 
BRANCH   7   8
ATOM      8  C   UNL     1       0.846   9.204  20.432  0.00  0.00    +0.000 A 
ATOM      9  C   UNL     1       0.367   9.622  19.192  0.00  0.00    +0.000 A 
ATOM     10  C   UNL     1      -0.409  10.783  19.101  0.00  0.00    +0.000 A 
ATOM     11  C   UNL     1      -0.708  11.557  20.233  0.00  0.00    +0.000 A 
ATOM     12  C   UNL     1      -0.206  11.160  21.483  0.00  0.00    +0.000 A 
ATOM     13  C   UNL     1       0.564   9.989  21.559  0.00  0.00    +0.000 A 
BRANCH  11  14
ATOM     14  O   UNL     1      -1.481  12.650  19.929  0.00  0.00    +0.000 OA
ATOM     15  C   UNL     1      -2.893  12.505  19.903  0.00  0.00    +0.000 C 
ENDBRANCH  11  14
BRANCH  12  16
ATOM     16  O   UNL     1      -0.466  11.942  22.577  0.00  0.00    +0.000 OA
ATOM     17  C   UNL     1      -1.675  11.723  23.292  0.00  0.00    +0.000 C 
ENDBRANCH  12  16
ENDBRANCH   7   8
ENDBRANCH   3   6
ENDBRANCH   1   2
BRANCH   1  18
ATOM     18  C   UNL     1       4.125   3.734  17.825  0.00  0.00    +0.000 C 
ATOM     19  O   UNL     1       4.237   3.774  16.607  0.00  0.00    +0.000 OA
BRANCH  18  20
ATOM     20  OXT UNL     1       3.372   2.786  18.438  0.00  0.00    +0.000 OA
ATOM     21  HXT UNL     1       3.580   2.696  19.401  0.00  0.00    +0.000 HD
ENDBRANCH  18  20
ENDBRANCH   1  18
BRANCH   1  22
ATOM     22  C   UNL     1       6.300   4.883  18.428  0.00  0.00    +0.000 C 
BRANCH  22  25
ATOM     23  C   UNL     1       7.360   6.808  17.299  0.00  0.00    +0.000 C 
ATOM     24  O   UNL     1       7.594   6.188  16.272  0.00  0.00    +0.000 OA
ATOM     25  N   UNL     1       6.760   6.259  18.404  0.00  0.00    +0.000 N 
ATOM     26  H   UNL     1       6.463   6.865  19.160  0.00  0.00    +0.000 HD
BRANCH  23  28
ATOM     27  C   UNL     1       8.529   8.624  18.435  0.00  0.00    +0.000 C 
ATOM     28  C   UNL     1       7.678   8.244  17.470  0.00  0.00    +0.000 C 
BRANCH  27  32
ATOM     29  C   UNL     1       9.361  12.755  19.234  0.00  0.00    +0.000 A 
ATOM     30  C   UNL     1       8.991  12.317  17.950  0.00  0.00    +0.000 A 
ATOM     31  C   UNL     1       8.724  10.969  17.703  0.00  0.00    +0.000 A 
ATOM     32  C   UNL     1       8.876  10.022  18.716  0.00  0.00    +0.000 A 
ATOM     33  C   UNL     1       9.312  10.454  19.972  0.00  0.00    +0.000 A 
ATOM     34  C   UNL     1       9.572  11.807  20.245  0.00  0.00    +0.000 A 
BRANCH  29  36
ATOM     35  C   UNL     1       8.980  14.981  18.544  0.00  0.00    +0.000 C 
ATOM     36  O   UNL     1       9.532  14.086  19.508  0.00  0.00    +0.000 OA
ENDBRANCH  29  36
BRANCH  34  37
ATOM     37  O   UNL     1       9.988  11.987  21.537  0.00  0.00    +0.000 OA
ATOM     38  C   UNL     1       9.061  12.412  22.522  0.00  0.00    +0.000 C 
ENDBRANCH  34  37
ENDBRANCH  27  32
ENDBRANCH  23  28
ENDBRANCH  22  25
ENDBRANCH   1  22
TORSDOF 13
ENDMDL
MODEL 5
REMARK VINA RESULT:      -7.5      1.685      8.405
REMARK  Name = 
REMARK  17 active torsions:
REMARK  status: ('A' for Active; 'I' for Inactive)
REMARK    1  A    between atoms: C_1  and  O_2
REMARK    2  A    between atoms: O_2  and  C_3
REMARK    3  A    between atoms: C_6  and  C_7
REMARK    4  A    between atoms: C_8  and  C_9
REMARK    5  A    between atoms: N_11  and  C_12
REMARK    6  A    between atoms: C_12  and  CA_13
REMARK    7  A    between atoms: CA_13  and  N_14
REMARK    8  A    between atoms: CA_13  and  C_29
REMARK    9  A    between atoms: C_15  and  C_17
REMARK   10  A    between atoms: C_18  and  C_19
REMARK   11  A    between atoms: C_22  and  O_23
REMARK   12  A    between atoms: O_23  and  C_24
REMARK   13  A    between atoms: C_25  and  O_26
REMARK   14  A    between atoms: O_26  and  C_27
REMARK   15  A    between atoms: C_29  and  OXT_31
REMARK   16  A    between atoms: C_33  and  O_34
REMARK   17  A    between atoms: O_34  and  C_35
REMARK                            x       y       z     vdW  Elec       q    Type
REMARK                         _______ _______ _______ _____ _____    ______ ____
ROOT
ATOM      1  CA  UNL     1       5.848   5.546  17.979  0.00  0.00    +0.000 C 
ENDROOT
BRANCH   1   2
ATOM      2  N   UNL     1       6.726   6.625  18.480  0.00  0.00    +0.000 N 
ATOM      3  C   UNL     1       7.600   7.256  17.639  0.00  0.00    +0.000 C 
ATOM      4  O   UNL     1       7.714   6.934  16.465  0.00  0.00    +0.000 OA
ATOM      5  H   UNL     1       6.771   6.781  19.478  0.00  0.00    +0.000 HD
BRANCH   3   6
ATOM      6  C   UNL     1       8.499   8.225  18.307  0.00  0.00    +0.000 C 
ATOM      7  C   UNL     1       8.269   9.542  18.175  0.00  0.00    +0.000 C 
BRANCH   7   8
ATOM      8  C   UNL     1       9.234  10.574  18.589  0.00  0.00    +0.000 A 
ATOM      9  C   UNL     1      10.247  10.986  17.727  0.00  0.00    +0.000 A 
ATOM     10  C   UNL     1      11.212  11.898  18.171  0.00  0.00    +0.000 A 
ATOM     11  C   UNL     1      11.196  12.403  19.481  0.00  0.00    +0.000 A 
ATOM     12  C   UNL     1      10.195  11.971  20.366  0.00  0.00    +0.000 A 
ATOM     13  C   UNL     1       9.231  11.063  19.903  0.00  0.00    +0.000 A 
BRANCH  11  14
ATOM     14  O   UNL     1      12.223  13.283  19.714  0.00  0.00    +0.000 OA
ATOM     15  C   UNL     1      12.107  14.614  19.235  0.00  0.00    +0.000 C 
ENDBRANCH  11  14
BRANCH  12  16
ATOM     16  O   UNL     1      10.209  12.435  21.655  0.00  0.00    +0.000 OA
ATOM     17  C   UNL     1       9.404  13.562  21.978  0.00  0.00    +0.000 C 
ENDBRANCH  12  16
ENDBRANCH   7   8
ENDBRANCH   3   6
ENDBRANCH   1   2
BRANCH   1  18
ATOM     18  C   UNL     1       6.681   4.461  17.274  0.00  0.00    +0.000 C 
ATOM     19  O   UNL     1       6.384   3.929  16.213  0.00  0.00    +0.000 OA
BRANCH  18  20
ATOM     20  OXT UNL     1       7.826   4.145  17.930  0.00  0.00    +0.000 OA
ATOM     21  HXT UNL     1       7.659   3.729  18.812  0.00  0.00    +0.000 HD
ENDBRANCH  18  20
ENDBRANCH   1  18
BRANCH   1  22
ATOM     22  C   UNL     1       5.008   4.934  19.116  0.00  0.00    +0.000 C 
BRANCH  22  25
ATOM     23  C   UNL     1       2.774   5.175  20.143  0.00  0.00    +0.000 C 
ATOM     24  O   UNL     1       2.637   3.976  20.336  0.00  0.00    +0.000 OA
ATOM     25  N   UNL     1       3.873   5.733  19.539  0.00  0.00    +0.000 N 
ATOM     26  H   UNL     1       3.986   6.740  19.547  0.00  0.00    +0.000 HD
BRANCH  23  28
ATOM     27  C   UNL     1       2.020   7.486  20.357  0.00  0.00    +0.000 C 
ATOM     28  C   UNL     1       1.772   6.183  20.559  0.00  0.00    +0.000 C 
BRANCH  27  32
ATOM     29  C   UNL     1      -0.477  10.726  21.648  0.00  0.00    +0.000 A 
ATOM     30  C   UNL     1       0.072   9.813  22.566  0.00  0.00    +0.000 A 
ATOM     31  C   UNL     1       0.882   8.762  22.133  0.00  0.00    +0.000 A 
ATOM     32  C   UNL     1       1.115   8.565  20.771  0.00  0.00    +0.000 A 
ATOM     33  C   UNL     1       0.509   9.434  19.859  0.00  0.00    +0.000 A 
ATOM     34  C   UNL     1      -0.297  10.506  20.275  0.00  0.00    +0.000 A 
BRANCH  29  36
ATOM     35  C   UNL     1      -0.467  13.043  22.109  0.00  0.00    +0.000 C 
ATOM     36  O   UNL     1      -1.193  11.814  22.071  0.00  0.00    +0.000 OA
ENDBRANCH  29  36
BRANCH  34  37
ATOM     37  O   UNL     1      -0.781  11.215  19.208  0.00  0.00    +0.000 OA
ATOM     38  C   UNL     1      -1.312  10.525  18.089  0.00  0.00    +0.000 C 
ENDBRANCH  34  37
ENDBRANCH  27  32
ENDBRANCH  23  28
ENDBRANCH  22  25
ENDBRANCH   1  22
TORSDOF 13
ENDMDL
MODEL 6
REMARK VINA RESULT:      -7.5      1.503      8.435
REMARK  Name = 
REMARK  17 active torsions:
REMARK  status: ('A' for Active; 'I' for Inactive)
REMARK    1  A    between atoms: C_1  and  O_2
REMARK    2  A    between atoms: O_2  and  C_3
REMARK    3  A    between atoms: C_6  and  C_7
REMARK    4  A    between atoms: C_8  and  C_9
REMARK    5  A    between atoms: N_11  and  C_12
REMARK    6  A    between atoms: C_12  and  CA_13
REMARK    7  A    between atoms: CA_13  and  N_14
REMARK    8  A    between atoms: CA_13  and  C_29
REMARK    9  A    between atoms: C_15  and  C_17
REMARK   10  A    between atoms: C_18  and  C_19
REMARK   11  A    between atoms: C_22  and  O_23
REMARK   12  A    between atoms: O_23  and  C_24
REMARK   13  A    between atoms: C_25  and  O_26
REMARK   14  A    between atoms: O_26  and  C_27
REMARK   15  A    between atoms: C_29  and  OXT_31
REMARK   16  A    between atoms: C_33  and  O_34
REMARK   17  A    between atoms: O_34  and  C_35
REMARK                            x       y       z     vdW  Elec       q    Type
REMARK                         _______ _______ _______ _____ _____    ______ ____
ROOT
ATOM      1  CA  UNL     1       5.486   5.647  17.152  0.00  0.00    +0.000 C 
ENDROOT
BRANCH   1   2
ATOM      2  N   UNL     1       6.164   6.763  17.848  0.00  0.00    +0.000 N 
ATOM      3  C   UNL     1       7.312   7.303  17.339  0.00  0.00    +0.000 C 
ATOM      4  O   UNL     1       7.835   6.870  16.322  0.00  0.00    +0.000 OA
ATOM      5  H   UNL     1       5.846   7.013  18.774  0.00  0.00    +0.000 HD
BRANCH   3   6
ATOM      6  C   UNL     1       7.943   8.324  18.206  0.00  0.00    +0.000 C 
ATOM      7  C   UNL     1       8.187   9.551  17.715  0.00  0.00    +0.000 C 
BRANCH   7   8
ATOM      8  C   UNL     1       9.023  10.544  18.409  0.00  0.00    +0.000 A 
ATOM      9  C   UNL     1       9.353  10.382  19.752  0.00  0.00    +0.000 A 
ATOM     10  C   UNL     1      10.068  11.383  20.420  0.00  0.00    +0.000 A 
ATOM     11  C   UNL     1      10.453  12.567  19.771  0.00  0.00    +0.000 A 
ATOM     12  C   UNL     1      10.101  12.752  18.424  0.00  0.00    +0.000 A 
ATOM     13  C   UNL     1       9.390  11.736  17.766  0.00  0.00    +0.000 A 
BRANCH  11  14
ATOM     14  O   UNL     1      11.146  13.414  20.598  0.00  0.00    +0.000 OA
ATOM     15  C   UNL     1      10.465  14.519  21.174  0.00  0.00    +0.000 C 
ENDBRANCH  11  14
BRANCH  12  16
ATOM     16  O   UNL     1      10.443  13.927  17.808  0.00  0.00    +0.000 OA
ATOM     17  C   UNL     1      11.652  13.971  17.061  0.00  0.00    +0.000 C 
ENDBRANCH  12  16
ENDBRANCH   7   8
ENDBRANCH   3   6
ENDBRANCH   1   2
BRANCH   1  18
ATOM     18  C   UNL     1       6.441   4.451  17.001  0.00  0.00    +0.000 C 
ATOM     19  O   UNL     1       6.760   3.939  15.936  0.00  0.00    +0.000 OA
BRANCH  18  20
ATOM     20  OXT UNL     1       6.942   4.005  18.180  0.00  0.00    +0.000 OA
ATOM     21  HXT UNL     1       7.902   4.214  18.292  0.00  0.00    +0.000 HD
ENDBRANCH  18  20
ENDBRANCH   1  18
BRANCH   1  22
ATOM     22  C   UNL     1       4.200   5.228  17.889  0.00  0.00    +0.000 C 
BRANCH  22  25
ATOM     23  C   UNL     1       2.678   6.338  19.488  0.00  0.00    +0.000 C 
ATOM     24  O   UNL     1       2.735   5.430  20.305  0.00  0.00    +0.000 OA
ATOM     25  N   UNL     1       3.331   6.323  18.281  0.00  0.00    +0.000 N 
ATOM     26  H   UNL     1       3.361   7.166  17.722  0.00  0.00    +0.000 HD
BRANCH  23  28
ATOM     27  C   UNL     1       1.395   7.838  20.923  0.00  0.00    +0.000 C 
ATOM     28  C   UNL     1       1.910   7.584  19.710  0.00  0.00    +0.000 C 
BRANCH  27  32
ATOM     29  C   UNL     1      -0.832  11.360  21.939  0.00  0.00    +0.000 A 
ATOM     30  C   UNL     1      -0.524  10.384  22.903  0.00  0.00    +0.000 A 
ATOM     31  C   UNL     1       0.201   9.241  22.559  0.00  0.00    +0.000 A 
ATOM     32  C   UNL     1       0.584   9.020  21.236  0.00  0.00    +0.000 A 
ATOM     33  C   UNL     1       0.214   9.959  20.269  0.00  0.00    +0.000 A 
ATOM     34  C   UNL     1      -0.502  11.123  20.597  0.00  0.00    +0.000 A 
BRANCH  29  36
ATOM     35  C   UNL     1      -0.591  13.639  22.510  0.00  0.00    +0.000 C 
ATOM     36  O   UNL     1      -1.458  12.528  22.286  0.00  0.00    +0.000 OA
ENDBRANCH  29  36
BRANCH  34  37
ATOM     37  O   UNL     1      -0.752  11.888  19.489  0.00  0.00    +0.000 OA
ATOM     38  C   UNL     1       0.288  12.670  18.926  0.00  0.00    +0.000 C 
ENDBRANCH  34  37
ENDBRANCH  27  32
ENDBRANCH  23  28
ENDBRANCH  22  25
ENDBRANCH   1  22
TORSDOF 13
ENDMDL
MODEL 7
REMARK VINA RESULT:      -7.4      1.790      8.276
REMARK  Name = 
REMARK  17 active torsions:
REMARK  status: ('A' for Active; 'I' for Inactive)
REMARK    1  A    between atoms: C_1  and  O_2
REMARK    2  A    between atoms: O_2  and  C_3
REMARK    3  A    between atoms: C_6  and  C_7
REMARK    4  A    between atoms: C_8  and  C_9
REMARK    5  A    between atoms: N_11  and  C_12
REMARK    6  A    between atoms: C_12  and  CA_13
REMARK    7  A    between atoms: CA_13  and  N_14
REMARK    8  A    between atoms: CA_13  and  C_29
REMARK    9  A    between atoms: C_15  and  C_17
REMARK   10  A    between atoms: C_18  and  C_19
REMARK   11  A    between atoms: C_22  and  O_23
REMARK   12  A    between atoms: O_23  and  C_24
REMARK   13  A    between atoms: C_25  and  O_26
REMARK   14  A    between atoms: O_26  and  C_27
REMARK   15  A    between atoms: C_29  and  OXT_31
REMARK   16  A    between atoms: C_33  and  O_34
REMARK   17  A    between atoms: O_34  and  C_35
REMARK                            x       y       z     vdW  Elec       q    Type
REMARK                         _______ _______ _______ _____ _____    ______ ____
ROOT
ATOM      1  CA  UNL     1       5.741   5.406  17.821  0.00  0.00    +0.000 C 
ENDROOT
BRANCH   1   2
ATOM      2  N   UNL     1       6.535   6.518  18.385  0.00  0.00    +0.000 N 
ATOM      3  C   UNL     1       7.497   7.135  17.634  0.00  0.00    +0.000 C 
ATOM      4  O   UNL     1       7.758   6.774  16.495  0.00  0.00    +0.000 OA
ATOM      5  H   UNL     1       6.456   6.710  19.374  0.00  0.00    +0.000 HD
BRANCH   3   6
ATOM      6  C   UNL     1       8.294   8.142  18.370  0.00  0.00    +0.000 C 
ATOM      7  C   UNL     1       8.222   9.435  18.011  0.00  0.00    +0.000 C 
BRANCH   7   8
ATOM      8  C   UNL     1       9.149  10.464  18.511  0.00  0.00    +0.000 A 
ATOM      9  C   UNL     1       9.470  10.533  19.865  0.00  0.00    +0.000 A 
ATOM     10  C   UNL     1      10.277  11.574  20.337  0.00  0.00    +0.000 A 
ATOM     11  C   UNL     1      10.765  12.572  19.478  0.00  0.00    +0.000 A 
ATOM     12  C   UNL     1      10.424  12.526  18.116  0.00  0.00    +0.000 A 
ATOM     13  C   UNL     1       9.620  11.471  17.657  0.00  0.00    +0.000 A 
BRANCH  11  14
ATOM     14  O   UNL     1      11.537  13.496  20.136  0.00  0.00    +0.000 OA
ATOM     15  C   UNL     1      10.915  14.660  20.659  0.00  0.00    +0.000 C 
ENDBRANCH  11  14
BRANCH  12  16
ATOM     16  O   UNL     1      10.868  13.525  17.291  0.00  0.00    +0.000 OA
ATOM     17  C   UNL     1      12.190  13.436  16.773  0.00  0.00    +0.000 C 
ENDBRANCH  12  16
ENDBRANCH   7   8
ENDBRANCH   3   6
ENDBRANCH   1   2
BRANCH   1  18
ATOM     18  C   UNL     1       5.096   4.583  18.949  0.00  0.00    +0.000 C 
ATOM     19  O   UNL     1       5.213   3.372  19.087  0.00  0.00    +0.000 OA
BRANCH  18  20
ATOM     20  OXT UNL     1       4.382   5.331  19.826  0.00  0.00    +0.000 OA
ATOM     21  HXT UNL     1       4.555   5.084  20.769  0.00  0.00    +0.000 HD
ENDBRANCH  18  20
ENDBRANCH   1  18
BRANCH   1  22
ATOM     22  C   UNL     1       4.669   5.923  16.843  0.00  0.00    +0.000 C 
BRANCH  22  25
ATOM     23  C   UNL     1       2.843   7.251  17.847  0.00  0.00    +0.000 C 
ATOM     24  O   UNL     1       2.161   6.272  18.114  0.00  0.00    +0.000 OA
ATOM     25  N   UNL     1       4.058   7.187  17.213  0.00  0.00    +0.000 N 
ATOM     26  H   UNL     1       4.634   8.019  17.158  0.00  0.00    +0.000 HD
BRANCH  23  28
ATOM     27  C   UNL     1       1.208   8.878  18.644  0.00  0.00    +0.000 C 
ATOM     28  C   UNL     1       2.449   8.635  18.197  0.00  0.00    +0.000 C 
BRANCH  27  32
ATOM     29  C   UNL     1      -0.412  12.708  19.695  0.00  0.00    +0.000 A 
ATOM     30  C   UNL     1      -1.008  11.907  18.705  0.00  0.00    +0.000 A 
ATOM     31  C   UNL     1      -0.470  10.662  18.371  0.00  0.00    +0.000 A 
ATOM     32  C   UNL     1       0.705  10.216  18.976  0.00  0.00    +0.000 A 
ATOM     33  C   UNL     1       1.332  11.048  19.909  0.00  0.00    +0.000 A 
ATOM     34  C   UNL     1       0.799  12.296  20.270  0.00  0.00    +0.000 A 
BRANCH  29  36
ATOM     35  C   UNL     1      -0.541  15.048  19.398  0.00  0.00    +0.000 C 
ATOM     36  O   UNL     1      -0.986  13.885  20.096  0.00  0.00    +0.000 OA
ENDBRANCH  29  36
BRANCH  34  37
ATOM     37  O   UNL     1       1.585  12.930  21.195  0.00  0.00    +0.000 OA
ATOM     38  C   UNL     1       2.690  13.706  20.765  0.00  0.00    +0.000 C 
ENDBRANCH  34  37
ENDBRANCH  27  32
ENDBRANCH  23  28
ENDBRANCH  22  25
ENDBRANCH   1  22
TORSDOF 13
ENDMDL
MODEL 8
REMARK VINA RESULT:      -7.4      2.106      2.915
REMARK  Name = 
REMARK  17 active torsions:
REMARK  status: ('A' for Active; 'I' for Inactive)
REMARK    1  A    between atoms: C_1  and  O_2
REMARK    2  A    between atoms: O_2  and  C_3
REMARK    3  A    between atoms: C_6  and  C_7
REMARK    4  A    between atoms: C_8  and  C_9
REMARK    5  A    between atoms: N_11  and  C_12
REMARK    6  A    between atoms: C_12  and  CA_13
REMARK    7  A    between atoms: CA_13  and  N_14
REMARK    8  A    between atoms: CA_13  and  C_29
REMARK    9  A    between atoms: C_15  and  C_17
REMARK   10  A    between atoms: C_18  and  C_19
REMARK   11  A    between atoms: C_22  and  O_23
REMARK   12  A    between atoms: O_23  and  C_24
REMARK   13  A    between atoms: C_25  and  O_26
REMARK   14  A    between atoms: O_26  and  C_27
REMARK   15  A    between atoms: C_29  and  OXT_31
REMARK   16  A    between atoms: C_33  and  O_34
REMARK   17  A    between atoms: O_34  and  C_35
REMARK                            x       y       z     vdW  Elec       q    Type
REMARK                         _______ _______ _______ _____ _____    ______ ____
ROOT
ATOM      1  CA  UNL     1       5.067   6.092  17.745  0.00  0.00    +0.000 C 
ENDROOT
BRANCH   1   2
ATOM      2  N   UNL     1       3.875   6.927  17.486  0.00  0.00    +0.000 N 
ATOM      3  C   UNL     1       2.935   7.117  18.459  0.00  0.00    +0.000 C 
ATOM      4  O   UNL     1       3.024   6.584  19.556  0.00  0.00    +0.000 OA
ATOM      5  H   UNL     1       3.698   7.228  16.536  0.00  0.00    +0.000 HD
BRANCH   3   6
ATOM      6  C   UNL     1       1.739   7.870  18.016  0.00  0.00    +0.000 C 
ATOM      7  C   UNL     1       1.592   9.154  18.381  0.00  0.00    +0.000 C 
BRANCH   7   8
ATOM      8  C   UNL     1       0.338   9.905  18.202  0.00  0.00    +0.000 A 
ATOM      9  C   UNL     1       0.027  10.977  19.034  0.00  0.00    +0.000 A 
ATOM     10  C   UNL     1      -1.211  11.618  18.910  0.00  0.00    +0.000 A 
ATOM     11  C   UNL     1      -2.165  11.196  17.971  0.00  0.00    +0.000 A 
ATOM     12  C   UNL     1      -1.872  10.097  17.147  0.00  0.00    +0.000 A 
ATOM     13  C   UNL     1      -0.623   9.470  17.278  0.00  0.00    +0.000 A 
BRANCH  11  14
ATOM     14  O   UNL     1      -3.307  11.957  18.008  0.00  0.00    +0.000 OA
ATOM     15  C   UNL     1      -4.536  11.332  18.350  0.00  0.00    +0.000 C 
ENDBRANCH  11  14
BRANCH  12  16
ATOM     16  O   UNL     1      -2.823   9.664  16.261  0.00  0.00    +0.000 OA
ATOM     17  C   UNL     1      -2.830  10.218  14.951  0.00  0.00    +0.000 C 
ENDBRANCH  12  16
ENDBRANCH   7   8
ENDBRANCH   3   6
ENDBRANCH   1   2
BRANCH   1  18
ATOM     18  C   UNL     1       4.708   4.600  17.650  0.00  0.00    +0.000 C 
ATOM     19  O   UNL     1       4.534   3.987  16.604  0.00  0.00    +0.000 OA
BRANCH  18  20
ATOM     20  OXT UNL     1       4.619   3.985  18.855  0.00  0.00    +0.000 OA
ATOM     21  HXT UNL     1       4.075   3.159  18.825  0.00  0.00    +0.000 HD
ENDBRANCH  18  20
ENDBRANCH   1  18
BRANCH   1  22
ATOM     22  C   UNL     1       6.215   6.439  16.778  0.00  0.00    +0.000 C 
BRANCH  22  25
ATOM     23  C   UNL     1       7.847   7.895  17.927  0.00  0.00    +0.000 C 
ATOM     24  O   UNL     1       8.265   7.003  18.651  0.00  0.00    +0.000 OA
ATOM     25  N   UNL     1       6.844   7.727  17.006  0.00  0.00    +0.000 N 
ATOM     26  H   UNL     1       6.652   8.465  16.339  0.00  0.00    +0.000 HD
BRANCH  23  28
ATOM     27  C   UNL     1       9.040   9.719  19.024  0.00  0.00    +0.000 C 
ATOM     28  C   UNL     1       8.393   9.271  17.938  0.00  0.00    +0.000 C 
BRANCH  27  32
ATOM     29  C   UNL     1      10.776  13.630  19.320  0.00  0.00    +0.000 A 
ATOM     30  C   UNL     1      11.244  12.560  20.102  0.00  0.00    +0.000 A 
ATOM     31  C   UNL     1      10.670  11.291  19.997  0.00  0.00    +0.000 A 
ATOM     32  C   UNL     1       9.579  11.078  19.153  0.00  0.00    +0.000 A 
ATOM     33  C   UNL     1       9.073  12.163  18.430  0.00  0.00    +0.000 A 
ATOM     34  C   UNL     1       9.647  13.443  18.511  0.00  0.00    +0.000 A 
BRANCH  29  36
ATOM     35  C   UNL     1      10.957  15.734  20.379  0.00  0.00    +0.000 C 
ATOM     36  O   UNL     1      11.395  14.852  19.346  0.00  0.00    +0.000 OA
ENDBRANCH  29  36
BRANCH  34  37
ATOM     37  O   UNL     1       8.982  14.341  17.719  0.00  0.00    +0.000 OA
ATOM     38  C   UNL     1       7.697  14.800  18.103  0.00  0.00    +0.000 C 
ENDBRANCH  34  37
ENDBRANCH  27  32
ENDBRANCH  23  28
ENDBRANCH  22  25
ENDBRANCH   1  22
TORSDOF 13
ENDMDL
MODEL 9
REMARK VINA RESULT:      -7.4      1.286      1.921
REMARK  Name = 
REMARK  17 active torsions:
REMARK  status: ('A' for Active; 'I' for Inactive)
REMARK    1  A    between atoms: C_1  and  O_2
REMARK    2  A    between atoms: O_2  and  C_3
REMARK    3  A    between atoms: C_6  and  C_7
REMARK    4  A    between atoms: C_8  and  C_9
REMARK    5  A    between atoms: N_11  and  C_12
REMARK    6  A    between atoms: C_12  and  CA_13
REMARK    7  A    between atoms: CA_13  and  N_14
REMARK    8  A    between atoms: CA_13  and  C_29
REMARK    9  A    between atoms: C_15  and  C_17
REMARK   10  A    between atoms: C_18  and  C_19
REMARK   11  A    between atoms: C_22  and  O_23
REMARK   12  A    between atoms: O_23  and  C_24
REMARK   13  A    between atoms: C_25  and  O_26
REMARK   14  A    between atoms: O_26  and  C_27
REMARK   15  A    between atoms: C_29  and  OXT_31
REMARK   16  A    between atoms: C_33  and  O_34
REMARK   17  A    between atoms: O_34  and  C_35
REMARK                            x       y       z     vdW  Elec       q    Type
REMARK                         _______ _______ _______ _____ _____    ______ ____
ROOT
ATOM      1  CA  UNL     1       5.462   4.859  17.695  0.00  0.00    +0.000 C 
ENDROOT
BRANCH   1   2
ATOM      2  N   UNL     1       4.684   5.646  18.676  0.00  0.00    +0.000 N 
ATOM      3  C   UNL     1       3.401   5.292  18.988  0.00  0.00    +0.000 C 
ATOM      4  O   UNL     1       2.842   4.346  18.451  0.00  0.00    +0.000 OA
ATOM      5  H   UNL     1       5.065   6.527  18.994  0.00  0.00    +0.000 HD
BRANCH   3   6
ATOM      6  C   UNL     1       2.706   6.242  19.887  0.00  0.00    +0.000 C 
ATOM      7  C   UNL     1       2.068   7.303  19.364  0.00  0.00    +0.000 C 
BRANCH   7   8
ATOM      8  C   UNL     1       1.566   8.422  20.178  0.00  0.00    +0.000 A 
ATOM      9  C   UNL     1       1.505   8.321  21.566  0.00  0.00    +0.000 A 
ATOM     10  C   UNL     1       0.936   9.357  22.315  0.00  0.00    +0.000 A 
ATOM     11  C   UNL     1       0.405  10.502  21.700  0.00  0.00    +0.000 A 
ATOM     12  C   UNL     1       0.436  10.600  20.300  0.00  0.00    +0.000 A 
ATOM     13  C   UNL     1       1.017   9.557  19.563  0.00  0.00    +0.000 A 
BRANCH  11  14
ATOM     14  O   UNL     1      -0.101  11.396  22.610  0.00  0.00    +0.000 OA
ATOM     15  C   UNL     1      -1.444  11.247  23.044  0.00  0.00    +0.000 C 
ENDBRANCH  11  14
BRANCH  12  16
ATOM     16  O   UNL     1      -0.121  11.700  19.703  0.00  0.00    +0.000 OA
ATOM     17  C   UNL     1       0.708  12.829  19.457  0.00  0.00    +0.000 C 
ENDBRANCH  12  16
ENDBRANCH   7   8
ENDBRANCH   3   6
ENDBRANCH   1   2
BRANCH   1  18
ATOM     18  C   UNL     1       5.177   5.352  16.266  0.00  0.00    +0.000 C 
ATOM     19  O   UNL     1       5.113   4.633  15.278  0.00  0.00    +0.000 OA
BRANCH  18  20
ATOM     20  OXT UNL     1       4.969   6.689  16.185  0.00  0.00    +0.000 OA
ATOM     21  HXT UNL     1       5.708   7.216  16.581  0.00  0.00    +0.000 HD
ENDBRANCH  18  20
ENDBRANCH   1  18
BRANCH   1  22
ATOM     22  C   UNL     1       6.971   4.918  18.001  0.00  0.00    +0.000 C 
BRANCH  22  25
ATOM     23  C   UNL     1       7.851   7.219  17.806  0.00  0.00    +0.000 C 
ATOM     24  O   UNL     1       7.911   7.185  16.585  0.00  0.00    +0.000 OA
ATOM     25  N   UNL     1       7.432   6.167  18.581  0.00  0.00    +0.000 N 
ATOM     26  H   UNL     1       7.265   6.313  19.569  0.00  0.00    +0.000 HD
BRANCH  23  28
ATOM     27  C   UNL     1       8.909   9.406  18.036  0.00  0.00    +0.000 C 
ATOM     28  C   UNL     1       8.203   8.416  18.603  0.00  0.00    +0.000 C 
BRANCH  27  32
ATOM     29  C   UNL     1      10.302  12.822  20.225  0.00  0.00    +0.000 A 
ATOM     30  C   UNL     1       9.493  11.843  20.830  0.00  0.00    +0.000 A 
ATOM     31  C   UNL     1       9.045  10.736  20.106  0.00  0.00    +0.000 A 
ATOM     32  C   UNL     1       9.346  10.611  18.749  0.00  0.00    +0.000 A 
ATOM     33  C   UNL     1      10.090  11.623  18.136  0.00  0.00    +0.000 A 
ATOM     34  C   UNL     1      10.563  12.737  18.850  0.00  0.00    +0.000 A 
BRANCH  29  36
ATOM     35  C   UNL     1       9.901  14.523  21.813  0.00  0.00    +0.000 C 
ATOM     36  O   UNL     1      10.824  13.859  20.950  0.00  0.00    +0.000 OA
ENDBRANCH  29  36
BRANCH  34  37
ATOM     37  O   UNL     1      11.262  13.592  18.041  0.00  0.00    +0.000 OA
ATOM     38  C   UNL     1      11.202  13.435  16.633  0.00  0.00    +0.000 C 
ENDBRANCH  34  37
ENDBRANCH  27  32
ENDBRANCH  23  28
ENDBRANCH  22  25
ENDBRANCH   1  22
TORSDOF 13
ENDMDL
