MODEL 1
REMARK VINA RESULT:      -8.2      0.000      0.000
REMARK  Name = 
REMARK  10 active torsions:
REMARK  status: ('A' for Active; 'I' for Inactive)
REMARK    1  A    between atoms: C_1  and  C_2
REMARK    2  A    between atoms: C_2  and  C_3
REMARK    3  A    between atoms: C_3  and  C_4
REMARK    4  A    between atoms: C_3  and  C_29
REMARK    5  A    between atoms: N_6  and  C_7
REMARK    6  A    between atoms: N_14  and  C_15
REMARK    7  A    between atoms: C_15  and  C_16
REMARK    8  A    between atoms: C_20  and  O_21
REMARK    9  A    between atoms: O_21  and  C_22
REMARK   10  A    between atoms: C_26  and  C_27
REMARK                            x       y       z     vdW  Elec       q    Type
REMARK                         _______ _______ _______ _____ _____    ______ ____
ROOT
ATOM      1  C   UNL     1       0.614   8.707  21.291  0.00  0.00    +0.000 A 
ATOM      2  C   UNL     1      -0.120   8.879  22.462  0.00  0.00    +0.000 A 
ATOM      3  C   UNL     1      -0.413  10.165  22.906  0.00  0.00    +0.000 A 
ATOM      4  C   UNL     1      -0.064  11.264  22.123  0.00  0.00    +0.000 A 
ATOM      5  C   UNL     1       0.610  11.117  20.907  0.00  0.00    +0.000 A 
ATOM      6  C   UNL     1       0.980   9.819  20.516  0.00  0.00    +0.000 A 
ATOM      7  C   UNL     1       0.976  12.319  20.078  0.00  0.00    +0.000 C 
ATOM      8  N   UNL     1      -0.168  13.125  19.665  0.00  0.00    +0.000 N 
ATOM      9  C   UNL     1      -0.869  13.904  20.571  0.00  0.00    +0.000 C 
ATOM     10  O   UNL     1      -1.303  15.023  20.293  0.00  0.00    +0.000 OA
ATOM     11  C   UNL     1      -1.376  13.167  21.822  0.00  0.00    +0.000 C 
ATOM     12  C   UNL     1      -2.580  12.296  21.412  0.00  0.00    +0.000 C 
ATOM     13  O   UNL     1      -0.411  12.489  22.616  0.00  0.00    +0.000 OA
ENDROOT
BRANCH   1  16
ATOM     14  C   UNL     1       1.810   7.111  19.875  0.00  0.00    +0.000 C 
ATOM     15  O   UNL     1       2.374   7.962  19.187  0.00  0.00    +0.000 OA
ATOM     16  N   UNL     1       0.946   7.392  20.920  0.00  0.00    +0.000 N 
ATOM     17  H   UNL     1       0.916   6.694  21.653  0.00  0.00    +0.000 HD
BRANCH  14  18
ATOM     18  C   UNL     1       1.987   5.618  19.573  0.00  0.00    +0.000 C 
BRANCH  18  19
ATOM     19  C   UNL     1       3.315   5.299  18.882  0.00  0.00    +0.000 A 
ATOM     20  C   UNL     1       3.308   4.916  17.528  0.00  0.00    +0.000 A 
ATOM     21  C   UNL     1       4.500   4.597  16.869  0.00  0.00    +0.000 A 
ATOM     22  C   UNL     1       5.716   4.665  17.549  0.00  0.00    +0.000 A 
ATOM     23  C   UNL     1       5.745   5.064  18.875  0.00  0.00    +0.000 A 
ATOM     24  C   UNL     1       4.553   5.375  19.542  0.00  0.00    +0.000 A 
ENDBRANCH  18  19
BRANCH  18  26
ATOM     25  C   UNL     1       1.154   3.403  20.555  0.00  0.00    +0.000 C 
ATOM     26  C   UNL     1       1.729   4.785  20.844  0.00  0.00    +0.000 C 
ENDBRANCH  18  26
ENDBRANCH  14  18
ENDBRANCH   1  16
BRANCH   8  27
ATOM     27  C   UNL     1      -0.703  13.009  18.319  0.00  0.00    +0.000 C 
BRANCH  27  28
ATOM     28  C   UNL     1      -1.620  11.836  18.083  0.00  0.00    +0.000 A 
ATOM     29  C   UNL     1      -1.098  10.608  17.642  0.00  0.00    +0.000 A 
ATOM     30  C   UNL     1      -1.943   9.550  17.325  0.00  0.00    +0.000 A 
ATOM     31  C   UNL     1      -3.322   9.704  17.456  0.00  0.00    +0.000 A 
ATOM     32  C   UNL     1      -3.863  10.907  17.916  0.00  0.00    +0.000 A 
ATOM     33  C   UNL     1      -3.009  11.969  18.236  0.00  0.00    +0.000 A 
BRANCH  32  34
ATOM     34  O   UNL     1      -5.229  10.924  17.982  0.00  0.00    +0.000 OA
ATOM     35  C   UNL     1      -5.813  11.576  19.100  0.00  0.00    +0.000 C 
ENDBRANCH  32  34
ENDBRANCH  27  28
ENDBRANCH   8  27
TORSDOF 7
ENDMDL
MODEL 2
REMARK VINA RESULT:      -8.1      2.478      4.570
REMARK  Name = 
REMARK  10 active torsions:
REMARK  status: ('A' for Active; 'I' for Inactive)
REMARK    1  A    between atoms: C_1  and  C_2
REMARK    2  A    between atoms: C_2  and  C_3
REMARK    3  A    between atoms: C_3  and  C_4
REMARK    4  A    between atoms: C_3  and  C_29
REMARK    5  A    between atoms: N_6  and  C_7
REMARK    6  A    between atoms: N_14  and  C_15
REMARK    7  A    between atoms: C_15  and  C_16
REMARK    8  A    between atoms: C_20  and  O_21
REMARK    9  A    between atoms: O_21  and  C_22
REMARK   10  A    between atoms: C_26  and  C_27
REMARK                            x       y       z     vdW  Elec       q    Type
REMARK                         _______ _______ _______ _____ _____    ______ ____
ROOT
ATOM      1  C   UNL     1       1.305   9.182  18.685  0.00  0.00    +0.000 A 
ATOM      2  C   UNL     1       0.276   9.351  17.763  0.00  0.00    +0.000 A 
ATOM      3  C   UNL     1      -0.806  10.164  18.083  0.00  0.00    +0.000 A 
ATOM      4  C   UNL     1      -0.802  10.885  19.276  0.00  0.00    +0.000 A 
ATOM      5  C   UNL     1       0.253  10.790  20.189  0.00  0.00    +0.000 A 
ATOM      6  C   UNL     1       1.296   9.895  19.895  0.00  0.00    +0.000 A 
ATOM      7  C   UNL     1       0.236  11.579  21.471  0.00  0.00    +0.000 C 
ATOM      8  N   UNL     1       0.167  13.024  21.277  0.00  0.00    +0.000 N 
ATOM      9  C   UNL     1      -0.991  13.639  20.827  0.00  0.00    +0.000 C 
ATOM     10  O   UNL     1      -1.379  14.725  21.259  0.00  0.00    +0.000 OA
ATOM     11  C   UNL     1      -1.578  13.069  19.526  0.00  0.00    +0.000 C 
ATOM     12  C   UNL     1      -0.695  13.538  18.353  0.00  0.00    +0.000 C 
ATOM     13  O   UNL     1      -1.887  11.681  19.502  0.00  0.00    +0.000 OA
ENDROOT
BRANCH   1  16
ATOM     14  C   UNL     1       2.571   7.118  19.040  0.00  0.00    +0.000 C 
ATOM     15  O   UNL     1       1.897   6.727  19.993  0.00  0.00    +0.000 OA
ATOM     16  N   UNL     1       2.343   8.295  18.347  0.00  0.00    +0.000 N 
ATOM     17  H   UNL     1       2.631   8.285  17.376  0.00  0.00    +0.000 HD
BRANCH  14  18
ATOM     18  C   UNL     1       3.796   6.324  18.571  0.00  0.00    +0.000 C 
BRANCH  18  19
ATOM     19  C   UNL     1       3.549   4.814  18.521  0.00  0.00    +0.000 A 
ATOM     20  C   UNL     1       2.573   4.310  17.642  0.00  0.00    +0.000 A 
ATOM     21  C   UNL     1       2.303   2.938  17.583  0.00  0.00    +0.000 A 
ATOM     22  C   UNL     1       3.012   2.050  18.394  0.00  0.00    +0.000 A 
ATOM     23  C   UNL     1       3.993   2.527  19.248  0.00  0.00    +0.000 A 
ATOM     24  C   UNL     1       4.259   3.900  19.317  0.00  0.00    +0.000 A 
ENDBRANCH  18  19
BRANCH  18  26
ATOM     25  C   UNL     1       5.819   6.631  17.028  0.00  0.00    +0.000 C 
ATOM     26  C   UNL     1       4.337   6.912  17.253  0.00  0.00    +0.000 C 
ENDBRANCH  18  26
ENDBRANCH  14  18
ENDBRANCH   1  16
BRANCH   8  27
ATOM     27  C   UNL     1       1.362  13.841  21.399  0.00  0.00    +0.000 C 
BRANCH  27  28
ATOM     28  C   UNL     1       1.964  14.310  20.098  0.00  0.00    +0.000 A 
ATOM     29  C   UNL     1       2.705  13.422  19.301  0.00  0.00    +0.000 A 
ATOM     30  C   UNL     1       3.348  13.867  18.151  0.00  0.00    +0.000 A 
ATOM     31  C   UNL     1       3.249  15.207  17.779  0.00  0.00    +0.000 A 
ATOM     32  C   UNL     1       2.498  16.104  18.543  0.00  0.00    +0.000 A 
ATOM     33  C   UNL     1       1.850  15.650  19.697  0.00  0.00    +0.000 A 
BRANCH  32  34
ATOM     34  O   UNL     1       2.498  17.387  18.070  0.00  0.00    +0.000 OA
ATOM     35  C   UNL     1       1.252  17.918  17.643  0.00  0.00    +0.000 C 
ENDBRANCH  32  34
ENDBRANCH  27  28
ENDBRANCH   8  27
TORSDOF 7
ENDMDL
MODEL 3
REMARK VINA RESULT:      -8.0      2.469      4.764
REMARK  Name = 
REMARK  10 active torsions:
REMARK  status: ('A' for Active; 'I' for Inactive)
REMARK    1  A    between atoms: C_1  and  C_2
REMARK    2  A    between atoms: C_2  and  C_3
REMARK    3  A    between atoms: C_3  and  C_4
REMARK    4  A    between atoms: C_3  and  C_29
REMARK    5  A    between atoms: N_6  and  C_7
REMARK    6  A    between atoms: N_14  and  C_15
REMARK    7  A    between atoms: C_15  and  C_16
REMARK    8  A    between atoms: C_20  and  O_21
REMARK    9  A    between atoms: O_21  and  C_22
REMARK   10  A    between atoms: C_26  and  C_27
REMARK                            x       y       z     vdW  Elec       q    Type
REMARK                         _______ _______ _______ _____ _____    ______ ____
ROOT
ATOM      1  C   UNL     1       0.743   9.583  19.765  0.00  0.00    +0.000 A 
ATOM      2  C   UNL     1      -0.243   9.702  18.790  0.00  0.00    +0.000 A 
ATOM      3  C   UNL     1      -1.199  10.707  18.899  0.00  0.00    +0.000 A 
ATOM      4  C   UNL     1      -1.099  11.650  19.921  0.00  0.00    +0.000 A 
ATOM      5  C   UNL     1      -0.077  11.596  20.874  0.00  0.00    +0.000 A 
ATOM      6  C   UNL     1       0.827  10.523  20.805  0.00  0.00    +0.000 A 
ATOM      7  C   UNL     1       0.011  12.626  21.969  0.00  0.00    +0.000 C 
ATOM      8  N   UNL     1       0.153  13.995  21.485  0.00  0.00    +0.000 N 
ATOM      9  C   UNL     1      -0.899  14.661  20.878  0.00  0.00    +0.000 C 
ATOM     10  O   UNL     1      -1.129  15.857  21.067  0.00  0.00    +0.000 OA
ATOM     11  C   UNL     1      -1.553  13.925  19.697  0.00  0.00    +0.000 C 
ATOM     12  C   UNL     1      -0.602  14.016  18.487  0.00  0.00    +0.000 C 
ATOM     13  O   UNL     1      -2.059  12.619  19.942  0.00  0.00    +0.000 OA
ENDROOT
BRANCH   1  16
ATOM     14  C   UNL     1       2.310   8.219  18.473  0.00  0.00    +0.000 C 
ATOM     15  O   UNL     1       2.198   8.864  17.431  0.00  0.00    +0.000 OA
ATOM     16  N   UNL     1       1.643   8.509  19.652  0.00  0.00    +0.000 N 
ATOM     17  H   UNL     1       2.126   8.232  20.498  0.00  0.00    +0.000 HD
BRANCH  14  18
ATOM     18  C   UNL     1       3.190   6.964  18.525  0.00  0.00    +0.000 C 
BRANCH  18  19
ATOM     19  C   UNL     1       2.404   5.695  18.863  0.00  0.00    +0.000 A 
ATOM     20  C   UNL     1       2.088   5.423  20.206  0.00  0.00    +0.000 A 
ATOM     21  C   UNL     1       1.390   4.262  20.556  0.00  0.00    +0.000 A 
ATOM     22  C   UNL     1       0.989   3.362  19.569  0.00  0.00    +0.000 A 
ATOM     23  C   UNL     1       1.271   3.625  18.238  0.00  0.00    +0.000 A 
ATOM     24  C   UNL     1       1.978   4.781  17.885  0.00  0.00    +0.000 A 
ENDBRANCH  18  19
BRANCH  18  26
ATOM     25  C   UNL     1       5.433   6.301  17.479  0.00  0.00    +0.000 C 
ATOM     26  C   UNL     1       4.032   6.853  17.239  0.00  0.00    +0.000 C 
ENDBRANCH  18  26
ENDBRANCH  14  18
ENDBRANCH   1  16
BRANCH   8  27
ATOM     27  C   UNL     1       1.454  14.644  21.484  0.00  0.00    +0.000 C 
BRANCH  27  28
ATOM     28  C   UNL     1       2.084  14.835  20.127  0.00  0.00    +0.000 A 
ATOM     29  C   UNL     1       2.780  13.780  19.517  0.00  0.00    +0.000 A 
ATOM     30  C   UNL     1       3.450  13.973  18.313  0.00  0.00    +0.000 A 
ATOM     31  C   UNL     1       3.421  15.225  17.700  0.00  0.00    +0.000 A 
ATOM     32  C   UNL     1       2.714  16.283  18.276  0.00  0.00    +0.000 A 
ATOM     33  C   UNL     1       2.040  16.083  19.486  0.00  0.00    +0.000 A 
BRANCH  32  34
ATOM     34  O   UNL     1       2.783  17.456  17.576  0.00  0.00    +0.000 OA
ATOM     35  C   UNL     1       1.565  17.968  17.054  0.00  0.00    +0.000 C 
ENDBRANCH  32  34
ENDBRANCH  27  28
ENDBRANCH   8  27
TORSDOF 7
ENDMDL
MODEL 4
REMARK VINA RESULT:      -8.0      2.169      3.778
REMARK  Name = 
REMARK  10 active torsions:
REMARK  status: ('A' for Active; 'I' for Inactive)
REMARK    1  A    between atoms: C_1  and  C_2
REMARK    2  A    between atoms: C_2  and  C_3
REMARK    3  A    between atoms: C_3  and  C_4
REMARK    4  A    between atoms: C_3  and  C_29
REMARK    5  A    between atoms: N_6  and  C_7
REMARK    6  A    between atoms: N_14  and  C_15
REMARK    7  A    between atoms: C_15  and  C_16
REMARK    8  A    between atoms: C_20  and  O_21
REMARK    9  A    between atoms: O_21  and  C_22
REMARK   10  A    between atoms: C_26  and  C_27
REMARK                            x       y       z     vdW  Elec       q    Type
REMARK                         _______ _______ _______ _____ _____    ______ ____
ROOT
ATOM      1  C   UNL     1       1.471   9.969  18.096  0.00  0.00    +0.000 A 
ATOM      2  C   UNL     1       2.451  10.949  17.961  0.00  0.00    +0.000 A 
ATOM      3  C   UNL     1       2.123  12.283  18.182  0.00  0.00    +0.000 A 
ATOM      4  C   UNL     1       0.849  12.616  18.639  0.00  0.00    +0.000 A 
ATOM      5  C   UNL     1      -0.134  11.645  18.852  0.00  0.00    +0.000 A 
ATOM      6  C   UNL     1       0.183  10.312  18.537  0.00  0.00    +0.000 A 
ATOM      7  C   UNL     1      -1.503  12.029  19.347  0.00  0.00    +0.000 C 
ATOM      8  N   UNL     1      -1.497  12.707  20.640  0.00  0.00    +0.000 N 
ATOM      9  C   UNL     1      -1.032  14.005  20.774  0.00  0.00    +0.000 C 
ATOM     10  O   UNL     1      -1.568  14.832  21.513  0.00  0.00    +0.000 OA
ATOM     11  C   UNL     1       0.381  14.260  20.224  0.00  0.00    +0.000 C 
ATOM     12  C   UNL     1       1.397  13.636  21.200  0.00  0.00    +0.000 C 
ATOM     13  O   UNL     1       0.616  13.943  18.858  0.00  0.00    +0.000 OA
ENDROOT
BRANCH   1  16
ATOM     14  C   UNL     1       2.146   7.717  18.772  0.00  0.00    +0.000 C 
ATOM     15  O   UNL     1       2.133   7.947  19.982  0.00  0.00    +0.000 OA
ATOM     16  N   UNL     1       1.830   8.644  17.793  0.00  0.00    +0.000 N 
ATOM     17  H   UNL     1       1.446   8.254  16.941  0.00  0.00    +0.000 HD
BRANCH  14  18
ATOM     18  C   UNL     1       2.588   6.347  18.242  0.00  0.00    +0.000 C 
BRANCH  18  19
ATOM     19  C   UNL     1       4.108   6.200  18.155  0.00  0.00    +0.000 A 
ATOM     20  C   UNL     1       4.782   5.457  19.142  0.00  0.00    +0.000 A 
ATOM     21  C   UNL     1       6.174   5.318  19.108  0.00  0.00    +0.000 A 
ATOM     22  C   UNL     1       6.911   5.911  18.082  0.00  0.00    +0.000 A 
ATOM     23  C   UNL     1       6.263   6.625  17.089  0.00  0.00    +0.000 A 
ATOM     24  C   UNL     1       4.871   6.775  17.124  0.00  0.00    +0.000 A 
ENDBRANCH  18  19
BRANCH  18  26
ATOM     25  C   UNL     1       1.493   4.032  18.173  0.00  0.00    +0.000 C 
ATOM     26  C   UNL     1       1.896   5.222  19.036  0.00  0.00    +0.000 C 
ENDBRANCH  18  26
ENDBRANCH  14  18
ENDBRANCH   1  16
BRANCH   8  27
ATOM     27  C   UNL     1      -1.833  11.981  21.853  0.00  0.00    +0.000 C 
BRANCH  27  28
ATOM     28  C   UNL     1      -3.138  12.367  22.502  0.00  0.00    +0.000 A 
ATOM     29  C   UNL     1      -3.259  12.369  23.901  0.00  0.00    +0.000 A 
ATOM     30  C   UNL     1      -4.484  12.625  24.508  0.00  0.00    +0.000 A 
ATOM     31  C   UNL     1      -5.603  12.894  23.720  0.00  0.00    +0.000 A 
ATOM     32  C   UNL     1      -5.501  12.921  22.327  0.00  0.00    +0.000 A 
ATOM     33  C   UNL     1      -4.266  12.665  21.721  0.00  0.00    +0.000 A 
BRANCH  32  34
ATOM     34  O   UNL     1      -6.678  13.183  21.680  0.00  0.00    +0.000 OA
ATOM     35  C   UNL     1      -6.971  12.398  20.533  0.00  0.00    +0.000 C 
ENDBRANCH  32  34
ENDBRANCH  27  28
ENDBRANCH   8  27
TORSDOF 7
ENDMDL
MODEL 5
REMARK VINA RESULT:      -8.0      1.426      1.869
REMARK  Name = 
REMARK  10 active torsions:
REMARK  status: ('A' for Active; 'I' for Inactive)
REMARK    1  A    between atoms: C_1  and  C_2
REMARK    2  A    between atoms: C_2  and  C_3
REMARK    3  A    between atoms: C_3  and  C_4
REMARK    4  A    between atoms: C_3  and  C_29
REMARK    5  A    between atoms: N_6  and  C_7
REMARK    6  A    between atoms: N_14  and  C_15
REMARK    7  A    between atoms: C_15  and  C_16
REMARK    8  A    between atoms: C_20  and  O_21
REMARK    9  A    between atoms: O_21  and  C_22
REMARK   10  A    between atoms: C_26  and  C_27
REMARK                            x       y       z     vdW  Elec       q    Type
REMARK                         _______ _______ _______ _____ _____    ______ ____
ROOT
ATOM      1  C   UNL     1       1.746   8.255  19.113  0.00  0.00    +0.000 A 
ATOM      2  C   UNL     1       1.447   8.015  20.451  0.00  0.00    +0.000 A 
ATOM      3  C   UNL     1       1.239   9.089  21.311  0.00  0.00    +0.000 A 
ATOM      4  C   UNL     1       1.226  10.388  20.807  0.00  0.00    +0.000 A 
ATOM      5  C   UNL     1       1.453  10.654  19.454  0.00  0.00    +0.000 A 
ATOM      6  C   UNL     1       1.752   9.568  18.614  0.00  0.00    +0.000 A 
ATOM      7  C   UNL     1       1.433  12.066  18.931  0.00  0.00    +0.000 C 
ATOM      8  N   UNL     1       0.166  12.759  19.142  0.00  0.00    +0.000 N 
ATOM      9  C   UNL     1      -0.234  13.169  20.403  0.00  0.00    +0.000 C 
ATOM     10  O   UNL     1      -0.809  14.239  20.605  0.00  0.00    +0.000 OA
ATOM     11  C   UNL     1      -0.234  12.075  21.484  0.00  0.00    +0.000 C 
ATOM     12  C   UNL     1      -1.444  11.154  21.237  0.00  0.00    +0.000 C 
ATOM     13  O   UNL     1       0.987  11.382  21.711  0.00  0.00    +0.000 OA
ENDROOT
BRANCH   1  16
ATOM     14  C   UNL     1       2.838   6.104  18.706  0.00  0.00    +0.000 C 
ATOM     15  O   UNL     1       3.389   6.041  19.806  0.00  0.00    +0.000 OA
ATOM     16  N   UNL     1       2.019   7.143  18.298  0.00  0.00    +0.000 N 
ATOM     17  H   UNL     1       1.304   6.888  17.627  0.00  0.00    +0.000 HD
BRANCH  14  18
ATOM     18  C   UNL     1       3.076   5.019  17.649  0.00  0.00    +0.000 C 
BRANCH  18  19
ATOM     19  C   UNL     1       4.467   5.094  17.015  0.00  0.00    +0.000 A 
ATOM     20  C   UNL     1       4.926   4.013  16.241  0.00  0.00    +0.000 A 
ATOM     21  C   UNL     1       6.200   4.036  15.664  0.00  0.00    +0.000 A 
ATOM     22  C   UNL     1       7.030   5.143  15.844  0.00  0.00    +0.000 A 
ATOM     23  C   UNL     1       6.585   6.227  16.583  0.00  0.00    +0.000 A 
ATOM     24  C   UNL     1       5.315   6.204  17.170  0.00  0.00    +0.000 A 
ENDBRANCH  18  19
BRANCH  18  26
ATOM     25  C   UNL     1       1.226   3.409  18.390  0.00  0.00    +0.000 C 
ATOM     26  C   UNL     1       2.725   3.632  18.223  0.00  0.00    +0.000 C 
ENDBRANCH  18  26
ENDBRANCH  14  18
ENDBRANCH   1  16
BRANCH   8  27
ATOM     27  C   UNL     1      -0.787  12.896  18.053  0.00  0.00    +0.000 C 
BRANCH  27  28
ATOM     28  C   UNL     1      -1.889  11.867  18.020  0.00  0.00    +0.000 A 
ATOM     29  C   UNL     1      -1.629  10.567  17.557  0.00  0.00    +0.000 A 
ATOM     30  C   UNL     1      -2.658   9.640  17.427  0.00  0.00    +0.000 A 
ATOM     31  C   UNL     1      -3.959  10.000  17.771  0.00  0.00    +0.000 A 
ATOM     32  C   UNL     1      -4.238  11.280  18.258  0.00  0.00    +0.000 A 
ATOM     33  C   UNL     1      -3.200  12.208  18.389  0.00  0.00    +0.000 A 
BRANCH  32  34
ATOM     34  O   UNL     1      -5.558  11.501  18.543  0.00  0.00    +0.000 OA
ATOM     35  C   UNL     1      -6.352  10.363  18.848  0.00  0.00    +0.000 C 
ENDBRANCH  32  34
ENDBRANCH  27  28
ENDBRANCH   8  27
TORSDOF 7
ENDMDL
MODEL 6
REMARK VINA RESULT:      -7.9      1.048      1.420
REMARK  Name = 
REMARK  10 active torsions:
REMARK  status: ('A' for Active; 'I' for Inactive)
REMARK    1  A    between atoms: C_1  and  C_2
REMARK    2  A    between atoms: C_2  and  C_3
REMARK    3  A    between atoms: C_3  and  C_4
REMARK    4  A    between atoms: C_3  and  C_29
REMARK    5  A    between atoms: N_6  and  C_7
REMARK    6  A    between atoms: N_14  and  C_15
REMARK    7  A    between atoms: C_15  and  C_16
REMARK    8  A    between atoms: C_20  and  O_21
REMARK    9  A    between atoms: O_21  and  C_22
REMARK   10  A    between atoms: C_26  and  C_27
REMARK                            x       y       z     vdW  Elec       q    Type
REMARK                         _______ _______ _______ _____ _____    ______ ____
ROOT
ATOM      1  C   UNL     1       1.404   8.628  20.292  0.00  0.00    +0.000 A 
ATOM      2  C   UNL     1       0.854   8.556  21.569  0.00  0.00    +0.000 A 
ATOM      3  C   UNL     1       0.483   9.726  22.224  0.00  0.00    +0.000 A 
ATOM      4  C   UNL     1       0.566  10.949  21.559  0.00  0.00    +0.000 A 
ATOM      5  C   UNL     1       1.048  11.042  20.249  0.00  0.00    +0.000 A 
ATOM      6  C   UNL     1       1.504   9.864  19.633  0.00  0.00    +0.000 A 
ATOM      7  C   UNL     1       1.127  12.373  19.550  0.00  0.00    +0.000 C 
ATOM      8  N   UNL     1      -0.158  13.053  19.423  0.00  0.00    +0.000 N 
ATOM      9  C   UNL     1      -0.793  13.613  20.520  0.00  0.00    +0.000 C 
ATOM     10  O   UNL     1      -1.397  14.685  20.464  0.00  0.00    +0.000 OA
ATOM     11  C   UNL     1      -0.998  12.670  21.716  0.00  0.00    +0.000 C 
ATOM     12  C   UNL     1      -2.138  11.692  21.368  0.00  0.00    +0.000 C 
ATOM     13  O   UNL     1       0.157  12.045  22.261  0.00  0.00    +0.000 OA
ENDROOT
BRANCH   1  16
ATOM     14  C   UNL     1       2.516   7.393  18.497  0.00  0.00    +0.000 C 
ATOM     15  O   UNL     1       2.832   8.389  17.845  0.00  0.00    +0.000 OA
ATOM     16  N   UNL     1       1.829   7.426  19.698  0.00  0.00    +0.000 N 
ATOM     17  H   UNL     1       2.023   6.656  20.326  0.00  0.00    +0.000 HD
BRANCH  14  18
ATOM     18  C   UNL     1       2.825   5.985  17.973  0.00  0.00    +0.000 C 
BRANCH  18  19
ATOM     19  C   UNL     1       4.324   5.718  17.819  0.00  0.00    +0.000 A 
ATOM     20  C   UNL     1       5.098   5.479  18.970  0.00  0.00    +0.000 A 
ATOM     21  C   UNL     1       6.475   5.252  18.871  0.00  0.00    +0.000 A 
ATOM     22  C   UNL     1       7.097   5.251  17.623  0.00  0.00    +0.000 A 
ATOM     23  C   UNL     1       6.346   5.461  16.477  0.00  0.00    +0.000 A 
ATOM     24  C   UNL     1       4.970   5.698  16.572  0.00  0.00    +0.000 A 
ENDBRANCH  18  19
BRANCH  18  26
ATOM     25  C   UNL     1       1.538   3.770  17.995  0.00  0.00    +0.000 C 
ATOM     26  C   UNL     1       2.086   4.930  18.819  0.00  0.00    +0.000 C 
ENDBRANCH  18  26
ENDBRANCH  14  18
ENDBRANCH   1  16
BRANCH   8  27
ATOM     27  C   UNL     1      -0.885  13.023  18.165  0.00  0.00    +0.000 C 
BRANCH  27  28
ATOM     28  C   UNL     1      -1.839  11.867  17.993  0.00  0.00    +0.000 A 
ATOM     29  C   UNL     1      -1.368  10.622  17.546  0.00  0.00    +0.000 A 
ATOM     30  C   UNL     1      -2.252   9.579  17.288  0.00  0.00    +0.000 A 
ATOM     31  C   UNL     1      -3.619   9.768  17.486  0.00  0.00    +0.000 A 
ATOM     32  C   UNL     1      -4.108  10.990  17.954  0.00  0.00    +0.000 A 
ATOM     33  C   UNL     1      -3.215  12.035  18.214  0.00  0.00    +0.000 A 
BRANCH  32  34
ATOM     34  O   UNL     1      -5.469  11.039  18.088  0.00  0.00    +0.000 OA
ATOM     35  C   UNL     1      -6.134  12.152  17.508  0.00  0.00    +0.000 C 
ENDBRANCH  32  34
ENDBRANCH  27  28
ENDBRANCH   8  27
TORSDOF 7
ENDMDL
MODEL 7
REMARK VINA RESULT:      -7.9      1.027      2.154
REMARK  Name = 
REMARK  10 active torsions:
REMARK  status: ('A' for Active; 'I' for Inactive)
REMARK    1  A    between atoms: C_1  and  C_2
REMARK    2  A    between atoms: C_2  and  C_3
REMARK    3  A    between atoms: C_3  and  C_4
REMARK    4  A    between atoms: C_3  and  C_29
REMARK    5  A    between atoms: N_6  and  C_7
REMARK    6  A    between atoms: N_14  and  C_15
REMARK    7  A    between atoms: C_15  and  C_16
REMARK    8  A    between atoms: C_20  and  O_21
REMARK    9  A    between atoms: O_21  and  C_22
REMARK   10  A    between atoms: C_26  and  C_27
REMARK                            x       y       z     vdW  Elec       q    Type
REMARK                         _______ _______ _______ _____ _____    ______ ____
ROOT
ATOM      1  C   UNL     1       1.233   9.032  21.365  0.00  0.00    +0.000 A 
ATOM      2  C   UNL     1       0.342   8.748  22.396  0.00  0.00    +0.000 A 
ATOM      3  C   UNL     1      -0.375   9.782  22.989  0.00  0.00    +0.000 A 
ATOM      4  C   UNL     1      -0.277  11.075  22.477  0.00  0.00    +0.000 A 
ATOM      5  C   UNL     1       0.556  11.376  21.396  0.00  0.00    +0.000 A 
ATOM      6  C   UNL     1       1.344  10.340  20.866  0.00  0.00    +0.000 A 
ATOM      7  C   UNL     1       0.645  12.781  20.859  0.00  0.00    +0.000 C 
ATOM      8  N   UNL     1      -0.628  13.317  20.387  0.00  0.00    +0.000 N 
ATOM      9  C   UNL     1      -1.637  13.667  21.269  0.00  0.00    +0.000 C 
ATOM     10  O   UNL     1      -2.348  14.660  21.109  0.00  0.00    +0.000 OA
ATOM     11  C   UNL     1      -2.052  12.572  22.267  0.00  0.00    +0.000 C 
ATOM     12  C   UNL     1      -2.878  11.517  21.506  0.00  0.00    +0.000 C 
ATOM     13  O   UNL     1      -1.034  12.027  23.097  0.00  0.00    +0.000 OA
ENDROOT
BRANCH   1  16
ATOM     14  C   UNL     1       2.153   7.765  19.485  0.00  0.00    +0.000 C 
ATOM     15  O   UNL     1       1.679   8.490  18.610  0.00  0.00    +0.000 OA
ATOM     16  N   UNL     1       1.988   7.966  20.845  0.00  0.00    +0.000 N 
ATOM     17  H   UNL     1       2.744   7.622  21.425  0.00  0.00    +0.000 HD
BRANCH  14  18
ATOM     18  C   UNL     1       2.945   6.506  19.113  0.00  0.00    +0.000 C 
BRANCH  18  19
ATOM     19  C   UNL     1       2.164   5.213  19.359  0.00  0.00    +0.000 A 
ATOM     20  C   UNL     1       1.752   4.441  18.257  0.00  0.00    +0.000 A 
ATOM     21  C   UNL     1       1.018   3.265  18.442  0.00  0.00    +0.000 A 
ATOM     22  C   UNL     1       0.694   2.836  19.729  0.00  0.00    +0.000 A 
ATOM     23  C   UNL     1       1.112   3.571  20.827  0.00  0.00    +0.000 A 
ATOM     24  C   UNL     1       1.838   4.754  20.647  0.00  0.00    +0.000 A 
ENDBRANCH  18  19
BRANCH  18  26
ATOM     25  C   UNL     1       5.003   6.367  17.594  0.00  0.00    +0.000 C 
ATOM     26  C   UNL     1       3.505   6.634  17.683  0.00  0.00    +0.000 C 
ENDBRANCH  18  26
ENDBRANCH  14  18
ENDBRANCH   1  16
BRANCH   8  27
ATOM     27  C   UNL     1      -0.931  13.350  18.966  0.00  0.00    +0.000 C 
BRANCH  27  28
ATOM     28  C   UNL     1      -1.599  12.115  18.416  0.00  0.00    +0.000 A 
ATOM     29  C   UNL     1      -0.829  10.997  18.054  0.00  0.00    +0.000 A 
ATOM     30  C   UNL     1      -1.422   9.892  17.452  0.00  0.00    +0.000 A 
ATOM     31  C   UNL     1      -2.795   9.887  17.215  0.00  0.00    +0.000 A 
ATOM     32  C   UNL     1      -3.585  10.977  17.589  0.00  0.00    +0.000 A 
ATOM     33  C   UNL     1      -2.985  12.086  18.197  0.00  0.00    +0.000 A 
BRANCH  32  34
ATOM     34  O   UNL     1      -4.912  10.845  17.285  0.00  0.00    +0.000 OA
ATOM     35  C   UNL     1      -5.837  11.003  18.350  0.00  0.00    +0.000 C 
ENDBRANCH  32  34
ENDBRANCH  27  28
ENDBRANCH   8  27
TORSDOF 7
ENDMDL
MODEL 8
REMARK VINA RESULT:      -7.8      2.464      4.660
REMARK  Name = 
REMARK  10 active torsions:
REMARK  status: ('A' for Active; 'I' for Inactive)
REMARK    1  A    between atoms: C_1  and  C_2
REMARK    2  A    between atoms: C_2  and  C_3
REMARK    3  A    between atoms: C_3  and  C_4
REMARK    4  A    between atoms: C_3  and  C_29
REMARK    5  A    between atoms: N_6  and  C_7
REMARK    6  A    between atoms: N_14  and  C_15
REMARK    7  A    between atoms: C_15  and  C_16
REMARK    8  A    between atoms: C_20  and  O_21
REMARK    9  A    between atoms: O_21  and  C_22
REMARK   10  A    between atoms: C_26  and  C_27
REMARK                            x       y       z     vdW  Elec       q    Type
REMARK                         _______ _______ _______ _____ _____    ______ ____
ROOT
ATOM      1  C   UNL     1       1.024   9.413  21.183  0.00  0.00    +0.000 A 
ATOM      2  C   UNL     1      -0.087   9.025  21.927  0.00  0.00    +0.000 A 
ATOM      3  C   UNL     1      -0.894   9.995  22.513  0.00  0.00    +0.000 A 
ATOM      4  C   UNL     1      -0.647  11.344  22.264  0.00  0.00    +0.000 A 
ATOM      5  C   UNL     1       0.419  11.761  21.461  0.00  0.00    +0.000 A 
ATOM      6  C   UNL     1       1.280  10.774  20.951  0.00  0.00    +0.000 A 
ATOM      7  C   UNL     1       0.665  13.224  21.205  0.00  0.00    +0.000 C 
ATOM      8  N   UNL     1      -0.451  13.909  20.561  0.00  0.00    +0.000 N 
ATOM      9  C   UNL     1      -1.626  14.178  21.244  0.00  0.00    +0.000 C 
ATOM     10  O   UNL     1      -2.255  15.227  21.102  0.00  0.00    +0.000 OA
ATOM     11  C   UNL     1      -2.286  12.967  21.923  0.00  0.00    +0.000 C 
ATOM     12  C   UNL     1      -2.944  12.101  20.830  0.00  0.00    +0.000 C 
ATOM     13  O   UNL     1      -1.501  12.232  22.853  0.00  0.00    +0.000 OA
ENDROOT
BRANCH   1  16
ATOM     14  C   UNL     1       1.952   8.137  19.313  0.00  0.00    +0.000 C 
ATOM     15  O   UNL     1       1.356   8.762  18.436  0.00  0.00    +0.000 OA
ATOM     16  N   UNL     1       1.850   8.397  20.669  0.00  0.00    +0.000 N 
ATOM     17  H   UNL     1       2.669   8.161  21.216  0.00  0.00    +0.000 HD
BRANCH  14  18
ATOM     18  C   UNL     1       2.843   6.941  18.955  0.00  0.00    +0.000 C 
BRANCH  18  19
ATOM     19  C   UNL     1       2.158   5.592  19.188  0.00  0.00    +0.000 A 
ATOM     20  C   UNL     1       1.796   5.226  20.497  0.00  0.00    +0.000 A 
ATOM     21  C   UNL     1       1.188   3.992  20.752  0.00  0.00    +0.000 A 
ATOM     22  C   UNL     1       0.923   3.112  19.703  0.00  0.00    +0.000 A 
ATOM     23  C   UNL     1       1.250   3.466  18.404  0.00  0.00    +0.000 A 
ATOM     24  C   UNL     1       1.868   4.696  18.146  0.00  0.00    +0.000 A 
ENDBRANCH  18  19
BRANCH  18  26
ATOM     25  C   UNL     1       4.859   6.641  17.403  0.00  0.00    +0.000 C 
ATOM     26  C   UNL     1       3.416   7.113  17.534  0.00  0.00    +0.000 C 
ENDBRANCH  18  26
ENDBRANCH  14  18
ENDBRANCH   1  16
BRANCH   8  27
ATOM     27  C   UNL     1      -0.420  14.188  19.135  0.00  0.00    +0.000 C 
BRANCH  27  28
ATOM     28  C   UNL     1       0.200  15.506  18.744  0.00  0.00    +0.000 A 
ATOM     29  C   UNL     1      -0.612  16.573  18.325  0.00  0.00    +0.000 A 
ATOM     30  C   UNL     1      -0.047  17.758  17.867  0.00  0.00    +0.000 A 
ATOM     31  C   UNL     1       1.339  17.894  17.832  0.00  0.00    +0.000 A 
ATOM     32  C   UNL     1       2.167  16.856  18.266  0.00  0.00    +0.000 A 
ATOM     33  C   UNL     1       1.594  15.666  18.729  0.00  0.00    +0.000 A 
BRANCH  32  34
ATOM     34  O   UNL     1       3.505  17.120  18.163  0.00  0.00    +0.000 OA
ATOM     35  C   UNL     1       4.391  16.016  18.279  0.00  0.00    +0.000 C 
ENDBRANCH  32  34
ENDBRANCH  27  28
ENDBRANCH   8  27
TORSDOF 7
ENDMDL
MODEL 9
REMARK VINA RESULT:      -7.8      2.606      4.815
REMARK  Name = 
REMARK  10 active torsions:
REMARK  status: ('A' for Active; 'I' for Inactive)
REMARK    1  A    between atoms: C_1  and  C_2
REMARK    2  A    between atoms: C_2  and  C_3
REMARK    3  A    between atoms: C_3  and  C_4
REMARK    4  A    between atoms: C_3  and  C_29
REMARK    5  A    between atoms: N_6  and  C_7
REMARK    6  A    between atoms: N_14  and  C_15
REMARK    7  A    between atoms: C_15  and  C_16
REMARK    8  A    between atoms: C_20  and  O_21
REMARK    9  A    between atoms: O_21  and  C_22
REMARK   10  A    between atoms: C_26  and  C_27
REMARK                            x       y       z     vdW  Elec       q    Type
REMARK                         _______ _______ _______ _____ _____    ______ ____
ROOT
ATOM      1  C   UNL     1       1.123   8.905  21.021  0.00  0.00    +0.000 A 
ATOM      2  C   UNL     1      -0.153   8.619  21.499  0.00  0.00    +0.000 A 
ATOM      3  C   UNL     1      -0.984   9.659  21.905  0.00  0.00    +0.000 A 
ATOM      4  C   UNL     1      -0.575  10.980  21.732  0.00  0.00    +0.000 A 
ATOM      5  C   UNL     1       0.674  11.298  21.188  0.00  0.00    +0.000 A 
ATOM      6  C   UNL     1       1.538  10.237  20.867  0.00  0.00    +0.000 A 
ATOM      7  C   UNL     1       1.094  12.733  21.009  0.00  0.00    +0.000 C 
ATOM      8  N   UNL     1       0.208  13.506  20.144  0.00  0.00    +0.000 N 
ATOM      9  C   UNL     1      -1.061  13.879  20.555  0.00  0.00    +0.000 C 
ATOM     10  O   UNL     1      -1.552  14.978  20.291  0.00  0.00    +0.000 OA
ATOM     11  C   UNL     1      -1.955  12.734  21.059  0.00  0.00    +0.000 C 
ATOM     12  C   UNL     1      -2.427  11.920  19.838  0.00  0.00    +0.000 C 
ATOM     13  O   UNL     1      -1.458  11.941  22.129  0.00  0.00    +0.000 OA
ENDROOT
BRANCH   1  16
ATOM     14  C   UNL     1       2.307   7.526  19.384  0.00  0.00    +0.000 C 
ATOM     15  O   UNL     1       1.955   8.179  18.401  0.00  0.00    +0.000 OA
ATOM     16  N   UNL     1       1.952   7.819  20.690  0.00  0.00    +0.000 N 
ATOM     17  H   UNL     1       2.621   7.530  21.393  0.00  0.00    +0.000 HD
BRANCH  14  18
ATOM     18  C   UNL     1       3.153   6.258  19.217  0.00  0.00    +0.000 C 
BRANCH  18  19
ATOM     19  C   UNL     1       2.346   4.971  19.398  0.00  0.00    +0.000 A 
ATOM     20  C   UNL     1       1.805   4.337  18.264  0.00  0.00    +0.000 A 
ATOM     21  C   UNL     1       1.043   3.170  18.392  0.00  0.00    +0.000 A 
ATOM     22  C   UNL     1       0.819   2.615  19.652  0.00  0.00    +0.000 A 
ATOM     23  C   UNL     1       1.364   3.212  20.777  0.00  0.00    +0.000 A 
ATOM     24  C   UNL     1       2.119   4.385  20.655  0.00  0.00    +0.000 A 
ENDBRANCH  18  19
BRANCH  18  26
ATOM     25  C   UNL     1       5.214   5.473  17.913  0.00  0.00    +0.000 C 
ATOM     26  C   UNL     1       3.945   6.318  17.896  0.00  0.00    +0.000 C 
ENDBRANCH  18  26
ENDBRANCH  14  18
ENDBRANCH   1  16
BRANCH   8  27
ATOM     27  C   UNL     1       0.576  13.771  18.763  0.00  0.00    +0.000 C 
BRANCH  27  28
ATOM     28  C   UNL     1       1.718  14.736  18.568  0.00  0.00    +0.000 A 
ATOM     29  C   UNL     1       1.498  16.120  18.662  0.00  0.00    +0.000 A 
ATOM     30  C   UNL     1       2.520  17.022  18.386  0.00  0.00    +0.000 A 
ATOM     31  C   UNL     1       3.779  16.549  18.021  0.00  0.00    +0.000 A 
ATOM     32  C   UNL     1       4.028  15.176  17.945  0.00  0.00    +0.000 A 
ATOM     33  C   UNL     1       2.998  14.272  18.226  0.00  0.00    +0.000 A 
BRANCH  32  34
ATOM     34  O   UNL     1       5.302  14.854  17.562  0.00  0.00    +0.000 OA
ATOM     35  C   UNL     1       6.301  14.865  18.572  0.00  0.00    +0.000 C 
ENDBRANCH  32  34
ENDBRANCH  27  28
ENDBRANCH   8  27
TORSDOF 7
ENDMDL
