MODEL 1
REMARK VINA RESULT:      -8.3      0.000      0.000
REMARK  Name = 
REMARK  10 active torsions:
REMARK  status: ('A' for Active; 'I' for Inactive)
REMARK    1  A    between atoms: C_1  and  C_2
REMARK    2  A    between atoms: C_2  and  C_25
REMARK    3  A    between atoms: N_3  and  O_4
REMARK    4  A    between atoms: O_4  and  C_5
REMARK    5  A    between atoms: C_5  and  C_6
REMARK    6  A    between atoms: C_5  and  C_19
REMARK    7  A    between atoms: C_9  and  O_10
REMARK    8  A    between atoms: O_10  and  C_11
REMARK    9  A    between atoms: C_11  and  C_12
REMARK   10  A    between atoms: C_25  and  O_27
REMARK                            x       y       z     vdW  Elec       q    Type
REMARK                         _______ _______ _______ _____ _____    ______ ____
ROOT
ATOM      1  C   UNL     1       3.654   5.489  19.464  0.00  0.00    +0.000 C 
ENDROOT
BRANCH   1   2
ATOM      2  C   UNL     1       2.783   6.728  19.265  0.00  0.00    +0.000 A 
ATOM      3  C   UNL     1       2.007   7.258  20.300  0.00  0.00    +0.000 A 
ATOM      4  C   UNL     1       1.335   8.466  20.158  0.00  0.00    +0.000 A 
ATOM      5  C   UNL     1       1.367   9.145  18.947  0.00  0.00    +0.000 A 
ATOM      6  C   UNL     1       2.024   8.574  17.859  0.00  0.00    +0.000 A 
ATOM      7  C   UNL     1       2.748   7.384  18.021  0.00  0.00    +0.000 A 
BRANCH   5   8
ATOM      8  O   UNL     1       0.781  10.366  18.743  0.00  0.00    +0.000 OA
BRANCH   8   9
ATOM      9  C   UNL     1      -0.531  10.483  19.316  0.00  0.00    +0.000 C 
BRANCH   9  10
ATOM     10  C   UNL     1      -1.604  10.596  18.283  0.00  0.00    +0.000 A 
ATOM     11  C   UNL     1      -1.670   9.938  17.070  0.00  0.00    +0.000 A 
ATOM     12  S   UNL     1      -3.074  10.418  16.214  0.00  0.00    +0.000 S 
ATOM     13  C   UNL     1      -3.492  11.453  17.515  0.00  0.00    +0.000 A 
ATOM     14  N   UNL     1      -2.661  11.462  18.535  0.00  0.00    +0.000 NA
ENDBRANCH   9  10
ENDBRANCH   8   9
ENDBRANCH   5   8
ENDBRANCH   1   2
BRANCH   1  15
ATOM     15  C   UNL     1       3.111   4.130  18.897  0.00  0.00    +0.000 C 
ATOM     16  C   UNL     1       3.606   2.907  19.698  0.00  0.00    +0.000 C 
ATOM     17  C   UNL     1       2.898   2.733  21.041  0.00  0.00    +0.000 C 
ATOM     18  C   UNL     1       1.377   2.727  20.906  0.00  0.00    +0.000 C 
ATOM     19  C   UNL     1       0.869   3.928  20.125  0.00  0.00    +0.000 C 
ATOM     20  C   UNL     1       1.571   4.037  18.781  0.00  0.00    +0.000 C 
ENDBRANCH   1  15
BRANCH   1  21
ATOM     21  O   UNL     1       4.986   5.763  18.968  0.00  0.00    +0.000 OA
BRANCH  21  24
ATOM     22  C   UNL     1       7.603   5.346  18.346  0.00  0.00    +0.000 C 
ATOM     23  C   UNL     1       6.446   5.036  17.437  0.00  0.00    +0.000 C 
ATOM     24  N   UNL     1       5.180   5.220  17.681  0.00  0.00    +0.000 NA
BRANCH  23  25
ATOM     25  C   UNL     1       6.796   4.479  16.056  0.00  0.00    +0.000 C 
ATOM     26  O   UNL     1       7.575   5.022  15.298  0.00  0.00    +0.000 OA
BRANCH  25  27
ATOM     27  O   UNL     1       6.131   3.335  15.815  0.00  0.00    +0.000 OA
ATOM     28  H   UNL     1       5.739   3.017  16.660  0.00  0.00    +0.000 HD
ENDBRANCH  25  27
ENDBRANCH  23  25
ENDBRANCH  21  24
ENDBRANCH   1  21
TORSDOF 9
ENDMDL
MODEL 2
REMARK VINA RESULT:      -8.2      1.202      1.877
REMARK  Name = 
REMARK  10 active torsions:
REMARK  status: ('A' for Active; 'I' for Inactive)
REMARK    1  A    between atoms: C_1  and  C_2
REMARK    2  A    between atoms: C_2  and  C_25
REMARK    3  A    between atoms: N_3  and  O_4
REMARK    4  A    between atoms: O_4  and  C_5
REMARK    5  A    between atoms: C_5  and  C_6
REMARK    6  A    between atoms: C_5  and  C_19
REMARK    7  A    between atoms: C_9  and  O_10
REMARK    8  A    between atoms: O_10  and  C_11
REMARK    9  A    between atoms: C_11  and  C_12
REMARK   10  A    between atoms: C_25  and  O_27
REMARK                            x       y       z     vdW  Elec       q    Type
REMARK                         _______ _______ _______ _____ _____    ______ ____
ROOT
ATOM      1  C   UNL     1       3.224   5.488  19.851  0.00  0.00    +0.000 C 
ENDROOT
BRANCH   1   2
ATOM      2  C   UNL     1       2.474   6.778  19.523  0.00  0.00    +0.000 A 
ATOM      3  C   UNL     1       1.774   7.493  20.499  0.00  0.00    +0.000 A 
ATOM      4  C   UNL     1       1.221   8.739  20.229  0.00  0.00    +0.000 A 
ATOM      5  C   UNL     1       1.294   9.274  18.948  0.00  0.00    +0.000 A 
ATOM      6  C   UNL     1       1.871   8.524  17.926  0.00  0.00    +0.000 A 
ATOM      7  C   UNL     1       2.478   7.293  18.213  0.00  0.00    +0.000 A 
BRANCH   5   8
ATOM      8  O   UNL     1       0.826  10.517  18.614  0.00  0.00    +0.000 OA
BRANCH   8   9
ATOM      9  C   UNL     1      -0.410  10.863  19.258  0.00  0.00    +0.000 C 
BRANCH   9  10
ATOM     10  C   UNL     1      -1.574  10.841  18.321  0.00  0.00    +0.000 A 
ATOM     11  C   UNL     1      -2.713  11.620  18.384  0.00  0.00    +0.000 A 
ATOM     12  S   UNL     1      -3.778  11.210  17.107  0.00  0.00    +0.000 S 
ATOM     13  C   UNL     1      -2.649  10.042  16.562  0.00  0.00    +0.000 A 
ATOM     14  N   UNL     1      -1.541   9.940  17.264  0.00  0.00    +0.000 NA
ENDBRANCH   9  10
ENDBRANCH   8   9
ENDBRANCH   5   8
ENDBRANCH   1   2
BRANCH   1  15
ATOM     15  C   UNL     1       2.418   4.352  20.574  0.00  0.00    +0.000 C 
ATOM     16  C   UNL     1       1.032   4.106  19.942  0.00  0.00    +0.000 C 
ATOM     17  C   UNL     1       1.094   3.343  18.619  0.00  0.00    +0.000 C 
ATOM     18  C   UNL     1       1.891   2.045  18.727  0.00  0.00    +0.000 C 
ATOM     19  C   UNL     1       3.263   2.268  19.343  0.00  0.00    +0.000 C 
ATOM     20  C   UNL     1       3.149   2.992  20.674  0.00  0.00    +0.000 C 
ENDBRANCH   1  15
BRANCH   1  21
ATOM     21  O   UNL     1       3.857   4.991  18.648  0.00  0.00    +0.000 OA
BRANCH  21  24
ATOM     22  C   UNL     1       5.153   3.851  16.543  0.00  0.00    +0.000 C 
ATOM     23  C   UNL     1       5.829   4.564  17.681  0.00  0.00    +0.000 C 
ATOM     24  N   UNL     1       5.259   5.121  18.713  0.00  0.00    +0.000 NA
BRANCH  23  25
ATOM     25  C   UNL     1       7.357   4.608  17.646  0.00  0.00    +0.000 C 
ATOM     26  O   UNL     1       8.003   4.470  16.626  0.00  0.00    +0.000 OA
BRANCH  25  27
ATOM     27  O   UNL     1       7.862   4.813  18.875  0.00  0.00    +0.000 OA
ATOM     28  H   UNL     1       7.238   4.437  19.537  0.00  0.00    +0.000 HD
ENDBRANCH  25  27
ENDBRANCH  23  25
ENDBRANCH  21  24
ENDBRANCH   1  21
TORSDOF 9
ENDMDL
MODEL 3
REMARK VINA RESULT:      -8.2      1.225      2.042
REMARK  Name = 
REMARK  10 active torsions:
REMARK  status: ('A' for Active; 'I' for Inactive)
REMARK    1  A    between atoms: C_1  and  C_2
REMARK    2  A    between atoms: C_2  and  C_25
REMARK    3  A    between atoms: N_3  and  O_4
REMARK    4  A    between atoms: O_4  and  C_5
REMARK    5  A    between atoms: C_5  and  C_6
REMARK    6  A    between atoms: C_5  and  C_19
REMARK    7  A    between atoms: C_9  and  O_10
REMARK    8  A    between atoms: O_10  and  C_11
REMARK    9  A    between atoms: C_11  and  C_12
REMARK   10  A    between atoms: C_25  and  O_27
REMARK                            x       y       z     vdW  Elec       q    Type
REMARK                         _______ _______ _______ _____ _____    ______ ____
ROOT
ATOM      1  C   UNL     1       2.859   5.787  18.788  0.00  0.00    +0.000 C 
ENDROOT
BRANCH   1   2
ATOM      2  C   UNL     1       2.369   7.232  18.858  0.00  0.00    +0.000 A 
ATOM      3  C   UNL     1       2.546   8.123  17.795  0.00  0.00    +0.000 A 
ATOM      4  C   UNL     1       1.969   9.387  17.804  0.00  0.00    +0.000 A 
ATOM      5  C   UNL     1       1.254   9.822  18.914  0.00  0.00    +0.000 A 
ATOM      6  C   UNL     1       1.175   9.004  20.039  0.00  0.00    +0.000 A 
ATOM      7  C   UNL     1       1.709   7.708  20.006  0.00  0.00    +0.000 A 
BRANCH   5   8
ATOM      8  O   UNL     1       0.608  11.027  18.979  0.00  0.00    +0.000 OA
BRANCH   8   9
ATOM      9  C   UNL     1      -0.699  10.953  19.571  0.00  0.00    +0.000 C 
BRANCH   9  10
ATOM     10  C   UNL     1      -1.790  10.892  18.552  0.00  0.00    +0.000 A 
ATOM     11  C   UNL     1      -2.885  11.728  18.447  0.00  0.00    +0.000 A 
ATOM     12  S   UNL     1      -3.875  11.243  17.137  0.00  0.00    +0.000 S 
ATOM     13  C   UNL     1      -2.777   9.970  16.800  0.00  0.00    +0.000 A 
ATOM     14  N   UNL     1      -1.730   9.887  17.594  0.00  0.00    +0.000 NA
ENDBRANCH   9  10
ENDBRANCH   8   9
ENDBRANCH   5   8
ENDBRANCH   1   2
BRANCH   1  15
ATOM     15  C   UNL     1       1.777   4.669  18.587  0.00  0.00    +0.000 C 
ATOM     16  C   UNL     1       2.160   3.656  17.487  0.00  0.00    +0.000 C 
ATOM     17  C   UNL     1       3.234   2.661  17.925  0.00  0.00    +0.000 C 
ATOM     18  C   UNL     1       2.881   1.954  19.231  0.00  0.00    +0.000 C 
ATOM     19  C   UNL     1       2.506   2.936  20.329  0.00  0.00    +0.000 C 
ATOM     20  C   UNL     1       1.408   3.877  19.863  0.00  0.00    +0.000 C 
ENDBRANCH   1  15
BRANCH   1  21
ATOM     21  O   UNL     1       3.900   5.689  17.787  0.00  0.00    +0.000 OA
BRANCH  21  24
ATOM     22  C   UNL     1       5.778   4.672  16.099  0.00  0.00    +0.000 C 
ATOM     23  C   UNL     1       6.034   5.067  17.528  0.00  0.00    +0.000 C 
ATOM     24  N   UNL     1       5.173   5.552  18.377  0.00  0.00    +0.000 NA
BRANCH  23  25
ATOM     25  C   UNL     1       7.450   4.838  18.055  0.00  0.00    +0.000 C 
ATOM     26  O   UNL     1       7.842   5.270  19.120  0.00  0.00    +0.000 OA
BRANCH  25  27
ATOM     27  O   UNL     1       8.176   4.109  17.187  0.00  0.00    +0.000 OA
ATOM     28  H   UNL     1       8.073   3.157  17.416  0.00  0.00    +0.000 HD
ENDBRANCH  25  27
ENDBRANCH  23  25
ENDBRANCH  21  24
ENDBRANCH   1  21
TORSDOF 9
ENDMDL
MODEL 4
REMARK VINA RESULT:      -8.2      2.173      2.649
REMARK  Name = 
REMARK  10 active torsions:
REMARK  status: ('A' for Active; 'I' for Inactive)
REMARK    1  A    between atoms: C_1  and  C_2
REMARK    2  A    between atoms: C_2  and  C_25
REMARK    3  A    between atoms: N_3  and  O_4
REMARK    4  A    between atoms: O_4  and  C_5
REMARK    5  A    between atoms: C_5  and  C_6
REMARK    6  A    between atoms: C_5  and  C_19
REMARK    7  A    between atoms: C_9  and  O_10
REMARK    8  A    between atoms: O_10  and  C_11
REMARK    9  A    between atoms: C_11  and  C_12
REMARK   10  A    between atoms: C_25  and  O_27
REMARK                            x       y       z     vdW  Elec       q    Type
REMARK                         _______ _______ _______ _____ _____    ______ ____
ROOT
ATOM      1  C   UNL     1       3.747   5.302  18.544  0.00  0.00    +0.000 C 
ENDROOT
BRANCH   1   2
ATOM      2  C   UNL     1       2.998   6.601  18.833  0.00  0.00    +0.000 A 
ATOM      3  C   UNL     1       2.895   7.621  17.883  0.00  0.00    +0.000 A 
ATOM      4  C   UNL     1       2.091   8.734  18.095  0.00  0.00    +0.000 A 
ATOM      5  C   UNL     1       1.418   8.890  19.301  0.00  0.00    +0.000 A 
ATOM      6  C   UNL     1       1.607   7.954  20.316  0.00  0.00    +0.000 A 
ATOM      7  C   UNL     1       2.374   6.804  20.078  0.00  0.00    +0.000 A 
BRANCH   5   8
ATOM      8  O   UNL     1       0.562   9.925  19.568  0.00  0.00    +0.000 OA
BRANCH   8   9
ATOM      9  C   UNL     1       0.873  10.637  20.777  0.00  0.00    +0.000 C 
BRANCH   9  10
ATOM     10  C   UNL     1      -0.328  11.277  21.393  0.00  0.00    +0.000 A 
ATOM     11  C   UNL     1      -1.359  11.925  20.740  0.00  0.00    +0.000 A 
ATOM     12  S   UNL     1      -2.494  12.522  21.876  0.00  0.00    +0.000 S 
ATOM     13  C   UNL     1      -1.542  11.871  23.144  0.00  0.00    +0.000 A 
ATOM     14  N   UNL     1      -0.445  11.243  22.778  0.00  0.00    +0.000 NA
ENDBRANCH   9  10
ENDBRANCH   8   9
ENDBRANCH   5   8
ENDBRANCH   1   2
BRANCH   1  15
ATOM     15  C   UNL     1       3.053   4.270  17.586  0.00  0.00    +0.000 C 
ATOM     16  C   UNL     1       3.640   2.848  17.713  0.00  0.00    +0.000 C 
ATOM     17  C   UNL     1       3.190   2.115  18.975  0.00  0.00    +0.000 C 
ATOM     18  C   UNL     1       1.672   2.103  19.137  0.00  0.00    +0.000 C 
ATOM     19  C   UNL     1       1.075   3.496  19.022  0.00  0.00    +0.000 C 
ATOM     20  C   UNL     1       1.516   4.170  17.733  0.00  0.00    +0.000 C 
ENDBRANCH   1  15
BRANCH   1  21
ATOM     21  O   UNL     1       5.083   5.619  18.086  0.00  0.00    +0.000 OA
BRANCH  21  24
ATOM     22  C   UNL     1       7.510   4.607  17.381  0.00  0.00    +0.000 C 
ATOM     23  C   UNL     1       6.395   4.910  16.418  0.00  0.00    +0.000 C 
ATOM     24  N   UNL     1       5.220   5.398  16.701  0.00  0.00    +0.000 NA
BRANCH  23  25
ATOM     25  C   UNL     1       6.684   4.654  14.939  0.00  0.00    +0.000 C 
ATOM     26  O   UNL     1       6.033   3.888  14.257  0.00  0.00    +0.000 OA
BRANCH  25  27
ATOM     27  O   UNL     1       7.735   5.381  14.519  0.00  0.00    +0.000 OA
ATOM     28  H   UNL     1       7.942   6.056  15.206  0.00  0.00    +0.000 HD
ENDBRANCH  25  27
ENDBRANCH  23  25
ENDBRANCH  21  24
ENDBRANCH   1  21
TORSDOF 9
ENDMDL
MODEL 5
REMARK VINA RESULT:      -8.1      1.325      1.734
REMARK  Name = 
REMARK  10 active torsions:
REMARK  status: ('A' for Active; 'I' for Inactive)
REMARK    1  A    between atoms: C_1  and  C_2
REMARK    2  A    between atoms: C_2  and  C_25
REMARK    3  A    between atoms: N_3  and  O_4
REMARK    4  A    between atoms: O_4  and  C_5
REMARK    5  A    between atoms: C_5  and  C_6
REMARK    6  A    between atoms: C_5  and  C_19
REMARK    7  A    between atoms: C_9  and  O_10
REMARK    8  A    between atoms: O_10  and  C_11
REMARK    9  A    between atoms: C_11  and  C_12
REMARK   10  A    between atoms: C_25  and  O_27
REMARK                            x       y       z     vdW  Elec       q    Type
REMARK                         _______ _______ _______ _____ _____    ______ ____
ROOT
ATOM      1  C   UNL     1       3.763   5.328  18.549  0.00  0.00    +0.000 C 
ENDROOT
BRANCH   1   2
ATOM      2  C   UNL     1       3.011   6.636  18.790  0.00  0.00    +0.000 A 
ATOM      3  C   UNL     1       2.925   7.629  17.810  0.00  0.00    +0.000 A 
ATOM      4  C   UNL     1       2.118   8.747  17.978  0.00  0.00    +0.000 A 
ATOM      5  C   UNL     1       1.425   8.937  19.168  0.00  0.00    +0.000 A 
ATOM      6  C   UNL     1       1.596   8.029  20.211  0.00  0.00    +0.000 A 
ATOM      7  C   UNL     1       2.366   6.873  20.018  0.00  0.00    +0.000 A 
BRANCH   5   8
ATOM      8  O   UNL     1       0.566   9.980  19.391  0.00  0.00    +0.000 OA
BRANCH   8   9
ATOM      9  C   UNL     1      -0.323  10.243  18.294  0.00  0.00    +0.000 C 
BRANCH   9  10
ATOM     10  C   UNL     1      -1.519  11.041  18.700  0.00  0.00    +0.000 A 
ATOM     11  C   UNL     1      -1.623  11.906  19.772  0.00  0.00    +0.000 A 
ATOM     12  S   UNL     1      -3.203  12.563  19.849  0.00  0.00    +0.000 S 
ATOM     13  C   UNL     1      -3.627  11.662  18.454  0.00  0.00    +0.000 A 
ATOM     14  N   UNL     1      -2.676  10.912  17.941  0.00  0.00    +0.000 NA
ENDBRANCH   9  10
ENDBRANCH   8   9
ENDBRANCH   5   8
ENDBRANCH   1   2
BRANCH   1  15
ATOM     15  C   UNL     1       3.113   4.295  17.564  0.00  0.00    +0.000 C 
ATOM     16  C   UNL     1       3.708   2.878  17.704  0.00  0.00    +0.000 C 
ATOM     17  C   UNL     1       3.220   2.135  18.947  0.00  0.00    +0.000 C 
ATOM     18  C   UNL     1       1.697   2.109  19.056  0.00  0.00    +0.000 C 
ATOM     19  C   UNL     1       1.093   3.497  18.926  0.00  0.00    +0.000 C 
ATOM     20  C   UNL     1       1.573   4.181  17.657  0.00  0.00    +0.000 C 
ENDBRANCH   1  15
BRANCH   1  21
ATOM     21  O   UNL     1       5.125   5.632  18.160  0.00  0.00    +0.000 OA
BRANCH  21  24
ATOM     22  C   UNL     1       7.581   4.612  17.580  0.00  0.00    +0.000 C 
ATOM     23  C   UNL     1       6.516   4.915  16.562  0.00  0.00    +0.000 C 
ATOM     24  N   UNL     1       5.330   5.407  16.784  0.00  0.00    +0.000 NA
BRANCH  23  25
ATOM     25  C   UNL     1       6.879   4.654  15.100  0.00  0.00    +0.000 C 
ATOM     26  O   UNL     1       7.558   5.412  14.437  0.00  0.00    +0.000 OA
BRANCH  25  27
ATOM     27  O   UNL     1       6.348   3.494  14.671  0.00  0.00    +0.000 OA
ATOM     28  H   UNL     1       5.855   3.081  15.417  0.00  0.00    +0.000 HD
ENDBRANCH  25  27
ENDBRANCH  23  25
ENDBRANCH  21  24
ENDBRANCH   1  21
TORSDOF 9
ENDMDL
MODEL 6
REMARK VINA RESULT:      -8.0      2.413      2.785
REMARK  Name = 
REMARK  10 active torsions:
REMARK  status: ('A' for Active; 'I' for Inactive)
REMARK    1  A    between atoms: C_1  and  C_2
REMARK    2  A    between atoms: C_2  and  C_25
REMARK    3  A    between atoms: N_3  and  O_4
REMARK    4  A    between atoms: O_4  and  C_5
REMARK    5  A    between atoms: C_5  and  C_6
REMARK    6  A    between atoms: C_5  and  C_19
REMARK    7  A    between atoms: C_9  and  O_10
REMARK    8  A    between atoms: O_10  and  C_11
REMARK    9  A    between atoms: C_11  and  C_12
REMARK   10  A    between atoms: C_25  and  O_27
REMARK                            x       y       z     vdW  Elec       q    Type
REMARK                         _______ _______ _______ _____ _____    ______ ____
ROOT
ATOM      1  C   UNL     1       3.766   5.377  18.585  0.00  0.00    +0.000 C 
ENDROOT
BRANCH   1   2
ATOM      2  C   UNL     1       2.881   6.578  18.912  0.00  0.00    +0.000 A 
ATOM      3  C   UNL     1       2.264   6.723  20.159  0.00  0.00    +0.000 A 
ATOM      4  C   UNL     1       1.584   7.885  20.502  0.00  0.00    +0.000 A 
ATOM      5  C   UNL     1       1.443   8.912  19.575  0.00  0.00    +0.000 A 
ATOM      6  C   UNL     1       1.933   8.739  18.283  0.00  0.00    +0.000 A 
ATOM      7  C   UNL     1       2.668   7.590  17.957  0.00  0.00    +0.000 A 
BRANCH   5   8
ATOM      8  O   UNL     1       0.839  10.109  19.852  0.00  0.00    +0.000 OA
BRANCH   8   9
ATOM      9  C   UNL     1       0.902  11.053  18.771  0.00  0.00    +0.000 C 
BRANCH   9  10
ATOM     10  C   UNL     1       1.710  12.263  19.109  0.00  0.00    +0.000 A 
ATOM     11  C   UNL     1       2.551  12.969  18.271  0.00  0.00    +0.000 A 
ATOM     12  S   UNL     1       3.284  14.262  19.122  0.00  0.00    +0.000 S 
ATOM     13  C   UNL     1       2.428  13.797  20.532  0.00  0.00    +0.000 A 
ATOM     14  N   UNL     1       1.638  12.751  20.408  0.00  0.00    +0.000 NA
ENDBRANCH   9  10
ENDBRANCH   8   9
ENDBRANCH   5   8
ENDBRANCH   1   2
BRANCH   1  15
ATOM     15  C   UNL     1       3.195   4.315  17.581  0.00  0.00    +0.000 C 
ATOM     16  C   UNL     1       3.825   2.918  17.765  0.00  0.00    +0.000 C 
ATOM     17  C   UNL     1       3.300   2.172  18.991  0.00  0.00    +0.000 C 
ATOM     18  C   UNL     1       1.775   2.101  19.027  0.00  0.00    +0.000 C 
ATOM     19  C   UNL     1       1.136   3.469  18.853  0.00  0.00    +0.000 C 
ATOM     20  C   UNL     1       1.656   4.155  17.601  0.00  0.00    +0.000 C 
ENDBRANCH   1  15
BRANCH   1  21
ATOM     21  O   UNL     1       5.065   5.851  18.158  0.00  0.00    +0.000 OA
BRANCH  21  24
ATOM     22  C   UNL     1       7.501   4.721  17.714  0.00  0.00    +0.000 C 
ATOM     23  C   UNL     1       6.480   5.004  16.647  0.00  0.00    +0.000 C 
ATOM     24  N   UNL     1       5.306   5.546  16.803  0.00  0.00    +0.000 NA
BRANCH  23  25
ATOM     25  C   UNL     1       6.879   4.653  15.213  0.00  0.00    +0.000 C 
ATOM     26  O   UNL     1       7.607   5.350  14.535  0.00  0.00    +0.000 OA
BRANCH  25  27
ATOM     27  O   UNL     1       6.319   3.492  14.827  0.00  0.00    +0.000 OA
ATOM     28  H   UNL     1       5.614   3.690  14.168  0.00  0.00    +0.000 HD
ENDBRANCH  25  27
ENDBRANCH  23  25
ENDBRANCH  21  24
ENDBRANCH   1  21
TORSDOF 9
ENDMDL
MODEL 7
REMARK VINA RESULT:      -8.0      2.168      2.411
REMARK  Name = 
REMARK  10 active torsions:
REMARK  status: ('A' for Active; 'I' for Inactive)
REMARK    1  A    between atoms: C_1  and  C_2
REMARK    2  A    between atoms: C_2  and  C_25
REMARK    3  A    between atoms: N_3  and  O_4
REMARK    4  A    between atoms: O_4  and  C_5
REMARK    5  A    between atoms: C_5  and  C_6
REMARK    6  A    between atoms: C_5  and  C_19
REMARK    7  A    between atoms: C_9  and  O_10
REMARK    8  A    between atoms: O_10  and  C_11
REMARK    9  A    between atoms: C_11  and  C_12
REMARK   10  A    between atoms: C_25  and  O_27
REMARK                            x       y       z     vdW  Elec       q    Type
REMARK                         _______ _______ _______ _____ _____    ______ ____
ROOT
ATOM      1  C   UNL     1       3.790   5.304  18.561  0.00  0.00    +0.000 C 
ENDROOT
BRANCH   1   2
ATOM      2  C   UNL     1       2.922   6.527  18.846  0.00  0.00    +0.000 A 
ATOM      3  C   UNL     1       2.267   6.698  20.069  0.00  0.00    +0.000 A 
ATOM      4  C   UNL     1       1.601   7.879  20.378  0.00  0.00    +0.000 A 
ATOM      5  C   UNL     1       1.515   8.899  19.439  0.00  0.00    +0.000 A 
ATOM      6  C   UNL     1       2.045   8.703  18.165  0.00  0.00    +0.000 A 
ATOM      7  C   UNL     1       2.765   7.534  17.876  0.00  0.00    +0.000 A 
BRANCH   5   8
ATOM      8  O   UNL     1       0.929  10.112  19.683  0.00  0.00    +0.000 OA
BRANCH   8   9
ATOM      9  C   UNL     1      -0.334  10.019  20.362  0.00  0.00    +0.000 C 
BRANCH   9  10
ATOM     10  C   UNL     1      -0.662  11.252  21.139  0.00  0.00    +0.000 A 
ATOM     11  C   UNL     1      -0.900  11.347  22.497  0.00  0.00    +0.000 A 
ATOM     12  S   UNL     1      -1.267  12.966  22.919  0.00  0.00    +0.000 S 
ATOM     13  C   UNL     1      -1.076  13.420  21.278  0.00  0.00    +0.000 A 
ATOM     14  N   UNL     1      -0.758  12.452  20.445  0.00  0.00    +0.000 NA
ENDBRANCH   9  10
ENDBRANCH   8   9
ENDBRANCH   5   8
ENDBRANCH   1   2
BRANCH   1  15
ATOM     15  C   UNL     1       3.216   4.229  17.573  0.00  0.00    +0.000 C 
ATOM     16  C   UNL     1       3.830   2.829  17.788  0.00  0.00    +0.000 C 
ATOM     17  C   UNL     1       3.289   2.112  19.024  0.00  0.00    +0.000 C 
ATOM     18  C   UNL     1       1.763   2.057  19.050  0.00  0.00    +0.000 C 
ATOM     19  C   UNL     1       1.139   3.427  18.846  0.00  0.00    +0.000 C 
ATOM     20  C   UNL     1       1.675   4.085  17.585  0.00  0.00    +0.000 C 
ENDBRANCH   1  15
BRANCH   1  21
ATOM     21  O   UNL     1       5.104   5.745  18.143  0.00  0.00    +0.000 OA
BRANCH  21  24
ATOM     22  C   UNL     1       7.545   4.654  17.629  0.00  0.00    +0.000 C 
ATOM     23  C   UNL     1       6.504   4.956  16.586  0.00  0.00    +0.000 C 
ATOM     24  N   UNL     1       5.326   5.481  16.776  0.00  0.00    +0.000 NA
BRANCH  23  25
ATOM     25  C   UNL     1       6.884   4.650  15.137  0.00  0.00    +0.000 C 
ATOM     26  O   UNL     1       7.626   5.353  14.481  0.00  0.00    +0.000 OA
BRANCH  25  27
ATOM     27  O   UNL     1       6.289   3.521  14.711  0.00  0.00    +0.000 OA
ATOM     28  H   UNL     1       5.321   3.686  14.640  0.00  0.00    +0.000 HD
ENDBRANCH  25  27
ENDBRANCH  23  25
ENDBRANCH  21  24
ENDBRANCH   1  21
TORSDOF 9
ENDMDL
MODEL 8
REMARK VINA RESULT:      -8.0      2.217      2.662
REMARK  Name = 
REMARK  10 active torsions:
REMARK  status: ('A' for Active; 'I' for Inactive)
REMARK    1  A    between atoms: C_1  and  C_2
REMARK    2  A    between atoms: C_2  and  C_25
REMARK    3  A    between atoms: N_3  and  O_4
REMARK    4  A    between atoms: O_4  and  C_5
REMARK    5  A    between atoms: C_5  and  C_6
REMARK    6  A    between atoms: C_5  and  C_19
REMARK    7  A    between atoms: C_9  and  O_10
REMARK    8  A    between atoms: O_10  and  C_11
REMARK    9  A    between atoms: C_11  and  C_12
REMARK   10  A    between atoms: C_25  and  O_27
REMARK                            x       y       z     vdW  Elec       q    Type
REMARK                         _______ _______ _______ _____ _____    ______ ____
ROOT
ATOM      1  C   UNL     1       3.732   5.345  19.582  0.00  0.00    +0.000 C 
ENDROOT
BRANCH   1   2
ATOM      2  C   UNL     1       2.911   6.596  19.276  0.00  0.00    +0.000 A 
ATOM      3  C   UNL     1       2.118   7.214  20.247  0.00  0.00    +0.000 A 
ATOM      4  C   UNL     1       1.493   8.432  20.008  0.00  0.00    +0.000 A 
ATOM      5  C   UNL     1       1.590   9.033  18.759  0.00  0.00    +0.000 A 
ATOM      6  C   UNL     1       2.264   8.375  17.733  0.00  0.00    +0.000 A 
ATOM      7  C   UNL     1       2.941   7.175  17.993  0.00  0.00    +0.000 A 
BRANCH   5   8
ATOM      8  O   UNL     1       1.053  10.257  18.459  0.00  0.00    +0.000 OA
BRANCH   8   9
ATOM      9  C   UNL     1       0.634  11.004  19.613  0.00  0.00    +0.000 C 
BRANCH   9  10
ATOM     10  C   UNL     1       1.333  12.319  19.733  0.00  0.00    +0.000 A 
ATOM     11  C   UNL     1       1.523  13.259  18.739  0.00  0.00    +0.000 A 
ATOM     12  S   UNL     1       2.410  14.592  19.349  0.00  0.00    +0.000 S 
ATOM     13  C   UNL     1       2.468  13.829  20.882  0.00  0.00    +0.000 A 
ATOM     14  N   UNL     1       1.873  12.658  20.967  0.00  0.00    +0.000 NA
ENDBRANCH   9  10
ENDBRANCH   8   9
ENDBRANCH   5   8
ENDBRANCH   1   2
BRANCH   1  15
ATOM     15  C   UNL     1       3.161   3.971  19.084  0.00  0.00    +0.000 C 
ATOM     16  C   UNL     1       3.560   2.791  19.995  0.00  0.00    +0.000 C 
ATOM     17  C   UNL     1       2.776   2.744  21.306  0.00  0.00    +0.000 C 
ATOM     18  C   UNL     1       1.265   2.788  21.088  0.00  0.00    +0.000 C 
ATOM     19  C   UNL     1       0.852   3.948  20.197  0.00  0.00    +0.000 C 
ATOM     20  C   UNL     1       1.626   3.931  18.890  0.00  0.00    +0.000 C 
ENDBRANCH   1  15
BRANCH   1  21
ATOM     21  O   UNL     1       5.088   5.544  19.115  0.00  0.00    +0.000 OA
BRANCH  21  24
ATOM     22  C   UNL     1       7.158   6.546  17.658  0.00  0.00    +0.000 C 
ATOM     23  C   UNL     1       6.334   5.350  17.267  0.00  0.00    +0.000 C 
ATOM     24  N   UNL     1       5.333   4.834  17.922  0.00  0.00    +0.000 NA
BRANCH  23  25
ATOM     25  C   UNL     1       6.683   4.689  15.933  0.00  0.00    +0.000 C 
ATOM     26  O   UNL     1       6.192   3.643  15.560  0.00  0.00    +0.000 OA
BRANCH  25  27
ATOM     27  O   UNL     1       7.590   5.417  15.257  0.00  0.00    +0.000 OA
ATOM     28  H   UNL     1       7.737   4.997  14.379  0.00  0.00    +0.000 HD
ENDBRANCH  25  27
ENDBRANCH  23  25
ENDBRANCH  21  24
ENDBRANCH   1  21
TORSDOF 9
ENDMDL
MODEL 9
REMARK VINA RESULT:      -8.0      1.176      2.078
REMARK  Name = 
REMARK  10 active torsions:
REMARK  status: ('A' for Active; 'I' for Inactive)
REMARK    1  A    between atoms: C_1  and  C_2
REMARK    2  A    between atoms: C_2  and  C_25
REMARK    3  A    between atoms: N_3  and  O_4
REMARK    4  A    between atoms: O_4  and  C_5
REMARK    5  A    between atoms: C_5  and  C_6
REMARK    6  A    between atoms: C_5  and  C_19
REMARK    7  A    between atoms: C_9  and  O_10
REMARK    8  A    between atoms: O_10  and  C_11
REMARK    9  A    between atoms: C_11  and  C_12
REMARK   10  A    between atoms: C_25  and  O_27
REMARK                            x       y       z     vdW  Elec       q    Type
REMARK                         _______ _______ _______ _____ _____    ______ ____
ROOT
ATOM      1  C   UNL     1       2.940   5.595  19.401  0.00  0.00    +0.000 C 
ENDROOT
BRANCH   1   2
ATOM      2  C   UNL     1       2.327   6.986  19.554  0.00  0.00    +0.000 A 
ATOM      3  C   UNL     1       2.322   7.909  18.504  0.00  0.00    +0.000 A 
ATOM      4  C   UNL     1       1.635   9.113  18.599  0.00  0.00    +0.000 A 
ATOM      5  C   UNL     1       0.989   9.458  19.780  0.00  0.00    +0.000 A 
ATOM      6  C   UNL     1       1.089   8.616  20.886  0.00  0.00    +0.000 A 
ATOM      7  C   UNL     1       1.735   7.376  20.769  0.00  0.00    +0.000 A 
BRANCH   5   8
ATOM      8  O   UNL     1       0.243  10.596  19.937  0.00  0.00    +0.000 OA
BRANCH   8   9
ATOM      9  C   UNL     1      -0.029  11.284  18.705  0.00  0.00    +0.000 C 
BRANCH   9  10
ATOM     10  C   UNL     1      -1.435  11.092  18.237  0.00  0.00    +0.000 A 
ATOM     11  C   UNL     1      -1.878  10.236  17.248  0.00  0.00    +0.000 A 
ATOM     12  S   UNL     1      -3.572  10.392  17.047  0.00  0.00    +0.000 S 
ATOM     13  C   UNL     1      -3.593  11.574  18.288  0.00  0.00    +0.000 A 
ATOM     14  N   UNL     1      -2.430  11.854  18.838  0.00  0.00    +0.000 NA
ENDBRANCH   9  10
ENDBRANCH   8   9
ENDBRANCH   5   8
ENDBRANCH   1   2
BRANCH   1  15
ATOM     15  C   UNL     1       1.958   4.371  19.416  0.00  0.00    +0.000 C 
ATOM     16  C   UNL     1       1.510   3.946  18.001  0.00  0.00    +0.000 C 
ATOM     17  C   UNL     1       2.587   3.187  17.226  0.00  0.00    +0.000 C 
ATOM     18  C   UNL     1       3.148   2.003  18.008  0.00  0.00    +0.000 C 
ATOM     19  C   UNL     1       3.600   2.403  19.403  0.00  0.00    +0.000 C 
ATOM     20  C   UNL     1       2.486   3.116  20.150  0.00  0.00    +0.000 C 
ENDBRANCH   1  15
BRANCH   1  21
ATOM     21  O   UNL     1       3.778   5.575  18.221  0.00  0.00    +0.000 OA
BRANCH  21  24
ATOM     22  C   UNL     1       5.380   5.278  16.040  0.00  0.00    +0.000 C 
ATOM     23  C   UNL     1       5.838   5.136  17.466  0.00  0.00    +0.000 C 
ATOM     24  N   UNL     1       5.114   5.262  18.543  0.00  0.00    +0.000 NA
BRANCH  23  25
ATOM     25  C   UNL     1       7.305   4.763  17.676  0.00  0.00    +0.000 C 
ATOM     26  O   UNL     1       7.848   4.782  18.763  0.00  0.00    +0.000 OA
BRANCH  25  27
ATOM     27  O   UNL     1       7.888   4.423  16.512  0.00  0.00    +0.000 OA
ATOM     28  H   UNL     1       7.614   3.506  16.281  0.00  0.00    +0.000 HD
ENDBRANCH  25  27
ENDBRANCH  23  25
ENDBRANCH  21  24
ENDBRANCH   1  21
TORSDOF 9
ENDMDL
