MODEL 1
REMARK VINA RESULT:      -6.1      0.000      0.000
REMARK  Name = 
REMARK  27 active torsions:
REMARK  status: ('A' for Active; 'I' for Inactive)
REMARK    1  A    between atoms: C_1  and  C_2
REMARK    2  A    between atoms: C_2  and  C_3
REMARK    3  A    between atoms: C_3  and  C_4
REMARK    4  A    between atoms: C_4  and  C_5
REMARK    5  A    between atoms: C_5  and  C_6
REMARK    6  A    between atoms: C_6  and  C_7
REMARK    7  A    between atoms: C_7  and  C_8
REMARK    8  A    between atoms: C_8  and  C_9
REMARK    9  A    between atoms: C_9  and  C_10
REMARK   10  A    between atoms: C_10  and  C_11
REMARK   11  A    between atoms: C_11  and  C_12
REMARK   12  A    between atoms: C_12  and  C_13
REMARK   13  A    between atoms: C_12  and  O_25
REMARK   14  A    between atoms: C_13  and  C_14
REMARK   15  A    between atoms: C_18  and  C_19
REMARK   16  A    between atoms: C_19  and  C_20
REMARK   17  A    between atoms: C_20  and  C_21
REMARK   18  A    between atoms: C_21  and  C_22
REMARK   19  A    between atoms: C_22  and  C_23
REMARK   20  A    between atoms: C_23  and  C_24
REMARK   21  A    between atoms: O_25  and  C_26
REMARK   22  A    between atoms: C_26  and  C_28
REMARK   23  A    between atoms: C_28  and  N_29
REMARK   24  A    between atoms: C_28  and  C_33
REMARK   25  A    between atoms: C_30  and  C_31
REMARK   26  A    between atoms: C_33  and  C_34
REMARK   27  A    between atoms: C_33  and  C_35
REMARK                            x       y       z     vdW  Elec       q    Type
REMARK                         _______ _______ _______ _____ _____    ______ ____
ROOT
ATOM      1  C   UNL     1       3.226   7.245  17.570  0.00  0.00    +0.000 C 
ENDROOT
BRANCH   1   2
ATOM      2  C   UNL     1       3.293   8.735  17.975  0.00  0.00    +0.000 C 
BRANCH   2   3
ATOM      3  C   UNL     1       1.898   9.370  17.955  0.00  0.00    +0.000 C 
ATOM      4  O   UNL     1       1.903  10.751  17.483  0.00  0.00    +0.000 OA
ATOM      5  C   UNL     1       1.267  11.207  18.588  0.00  0.00    +0.000 C 
ATOM      6  O   UNL     1       0.893  12.330  18.832  0.00  0.00    +0.000 OA
ATOM      7  C   UNL     1       1.306   9.847  19.303  0.00  0.00    +0.000 C 
BRANCH   7   8
ATOM      8  C   UNL     1      -0.045   9.269  19.692  0.00  0.00    +0.000 C 
BRANCH   8   9
ATOM      9  C   UNL     1      -0.063   9.002  21.195  0.00  0.00    +0.000 C 
BRANCH   9  10
ATOM     10  C   UNL     1       0.179  10.280  21.991  0.00  0.00    +0.000 C 
BRANCH  10  11
ATOM     11  C   UNL     1      -0.932  11.296  21.732  0.00  0.00    +0.000 C 
BRANCH  11  12
ATOM     12  C   UNL     1      -1.537  11.799  23.040  0.00  0.00    +0.000 C 
ATOM     13  C   UNL     1      -1.321  13.294  23.204  0.00  0.00    +0.000 C 
ENDBRANCH  11  12
ENDBRANCH  10  11
ENDBRANCH   9  10
ENDBRANCH   8   9
ENDBRANCH   7   8
ENDBRANCH   2   3
ENDBRANCH   1   2
BRANCH   1  14
ATOM     14  O   UNL     1       4.535   6.616  17.566  0.00  0.00    +0.000 OA
BRANCH  14  15
ATOM     15  C   UNL     1       5.261   6.619  16.414  0.00  0.00    +0.000 C 
ATOM     16  O   UNL     1       4.969   7.216  15.382  0.00  0.00    +0.000 OA
BRANCH  15  17
ATOM     17  C   UNL     1       6.512   5.761  16.545  0.00  0.00    +0.000 C 
BRANCH  17  18
ATOM     18  N   UNL     1       7.035   5.644  15.174  0.00  0.00    +0.000 N 
ATOM     19  C   UNL     1       6.778   4.576  14.346  0.00  0.00    +0.000 C 
ATOM     20  C   UNL     1       7.397   4.704  12.979  0.00  0.00    +0.000 C 
ATOM     21  O   UNL     1       6.149   3.576  14.676  0.00  0.00    +0.000 OA
ATOM     22  H   UNL     1       7.508   6.460  14.797  0.00  0.00    +0.000 HD
ENDBRANCH  17  18
BRANCH  17  23
ATOM     23  C   UNL     1       7.520   6.459  17.485  0.00  0.00    +0.000 C 
ATOM     24  C   UNL     1       7.244   7.964  17.591  0.00  0.00    +0.000 C 
ATOM     25  C   UNL     1       7.509   5.853  18.890  0.00  0.00    +0.000 C 
ENDBRANCH  17  23
ENDBRANCH  15  17
ENDBRANCH  14  15
ENDBRANCH   1  14
BRANCH   1  26
ATOM     26  C   UNL     1       2.291   6.337  18.384  0.00  0.00    +0.000 C 
BRANCH  26  27
ATOM     27  C   UNL     1       2.726   5.960  19.791  0.00  0.00    +0.000 C 
BRANCH  27  28
ATOM     28  C   UNL     1       1.584   5.804  20.789  0.00  0.00    +0.000 C 
BRANCH  28  29
ATOM     29  C   UNL     1       0.871   4.481  20.514  0.00  0.00    +0.000 C 
BRANCH  29  30
ATOM     30  C   UNL     1       1.656   3.289  21.041  0.00  0.00    +0.000 C 
BRANCH  30  31
ATOM     31  C   UNL     1       1.574   2.125  20.056  0.00  0.00    +0.000 C 
BRANCH  31  32
ATOM     32  C   UNL     1       0.882   2.567  18.774  0.00  0.00    +0.000 C 
BRANCH  32  33
ATOM     33  C   UNL     1       1.892   2.939  17.692  0.00  0.00    +0.000 C 
BRANCH  33  34
ATOM     34  C   UNL     1       3.185   2.156  17.896  0.00  0.00    +0.000 C 
BRANCH  34  36
ATOM     35  C   UNL     1       4.897   3.373  19.262  0.00  0.00    +0.000 C 
ATOM     36  C   UNL     1       4.405   3.070  17.857  0.00  0.00    +0.000 C 
ENDBRANCH  34  36
ENDBRANCH  33  34
ENDBRANCH  32  33
ENDBRANCH  31  32
ENDBRANCH  30  31
ENDBRANCH  29  30
ENDBRANCH  28  29
ENDBRANCH  27  28
ENDBRANCH  26  27
ENDBRANCH   1  26
TORSDOF 22
ENDMDL
MODEL 2
REMARK VINA RESULT:      -5.7      2.093      6.388
REMARK  Name = 
REMARK  27 active torsions:
REMARK  status: ('A' for Active; 'I' for Inactive)
REMARK    1  A    between atoms: C_1  and  C_2
REMARK    2  A    between atoms: C_2  and  C_3
REMARK    3  A    between atoms: C_3  and  C_4
REMARK    4  A    between atoms: C_4  and  C_5
REMARK    5  A    between atoms: C_5  and  C_6
REMARK    6  A    between atoms: C_6  and  C_7
REMARK    7  A    between atoms: C_7  and  C_8
REMARK    8  A    between atoms: C_8  and  C_9
REMARK    9  A    between atoms: C_9  and  C_10
REMARK   10  A    between atoms: C_10  and  C_11
REMARK   11  A    between atoms: C_11  and  C_12
REMARK   12  A    between atoms: C_12  and  C_13
REMARK   13  A    between atoms: C_12  and  O_25
REMARK   14  A    between atoms: C_13  and  C_14
REMARK   15  A    between atoms: C_18  and  C_19
REMARK   16  A    between atoms: C_19  and  C_20
REMARK   17  A    between atoms: C_20  and  C_21
REMARK   18  A    between atoms: C_21  and  C_22
REMARK   19  A    between atoms: C_22  and  C_23
REMARK   20  A    between atoms: C_23  and  C_24
REMARK   21  A    between atoms: O_25  and  C_26
REMARK   22  A    between atoms: C_26  and  C_28
REMARK   23  A    between atoms: C_28  and  N_29
REMARK   24  A    between atoms: C_28  and  C_33
REMARK   25  A    between atoms: C_30  and  C_31
REMARK   26  A    between atoms: C_33  and  C_34
REMARK   27  A    between atoms: C_33  and  C_35
REMARK                            x       y       z     vdW  Elec       q    Type
REMARK                         _______ _______ _______ _____ _____    ______ ____
ROOT
ATOM      1  C   UNL     1       3.736   5.431  17.845  0.00  0.00    +0.000 C 
ENDROOT
BRANCH   1   2
ATOM      2  C   UNL     1       3.867   4.275  16.829  0.00  0.00    +0.000 C 
BRANCH   2   3
ATOM      3  C   UNL     1       3.282   2.978  17.397  0.00  0.00    +0.000 C 
ATOM      4  O   UNL     1       1.924   2.709  16.934  0.00  0.00    +0.000 OA
ATOM      5  C   UNL     1       1.441   2.589  18.192  0.00  0.00    +0.000 C 
ATOM      6  O   UNL     1       0.321   2.299  18.545  0.00  0.00    +0.000 OA
ATOM      7  C   UNL     1       2.766   3.000  18.855  0.00  0.00    +0.000 C 
BRANCH   7   8
ATOM      8  C   UNL     1       3.371   1.980  19.805  0.00  0.00    +0.000 C 
BRANCH   8   9
ATOM      9  C   UNL     1       3.359   2.544  21.223  0.00  0.00    +0.000 C 
BRANCH   9  10
ATOM     10  C   UNL     1       2.067   3.302  21.510  0.00  0.00    +0.000 C 
BRANCH  10  11
ATOM     11  C   UNL     1       2.317   4.809  21.528  0.00  0.00    +0.000 C 
BRANCH  11  12
ATOM     12  C   UNL     1       1.246   5.557  20.740  0.00  0.00    +0.000 C 
ATOM     13  C   UNL     1       1.201   7.024  21.133  0.00  0.00    +0.000 C 
ENDBRANCH  11  12
ENDBRANCH  10  11
ENDBRANCH   9  10
ENDBRANCH   8   9
ENDBRANCH   7   8
ENDBRANCH   2   3
ENDBRANCH   1   2
BRANCH   1  14
ATOM     14  O   UNL     1       4.903   6.296  17.850  0.00  0.00    +0.000 OA
BRANCH  14  15
ATOM     15  C   UNL     1       5.597   6.468  16.690  0.00  0.00    +0.000 C 
ATOM     16  O   UNL     1       5.215   7.105  15.713  0.00  0.00    +0.000 OA
BRANCH  15  17
ATOM     17  C   UNL     1       6.938   5.749  16.735  0.00  0.00    +0.000 C 
BRANCH  17  18
ATOM     18  N   UNL     1       7.413   5.751  15.342  0.00  0.00    +0.000 N 
ATOM     19  C   UNL     1       7.090   4.780  14.422  0.00  0.00    +0.000 C 
ATOM     20  C   UNL     1       7.672   5.022  13.054  0.00  0.00    +0.000 C 
ATOM     21  O   UNL     1       6.435   3.775  14.674  0.00  0.00    +0.000 OA
ATOM     22  H   UNL     1       7.906   6.584  15.031  0.00  0.00    +0.000 HD
ENDBRANCH  17  18
BRANCH  17  23
ATOM     23  C   UNL     1       7.901   6.513  17.670  0.00  0.00    +0.000 C 
ATOM     24  C   UNL     1       7.626   8.021  17.656  0.00  0.00    +0.000 C 
ATOM     25  C   UNL     1       7.822   6.007  19.113  0.00  0.00    +0.000 C 
ENDBRANCH  17  23
ENDBRANCH  15  17
ENDBRANCH  14  15
ENDBRANCH   1  14
BRANCH   1  26
ATOM     26  C   UNL     1       2.502   6.339  17.721  0.00  0.00    +0.000 C 
BRANCH  26  27
ATOM     27  C   UNL     1       2.665   7.804  18.091  0.00  0.00    +0.000 C 
BRANCH  27  28
ATOM     28  C   UNL     1       1.502   8.697  17.677  0.00  0.00    +0.000 C 
BRANCH  28  29
ATOM     29  C   UNL     1       1.692  10.074  18.311  0.00  0.00    +0.000 C 
BRANCH  29  30
ATOM     30  C   UNL     1       0.881  10.232  19.588  0.00  0.00    +0.000 C 
BRANCH  30  31
ATOM     31  C   UNL     1       0.323  11.651  19.688  0.00  0.00    +0.000 C 
BRANCH  31  32
ATOM     32  C   UNL     1      -1.185  11.611  19.888  0.00  0.00    +0.000 C 
BRANCH  32  33
ATOM     33  C   UNL     1      -1.923  12.258  18.720  0.00  0.00    +0.000 C 
BRANCH  33  34
ATOM     34  C   UNL     1      -3.175  11.453  18.384  0.00  0.00    +0.000 C 
BRANCH  34  36
ATOM     35  C   UNL     1      -2.155   9.932  16.674  0.00  0.00    +0.000 C 
ATOM     36  C   UNL     1      -3.186  11.020  16.922  0.00  0.00    +0.000 C 
ENDBRANCH  34  36
ENDBRANCH  33  34
ENDBRANCH  32  33
ENDBRANCH  31  32
ENDBRANCH  30  31
ENDBRANCH  29  30
ENDBRANCH  28  29
ENDBRANCH  27  28
ENDBRANCH  26  27
ENDBRANCH   1  26
TORSDOF 22
ENDMDL
MODEL 3
REMARK VINA RESULT:      -5.6      2.894      5.589
REMARK  Name = 
REMARK  27 active torsions:
REMARK  status: ('A' for Active; 'I' for Inactive)
REMARK    1  A    between atoms: C_1  and  C_2
REMARK    2  A    between atoms: C_2  and  C_3
REMARK    3  A    between atoms: C_3  and  C_4
REMARK    4  A    between atoms: C_4  and  C_5
REMARK    5  A    between atoms: C_5  and  C_6
REMARK    6  A    between atoms: C_6  and  C_7
REMARK    7  A    between atoms: C_7  and  C_8
REMARK    8  A    between atoms: C_8  and  C_9
REMARK    9  A    between atoms: C_9  and  C_10
REMARK   10  A    between atoms: C_10  and  C_11
REMARK   11  A    between atoms: C_11  and  C_12
REMARK   12  A    between atoms: C_12  and  C_13
REMARK   13  A    between atoms: C_12  and  O_25
REMARK   14  A    between atoms: C_13  and  C_14
REMARK   15  A    between atoms: C_18  and  C_19
REMARK   16  A    between atoms: C_19  and  C_20
REMARK   17  A    between atoms: C_20  and  C_21
REMARK   18  A    between atoms: C_21  and  C_22
REMARK   19  A    between atoms: C_22  and  C_23
REMARK   20  A    between atoms: C_23  and  C_24
REMARK   21  A    between atoms: O_25  and  C_26
REMARK   22  A    between atoms: C_26  and  C_28
REMARK   23  A    between atoms: C_28  and  N_29
REMARK   24  A    between atoms: C_28  and  C_33
REMARK   25  A    between atoms: C_30  and  C_31
REMARK   26  A    between atoms: C_33  and  C_34
REMARK   27  A    between atoms: C_33  and  C_35
REMARK                            x       y       z     vdW  Elec       q    Type
REMARK                         _______ _______ _______ _____ _____    ______ ____
ROOT
ATOM      1  C   UNL     1       1.443   7.022  20.826  0.00  0.00    +0.000 C 
ENDROOT
BRANCH   1   2
ATOM      2  C   UNL     1       0.221   7.955  20.978  0.00  0.00    +0.000 C 
BRANCH   2   3
ATOM      3  C   UNL     1       0.573   9.388  20.568  0.00  0.00    +0.000 C 
ATOM      4  O   UNL     1       1.138  10.176  21.660  0.00  0.00    +0.000 OA
ATOM      5  C   UNL     1       0.224  11.163  21.517  0.00  0.00    +0.000 C 
ATOM      6  O   UNL     1       0.148  12.212  22.115  0.00  0.00    +0.000 OA
ATOM      7  C   UNL     1      -0.586  10.407  20.451  0.00  0.00    +0.000 C 
BRANCH   7   8
ATOM      8  C   UNL     1      -0.734  11.114  19.113  0.00  0.00    +0.000 C 
BRANCH   8   9
ATOM      9  C   UNL     1      -0.838  10.073  18.003  0.00  0.00    +0.000 C 
BRANCH   9  10
ATOM     10  C   UNL     1      -2.282   9.881  17.553  0.00  0.00    +0.000 C 
BRANCH  10  11
ATOM     11  C   UNL     1      -2.385   9.929  16.030  0.00  0.00    +0.000 C 
BRANCH  11  12
ATOM     12  C   UNL     1      -3.211  11.127  15.570  0.00  0.00    +0.000 C 
ATOM     13  C   UNL     1      -4.267  11.493  16.600  0.00  0.00    +0.000 C 
ENDBRANCH  11  12
ENDBRANCH  10  11
ENDBRANCH   9  10
ENDBRANCH   8   9
ENDBRANCH   7   8
ENDBRANCH   2   3
ENDBRANCH   1   2
BRANCH   1  14
ATOM     14  O   UNL     1       1.058   5.636  20.621  0.00  0.00    +0.000 OA
BRANCH  14  15
ATOM     15  C   UNL     1       1.949   4.654  20.931  0.00  0.00    +0.000 C 
ATOM     16  O   UNL     1       2.234   4.276  22.064  0.00  0.00    +0.000 OA
BRANCH  15  17
ATOM     17  C   UNL     1       2.585   4.067  19.680  0.00  0.00    +0.000 C 
BRANCH  17  18
ATOM     18  N   UNL     1       3.212   2.813  20.128  0.00  0.00    +0.000 N 
ATOM     19  C   UNL     1       4.536   2.503  19.920  0.00  0.00    +0.000 C 
ATOM     20  C   UNL     1       4.948   1.176  20.502  0.00  0.00    +0.000 C 
ATOM     21  O   UNL     1       5.320   3.196  19.281  0.00  0.00    +0.000 OA
ATOM     22  H   UNL     1       2.651   2.212  20.725  0.00  0.00    +0.000 HD
ENDBRANCH  17  18
BRANCH  17  23
ATOM     23  C   UNL     1       1.492   3.813  18.617  0.00  0.00    +0.000 C 
ATOM     24  C   UNL     1       2.071   3.827  17.197  0.00  0.00    +0.000 C 
ATOM     25  C   UNL     1       0.767   2.484  18.844  0.00  0.00    +0.000 C 
ENDBRANCH  17  23
ENDBRANCH  15  17
ENDBRANCH  14  15
ENDBRANCH   1  14
BRANCH   1  26
ATOM     26  C   UNL     1       2.462   7.374  19.730  0.00  0.00    +0.000 C 
BRANCH  26  27
ATOM     27  C   UNL     1       1.950   7.493  18.304  0.00  0.00    +0.000 C 
BRANCH  27  28
ATOM     28  C   UNL     1       3.041   7.558  17.241  0.00  0.00    +0.000 C 
BRANCH  28  29
ATOM     29  C   UNL     1       4.311   6.925  17.804  0.00  0.00    +0.000 C 
BRANCH  29  30
ATOM     30  C   UNL     1       5.361   6.694  16.728  0.00  0.00    +0.000 C 
BRANCH  30  31
ATOM     31  C   UNL     1       5.339   5.237  16.271  0.00  0.00    +0.000 C 
BRANCH  31  32
ATOM     32  C   UNL     1       5.316   5.162  14.750  0.00  0.00    +0.000 C 
BRANCH  32  33
ATOM     33  C   UNL     1       6.633   4.629  14.196  0.00  0.00    +0.000 C 
BRANCH  33  34
ATOM     34  C   UNL     1       6.366   3.737  12.987  0.00  0.00    +0.000 C 
BRANCH  34  36
ATOM     35  C   UNL     1       4.536   3.087  11.404  0.00  0.00    +0.000 C 
ATOM     36  C   UNL     1       4.882   3.415  12.846  0.00  0.00    +0.000 C 
ENDBRANCH  34  36
ENDBRANCH  33  34
ENDBRANCH  32  33
ENDBRANCH  31  32
ENDBRANCH  30  31
ENDBRANCH  29  30
ENDBRANCH  28  29
ENDBRANCH  27  28
ENDBRANCH  26  27
ENDBRANCH   1  26
TORSDOF 22
ENDMDL
MODEL 4
REMARK VINA RESULT:      -5.6      2.346      5.340
REMARK  Name = 
REMARK  27 active torsions:
REMARK  status: ('A' for Active; 'I' for Inactive)
REMARK    1  A    between atoms: C_1  and  C_2
REMARK    2  A    between atoms: C_2  and  C_3
REMARK    3  A    between atoms: C_3  and  C_4
REMARK    4  A    between atoms: C_4  and  C_5
REMARK    5  A    between atoms: C_5  and  C_6
REMARK    6  A    between atoms: C_6  and  C_7
REMARK    7  A    between atoms: C_7  and  C_8
REMARK    8  A    between atoms: C_8  and  C_9
REMARK    9  A    between atoms: C_9  and  C_10
REMARK   10  A    between atoms: C_10  and  C_11
REMARK   11  A    between atoms: C_11  and  C_12
REMARK   12  A    between atoms: C_12  and  C_13
REMARK   13  A    between atoms: C_12  and  O_25
REMARK   14  A    between atoms: C_13  and  C_14
REMARK   15  A    between atoms: C_18  and  C_19
REMARK   16  A    between atoms: C_19  and  C_20
REMARK   17  A    between atoms: C_20  and  C_21
REMARK   18  A    between atoms: C_21  and  C_22
REMARK   19  A    between atoms: C_22  and  C_23
REMARK   20  A    between atoms: C_23  and  C_24
REMARK   21  A    between atoms: O_25  and  C_26
REMARK   22  A    between atoms: C_26  and  C_28
REMARK   23  A    between atoms: C_28  and  N_29
REMARK   24  A    between atoms: C_28  and  C_33
REMARK   25  A    between atoms: C_30  and  C_31
REMARK   26  A    between atoms: C_33  and  C_34
REMARK   27  A    between atoms: C_33  and  C_35
REMARK                            x       y       z     vdW  Elec       q    Type
REMARK                         _______ _______ _______ _____ _____    ______ ____
ROOT
ATOM      1  C   UNL     1       3.198   7.179  18.338  0.00  0.00    +0.000 C 
ENDROOT
BRANCH   1   2
ATOM      2  C   UNL     1       2.616   8.536  17.882  0.00  0.00    +0.000 C 
BRANCH   2   3
ATOM      3  C   UNL     1       1.222   8.761  18.476  0.00  0.00    +0.000 C 
ATOM      4  O   UNL     1       0.500   9.862  17.845  0.00  0.00    +0.000 OA
ATOM      5  C   UNL     1       0.276  10.486  19.025  0.00  0.00    +0.000 C 
ATOM      6  O   UNL     1      -0.354  11.497  19.235  0.00  0.00    +0.000 OA
ATOM      7  C   UNL     1       1.129   9.496  19.834  0.00  0.00    +0.000 C 
BRANCH   7   8
ATOM      8  C   UNL     1       0.405   8.765  20.953  0.00  0.00    +0.000 C 
BRANCH   8   9
ATOM      9  C   UNL     1       0.778   9.399  22.291  0.00  0.00    +0.000 C 
BRANCH   9  10
ATOM     10  C   UNL     1      -0.455   9.919  23.022  0.00  0.00    +0.000 C 
BRANCH  10  11
ATOM     11  C   UNL     1      -0.750  11.364  22.625  0.00  0.00    +0.000 C 
BRANCH  11  12
ATOM     12  C   UNL     1      -2.107  11.817  23.156  0.00  0.00    +0.000 C 
ATOM     13  C   UNL     1      -2.910  12.521  22.074  0.00  0.00    +0.000 C 
ENDBRANCH  11  12
ENDBRANCH  10  11
ENDBRANCH   9  10
ENDBRANCH   8   9
ENDBRANCH   7   8
ENDBRANCH   2   3
ENDBRANCH   1   2
BRANCH   1  14
ATOM     14  O   UNL     1       2.168   6.170  18.517  0.00  0.00    +0.000 OA
BRANCH  14  15
ATOM     15  C   UNL     1       2.204   5.386  19.631  0.00  0.00    +0.000 C 
ATOM     16  O   UNL     1       2.228   5.787  20.790  0.00  0.00    +0.000 OA
BRANCH  15  17
ATOM     17  C   UNL     1       2.224   3.908  19.267  0.00  0.00    +0.000 C 
BRANCH  17  18
ATOM     18  N   UNL     1       3.348   3.346  20.034  0.00  0.00    +0.000 N 
ATOM     19  C   UNL     1       4.067   2.241  19.640  0.00  0.00    +0.000 C 
ATOM     20  C   UNL     1       5.190   1.881  20.576  0.00  0.00    +0.000 C 
ATOM     21  O   UNL     1       3.810   1.561  18.652  0.00  0.00    +0.000 OA
ATOM     22  H   UNL     1       3.671   3.889  20.830  0.00  0.00    +0.000 HD
ENDBRANCH  17  18
BRANCH  17  23
ATOM     23  C   UNL     1       0.879   3.261  19.665  0.00  0.00    +0.000 C 
ATOM     24  C   UNL     1       0.517   2.094  18.738  0.00  0.00    +0.000 C 
ATOM     25  C   UNL     1       0.888   2.760  21.112  0.00  0.00    +0.000 C 
ENDBRANCH  17  23
ENDBRANCH  15  17
ENDBRANCH  14  15
ENDBRANCH   1  14
BRANCH   1  26
ATOM     26  C   UNL     1       4.294   6.554  17.461  0.00  0.00    +0.000 C 
BRANCH  26  27
ATOM     27  C   UNL     1       5.312   5.653  18.140  0.00  0.00    +0.000 C 
BRANCH  27  28
ATOM     28  C   UNL     1       6.681   5.621  17.469  0.00  0.00    +0.000 C 
BRANCH  28  29
ATOM     29  C   UNL     1       6.570   6.294  16.101  0.00  0.00    +0.000 C 
BRANCH  29  30
ATOM     30  C   UNL     1       5.710   5.491  15.137  0.00  0.00    +0.000 C 
BRANCH  30  31
ATOM     31  C   UNL     1       6.551   4.424  14.441  0.00  0.00    +0.000 C 
BRANCH  31  32
ATOM     32  C   UNL     1       5.667   3.538  13.574  0.00  0.00    +0.000 C 
BRANCH  32  33
ATOM     33  C   UNL     1       6.146   3.514  12.126  0.00  0.00    +0.000 C 
BRANCH  33  34
ATOM     34  C   UNL     1       5.243   2.609  11.293  0.00  0.00    +0.000 C 
BRANCH  34  36
ATOM     35  C   UNL     1       3.437   3.805  10.033  0.00  0.00    +0.000 C 
ATOM     36  C   UNL     1       3.795   3.086  11.322  0.00  0.00    +0.000 C 
ENDBRANCH  34  36
ENDBRANCH  33  34
ENDBRANCH  32  33
ENDBRANCH  31  32
ENDBRANCH  30  31
ENDBRANCH  29  30
ENDBRANCH  28  29
ENDBRANCH  27  28
ENDBRANCH  26  27
ENDBRANCH   1  26
TORSDOF 22
ENDMDL
MODEL 5
REMARK VINA RESULT:      -5.6      2.343      7.988
REMARK  Name = 
REMARK  27 active torsions:
REMARK  status: ('A' for Active; 'I' for Inactive)
REMARK    1  A    between atoms: C_1  and  C_2
REMARK    2  A    between atoms: C_2  and  C_3
REMARK    3  A    between atoms: C_3  and  C_4
REMARK    4  A    between atoms: C_4  and  C_5
REMARK    5  A    between atoms: C_5  and  C_6
REMARK    6  A    between atoms: C_6  and  C_7
REMARK    7  A    between atoms: C_7  and  C_8
REMARK    8  A    between atoms: C_8  and  C_9
REMARK    9  A    between atoms: C_9  and  C_10
REMARK   10  A    between atoms: C_10  and  C_11
REMARK   11  A    between atoms: C_11  and  C_12
REMARK   12  A    between atoms: C_12  and  C_13
REMARK   13  A    between atoms: C_12  and  O_25
REMARK   14  A    between atoms: C_13  and  C_14
REMARK   15  A    between atoms: C_18  and  C_19
REMARK   16  A    between atoms: C_19  and  C_20
REMARK   17  A    between atoms: C_20  and  C_21
REMARK   18  A    between atoms: C_21  and  C_22
REMARK   19  A    between atoms: C_22  and  C_23
REMARK   20  A    between atoms: C_23  and  C_24
REMARK   21  A    between atoms: O_25  and  C_26
REMARK   22  A    between atoms: C_26  and  C_28
REMARK   23  A    between atoms: C_28  and  N_29
REMARK   24  A    between atoms: C_28  and  C_33
REMARK   25  A    between atoms: C_30  and  C_31
REMARK   26  A    between atoms: C_33  and  C_34
REMARK   27  A    between atoms: C_33  and  C_35
REMARK                            x       y       z     vdW  Elec       q    Type
REMARK                         _______ _______ _______ _____ _____    ______ ____
ROOT
ATOM      1  C   UNL     1       2.823   7.597  18.339  0.00  0.00    +0.000 C 
ENDROOT
BRANCH   1   2
ATOM      2  C   UNL     1       3.882   7.543  17.214  0.00  0.00    +0.000 C 
BRANCH   2   3
ATOM      3  C   UNL     1       4.630   6.206  17.231  0.00  0.00    +0.000 C 
ATOM      4  O   UNL     1       5.679   6.147  18.244  0.00  0.00    +0.000 OA
ATOM      5  C   UNL     1       6.630   5.805  17.344  0.00  0.00    +0.000 C 
ATOM      6  O   UNL     1       7.792   5.538  17.542  0.00  0.00    +0.000 OA
ATOM      7  C   UNL     1       5.695   5.964  16.134  0.00  0.00    +0.000 C 
BRANCH   7   8
ATOM      8  C   UNL     1       5.515   4.723  15.275  0.00  0.00    +0.000 C 
BRANCH   8   9
ATOM      9  C   UNL     1       6.797   4.467  14.488  0.00  0.00    +0.000 C 
BRANCH   9  10
ATOM     10  C   UNL     1       6.502   3.810  13.144  0.00  0.00    +0.000 C 
BRANCH  10  11
ATOM     11  C   UNL     1       5.002   3.815  12.857  0.00  0.00    +0.000 C 
BRANCH  11  12
ATOM     12  C   UNL     1       4.683   3.065  11.567  0.00  0.00    +0.000 C 
ATOM     13  C   UNL     1       5.609   1.874  11.382  0.00  0.00    +0.000 C 
ENDBRANCH  11  12
ENDBRANCH  10  11
ENDBRANCH   9  10
ENDBRANCH   8   9
ENDBRANCH   7   8
ENDBRANCH   2   3
ENDBRANCH   1   2
BRANCH   1  14
ATOM     14  O   UNL     1       1.623   8.306  17.933  0.00  0.00    +0.000 OA
BRANCH  14  15
ATOM     15  C   UNL     1       1.586   9.661  18.062  0.00  0.00    +0.000 C 
ATOM     16  O   UNL     1       2.279  10.461  17.439  0.00  0.00    +0.000 OA
BRANCH  15  17
ATOM     17  C   UNL     1       0.566  10.091  19.107  0.00  0.00    +0.000 C 
BRANCH  17  18
ATOM     18  N   UNL     1       1.285  11.049  19.964  0.00  0.00    +0.000 N 
ATOM     19  C   UNL     1       1.430  12.383  19.665  0.00  0.00    +0.000 C 
ATOM     20  C   UNL     1       2.176  13.164  20.715  0.00  0.00    +0.000 C 
ATOM     21  O   UNL     1       1.044  12.909  18.626  0.00  0.00    +0.000 OA
ATOM     22  H   UNL     1       1.576  10.711  20.877  0.00  0.00    +0.000 HD
ENDBRANCH  17  18
BRANCH  17  23
ATOM     23  C   UNL     1      -0.645  10.746  18.406  0.00  0.00    +0.000 C 
ATOM     24  C   UNL     1      -1.287   9.799  17.384  0.00  0.00    +0.000 C 
ATOM     25  C   UNL     1      -1.714  11.195  19.406  0.00  0.00    +0.000 C 
ENDBRANCH  17  23
ENDBRANCH  15  17
ENDBRANCH  14  15
ENDBRANCH   1  14
BRANCH   1  26
ATOM     26  C   UNL     1       2.374   6.257  18.943  0.00  0.00    +0.000 C 
BRANCH  26  27
ATOM     27  C   UNL     1       2.820   5.939  20.361  0.00  0.00    +0.000 C 
BRANCH  27  28
ATOM     28  C   UNL     1       2.146   4.721  20.981  0.00  0.00    +0.000 C 
BRANCH  28  29
ATOM     29  C   UNL     1       0.885   4.399  20.180  0.00  0.00    +0.000 C 
BRANCH  29  30
ATOM     30  C   UNL     1       0.585   2.908  20.159  0.00  0.00    +0.000 C 
BRANCH  30  31
ATOM     31  C   UNL     1       1.240   2.254  18.944  0.00  0.00    +0.000 C 
BRANCH  31  32
ATOM     32  C   UNL     1       1.359   3.257  17.806  0.00  0.00    +0.000 C 
BRANCH  32  33
ATOM     33  C   UNL     1       2.721   3.172  17.124  0.00  0.00    +0.000 C 
BRANCH  33  34
ATOM     34  C   UNL     1       3.622   2.202  17.883  0.00  0.00    +0.000 C 
BRANCH  34  36
ATOM     35  C   UNL     1       4.598   2.145  20.190  0.00  0.00    +0.000 C 
ATOM     36  C   UNL     1       4.503   2.930  18.893  0.00  0.00    +0.000 C 
ENDBRANCH  34  36
ENDBRANCH  33  34
ENDBRANCH  32  33
ENDBRANCH  31  32
ENDBRANCH  30  31
ENDBRANCH  29  30
ENDBRANCH  28  29
ENDBRANCH  27  28
ENDBRANCH  26  27
ENDBRANCH   1  26
TORSDOF 22
ENDMDL
MODEL 6
REMARK VINA RESULT:      -5.6      2.679      6.270
REMARK  Name = 
REMARK  27 active torsions:
REMARK  status: ('A' for Active; 'I' for Inactive)
REMARK    1  A    between atoms: C_1  and  C_2
REMARK    2  A    between atoms: C_2  and  C_3
REMARK    3  A    between atoms: C_3  and  C_4
REMARK    4  A    between atoms: C_4  and  C_5
REMARK    5  A    between atoms: C_5  and  C_6
REMARK    6  A    between atoms: C_6  and  C_7
REMARK    7  A    between atoms: C_7  and  C_8
REMARK    8  A    between atoms: C_8  and  C_9
REMARK    9  A    between atoms: C_9  and  C_10
REMARK   10  A    between atoms: C_10  and  C_11
REMARK   11  A    between atoms: C_11  and  C_12
REMARK   12  A    between atoms: C_12  and  C_13
REMARK   13  A    between atoms: C_12  and  O_25
REMARK   14  A    between atoms: C_13  and  C_14
REMARK   15  A    between atoms: C_18  and  C_19
REMARK   16  A    between atoms: C_19  and  C_20
REMARK   17  A    between atoms: C_20  and  C_21
REMARK   18  A    between atoms: C_21  and  C_22
REMARK   19  A    between atoms: C_22  and  C_23
REMARK   20  A    between atoms: C_23  and  C_24
REMARK   21  A    between atoms: O_25  and  C_26
REMARK   22  A    between atoms: C_26  and  C_28
REMARK   23  A    between atoms: C_28  and  N_29
REMARK   24  A    between atoms: C_28  and  C_33
REMARK   25  A    between atoms: C_30  and  C_31
REMARK   26  A    between atoms: C_33  and  C_34
REMARK   27  A    between atoms: C_33  and  C_35
REMARK                            x       y       z     vdW  Elec       q    Type
REMARK                         _______ _______ _______ _____ _____    ______ ____
ROOT
ATOM      1  C   UNL     1       3.257   6.622  18.261  0.00  0.00    +0.000 C 
ENDROOT
BRANCH   1   2
ATOM      2  C   UNL     1       2.345   7.514  19.133  0.00  0.00    +0.000 C 
BRANCH   2   3
ATOM      3  C   UNL     1       1.689   8.613  18.291  0.00  0.00    +0.000 C 
ATOM      4  O   UNL     1       2.654   9.459  17.596  0.00  0.00    +0.000 OA
ATOM      5  C   UNL     1       2.139  10.597  18.115  0.00  0.00    +0.000 C 
ATOM      6  O   UNL     1       2.463  11.741  17.892  0.00  0.00    +0.000 OA
ATOM      7  C   UNL     1       1.149   9.860  19.031  0.00  0.00    +0.000 C 
BRANCH   7   8
ATOM      8  C   UNL     1      -0.319  10.193  18.818  0.00  0.00    +0.000 C 
BRANCH   8   9
ATOM      9  C   UNL     1      -0.886  10.805  20.096  0.00  0.00    +0.000 C 
BRANCH   9  10
ATOM     10  C   UNL     1      -0.358  10.092  21.336  0.00  0.00    +0.000 C 
BRANCH  10  11
ATOM     11  C   UNL     1      -0.659  10.903  22.595  0.00  0.00    +0.000 C 
BRANCH  11  12
ATOM     12  C   UNL     1      -1.547  12.104  22.279  0.00  0.00    +0.000 C 
ATOM     13  C   UNL     1      -1.287  13.246  23.248  0.00  0.00    +0.000 C 
ENDBRANCH  11  12
ENDBRANCH  10  11
ENDBRANCH   9  10
ENDBRANCH   8   9
ENDBRANCH   7   8
ENDBRANCH   2   3
ENDBRANCH   1   2
BRANCH   1  14
ATOM     14  O   UNL     1       2.499   5.731  17.401  0.00  0.00    +0.000 OA
BRANCH  14  15
ATOM     15  C   UNL     1       2.128   4.512  17.882  0.00  0.00    +0.000 C 
ATOM     16  O   UNL     1       1.072   3.935  17.640  0.00  0.00    +0.000 OA
BRANCH  15  17
ATOM     17  C   UNL     1       3.197   3.928  18.795  0.00  0.00    +0.000 C 
BRANCH  17  18
ATOM     18  N   UNL     1       2.450   3.196  19.831  0.00  0.00    +0.000 N 
ATOM     19  C   UNL     1       2.075   3.745  21.035  0.00  0.00    +0.000 C 
ATOM     20  C   UNL     1       1.290   2.805  21.913  0.00  0.00    +0.000 C 
ATOM     21  O   UNL     1       2.379   4.872  21.410  0.00  0.00    +0.000 OA
ATOM     22  H   UNL     1       2.099   2.278  19.574  0.00  0.00    +0.000 HD
ENDBRANCH  17  18
BRANCH  17  23
ATOM     23  C   UNL     1       4.115   2.991  17.980  0.00  0.00    +0.000 C 
ATOM     24  C   UNL     1       3.644   1.533  18.054  0.00  0.00    +0.000 C 
ATOM     25  C   UNL     1       4.204   3.409  16.510  0.00  0.00    +0.000 C 
ENDBRANCH  17  23
ENDBRANCH  15  17
ENDBRANCH  14  15
ENDBRANCH   1  14
BRANCH   1  26
ATOM     26  C   UNL     1       4.292   7.332  17.374  0.00  0.00    +0.000 C 
BRANCH  26  27
ATOM     27  C   UNL     1       5.586   6.594  17.072  0.00  0.00    +0.000 C 
BRANCH  27  28
ATOM     28  C   UNL     1       6.253   5.959  18.286  0.00  0.00    +0.000 C 
BRANCH  28  29
ATOM     29  C   UNL     1       7.643   6.571  18.457  0.00  0.00    +0.000 C 
BRANCH  29  30
ATOM     30  C   UNL     1       7.793   7.874  17.688  0.00  0.00    +0.000 C 
BRANCH  30  31
ATOM     31  C   UNL     1       8.598   8.882  18.505  0.00  0.00    +0.000 C 
BRANCH  31  32
ATOM     32  C   UNL     1       8.479  10.271  17.895  0.00  0.00    +0.000 C 
BRANCH  32  33
ATOM     33  C   UNL     1       9.725  11.109  18.164  0.00  0.00    +0.000 C 
BRANCH  33  34
ATOM     34  C   UNL     1       9.447  12.114  19.278  0.00  0.00    +0.000 C 
BRANCH  34  36
ATOM     35  C   UNL     1       9.517  12.363  21.770  0.00  0.00    +0.000 C 
ATOM     36  C   UNL     1      10.199  11.757  20.555  0.00  0.00    +0.000 C 
ENDBRANCH  34  36
ENDBRANCH  33  34
ENDBRANCH  32  33
ENDBRANCH  31  32
ENDBRANCH  30  31
ENDBRANCH  29  30
ENDBRANCH  28  29
ENDBRANCH  27  28
ENDBRANCH  26  27
ENDBRANCH   1  26
TORSDOF 22
ENDMDL
MODEL 7
REMARK VINA RESULT:      -5.6      2.387      7.994
REMARK  Name = 
REMARK  27 active torsions:
REMARK  status: ('A' for Active; 'I' for Inactive)
REMARK    1  A    between atoms: C_1  and  C_2
REMARK    2  A    between atoms: C_2  and  C_3
REMARK    3  A    between atoms: C_3  and  C_4
REMARK    4  A    between atoms: C_4  and  C_5
REMARK    5  A    between atoms: C_5  and  C_6
REMARK    6  A    between atoms: C_6  and  C_7
REMARK    7  A    between atoms: C_7  and  C_8
REMARK    8  A    between atoms: C_8  and  C_9
REMARK    9  A    between atoms: C_9  and  C_10
REMARK   10  A    between atoms: C_10  and  C_11
REMARK   11  A    between atoms: C_11  and  C_12
REMARK   12  A    between atoms: C_12  and  C_13
REMARK   13  A    between atoms: C_12  and  O_25
REMARK   14  A    between atoms: C_13  and  C_14
REMARK   15  A    between atoms: C_18  and  C_19
REMARK   16  A    between atoms: C_19  and  C_20
REMARK   17  A    between atoms: C_20  and  C_21
REMARK   18  A    between atoms: C_21  and  C_22
REMARK   19  A    between atoms: C_22  and  C_23
REMARK   20  A    between atoms: C_23  and  C_24
REMARK   21  A    between atoms: O_25  and  C_26
REMARK   22  A    between atoms: C_26  and  C_28
REMARK   23  A    between atoms: C_28  and  N_29
REMARK   24  A    between atoms: C_28  and  C_33
REMARK   25  A    between atoms: C_30  and  C_31
REMARK   26  A    between atoms: C_33  and  C_34
REMARK   27  A    between atoms: C_33  and  C_35
REMARK                            x       y       z     vdW  Elec       q    Type
REMARK                         _______ _______ _______ _____ _____    ______ ____
ROOT
ATOM      1  C   UNL     1       3.324   7.116  18.772  0.00  0.00    +0.000 C 
ENDROOT
BRANCH   1   2
ATOM      2  C   UNL     1       4.045   6.932  17.418  0.00  0.00    +0.000 C 
BRANCH   2   3
ATOM      3  C   UNL     1       4.652   5.529  17.308  0.00  0.00    +0.000 C 
ATOM      4  O   UNL     1       5.557   5.207  18.407  0.00  0.00    +0.000 OA
ATOM      5  C   UNL     1       6.573   4.890  17.571  0.00  0.00    +0.000 C 
ATOM      6  O   UNL     1       7.671   4.465  17.848  0.00  0.00    +0.000 OA
ATOM      7  C   UNL     1       5.814   5.325  16.308  0.00  0.00    +0.000 C 
BRANCH   7   8
ATOM      8  C   UNL     1       5.620   4.247  15.253  0.00  0.00    +0.000 C 
BRANCH   8   9
ATOM      9  C   UNL     1       6.567   4.511  14.086  0.00  0.00    +0.000 C 
BRANCH   9  10
ATOM     10  C   UNL     1       6.242   3.619  12.893  0.00  0.00    +0.000 C 
BRANCH  10  11
ATOM     11  C   UNL     1       4.740   3.616  12.614  0.00  0.00    +0.000 C 
BRANCH  11  12
ATOM     12  C   UNL     1       4.425   2.924  11.291  0.00  0.00    +0.000 C 
ATOM     13  C   UNL     1       3.512   3.780  10.428  0.00  0.00    +0.000 C 
ENDBRANCH  11  12
ENDBRANCH  10  11
ENDBRANCH   9  10
ENDBRANCH   8   9
ENDBRANCH   7   8
ENDBRANCH   2   3
ENDBRANCH   1   2
BRANCH   1  14
ATOM     14  O   UNL     1       2.024   7.747  18.623  0.00  0.00    +0.000 OA
BRANCH  14  15
ATOM     15  C   UNL     1       1.969   9.076  18.329  0.00  0.00    +0.000 C 
ATOM     16  O   UNL     1       2.212   9.580  17.236  0.00  0.00    +0.000 OA
BRANCH  15  17
ATOM     17  C   UNL     1       1.573   9.897  19.548  0.00  0.00    +0.000 C 
BRANCH  17  18
ATOM     18  N   UNL     1       0.782  11.016  19.009  0.00  0.00    +0.000 N 
ATOM     19  C   UNL     1       1.119  12.339  19.170  0.00  0.00    +0.000 C 
ATOM     20  C   UNL     1       0.170  13.295  18.497  0.00  0.00    +0.000 C 
ATOM     21  O   UNL     1       2.069  12.738  19.835  0.00  0.00    +0.000 OA
ATOM     22  H   UNL     1       0.016  10.772  18.386  0.00  0.00    +0.000 HD
ENDBRANCH  17  18
BRANCH  17  23
ATOM     23  C   UNL     1       0.744   9.021  20.512  0.00  0.00    +0.000 C 
ATOM     24  C   UNL     1       1.416   8.899  21.885  0.00  0.00    +0.000 C 
ATOM     25  C   UNL     1      -0.676   9.561  20.702  0.00  0.00    +0.000 C 
ENDBRANCH  17  23
ENDBRANCH  15  17
ENDBRANCH  14  15
ENDBRANCH   1  14
BRANCH   1  26
ATOM     26  C   UNL     1       3.120   5.861  19.635  0.00  0.00    +0.000 C 
BRANCH  26  27
ATOM     27  C   UNL     1       1.738   5.628  20.224  0.00  0.00    +0.000 C 
BRANCH  27  28
ATOM     28  C   UNL     1       0.989   4.438  19.636  0.00  0.00    +0.000 C 
BRANCH  28  29
ATOM     29  C   UNL     1       1.477   4.212  18.206  0.00  0.00    +0.000 C 
BRANCH  29  30
ATOM     30  C   UNL     1       1.734   2.741  17.915  0.00  0.00    +0.000 C 
BRANCH  30  31
ATOM     31  C   UNL     1       3.229   2.492  17.731  0.00  0.00    +0.000 C 
BRANCH  31  32
ATOM     32  C   UNL     1       3.694   1.371  18.650  0.00  0.00    +0.000 C 
BRANCH  32  33
ATOM     33  C   UNL     1       4.608   1.894  19.753  0.00  0.00    +0.000 C 
BRANCH  33  34
ATOM     34  C   UNL     1       3.795   2.694  20.767  0.00  0.00    +0.000 C 
BRANCH  34  36
ATOM     35  C   UNL     1       1.647   2.589  22.053  0.00  0.00    +0.000 C 
ATOM     36  C   UNL     1       2.844   1.798  21.553  0.00  0.00    +0.000 C 
ENDBRANCH  34  36
ENDBRANCH  33  34
ENDBRANCH  32  33
ENDBRANCH  31  32
ENDBRANCH  30  31
ENDBRANCH  29  30
ENDBRANCH  28  29
ENDBRANCH  27  28
ENDBRANCH  26  27
ENDBRANCH   1  26
TORSDOF 22
ENDMDL
MODEL 8
REMARK VINA RESULT:      -5.5      2.649      7.196
REMARK  Name = 
REMARK  27 active torsions:
REMARK  status: ('A' for Active; 'I' for Inactive)
REMARK    1  A    between atoms: C_1  and  C_2
REMARK    2  A    between atoms: C_2  and  C_3
REMARK    3  A    between atoms: C_3  and  C_4
REMARK    4  A    between atoms: C_4  and  C_5
REMARK    5  A    between atoms: C_5  and  C_6
REMARK    6  A    between atoms: C_6  and  C_7
REMARK    7  A    between atoms: C_7  and  C_8
REMARK    8  A    between atoms: C_8  and  C_9
REMARK    9  A    between atoms: C_9  and  C_10
REMARK   10  A    between atoms: C_10  and  C_11
REMARK   11  A    between atoms: C_11  and  C_12
REMARK   12  A    between atoms: C_12  and  C_13
REMARK   13  A    between atoms: C_12  and  O_25
REMARK   14  A    between atoms: C_13  and  C_14
REMARK   15  A    between atoms: C_18  and  C_19
REMARK   16  A    between atoms: C_19  and  C_20
REMARK   17  A    between atoms: C_20  and  C_21
REMARK   18  A    between atoms: C_21  and  C_22
REMARK   19  A    between atoms: C_22  and  C_23
REMARK   20  A    between atoms: C_23  and  C_24
REMARK   21  A    between atoms: O_25  and  C_26
REMARK   22  A    between atoms: C_26  and  C_28
REMARK   23  A    between atoms: C_28  and  N_29
REMARK   24  A    between atoms: C_28  and  C_33
REMARK   25  A    between atoms: C_30  and  C_31
REMARK   26  A    between atoms: C_33  and  C_34
REMARK   27  A    between atoms: C_33  and  C_35
REMARK                            x       y       z     vdW  Elec       q    Type
REMARK                         _______ _______ _______ _____ _____    ______ ____
ROOT
ATOM      1  C   UNL     1       3.056   7.299  18.572  0.00  0.00    +0.000 C 
ENDROOT
BRANCH   1   2
ATOM      2  C   UNL     1       3.653   6.217  17.644  0.00  0.00    +0.000 C 
BRANCH   2   3
ATOM      3  C   UNL     1       4.749   6.808  16.750  0.00  0.00    +0.000 C 
ATOM      4  O   UNL     1       5.270   5.856  15.774  0.00  0.00    +0.000 OA
ATOM      5  C   UNL     1       6.550   6.038  16.173  0.00  0.00    +0.000 C 
ATOM      6  O   UNL     1       7.558   5.554  15.711  0.00  0.00    +0.000 OA
ATOM      7  C   UNL     1       6.168   6.949  17.350  0.00  0.00    +0.000 C 
BRANCH   7   8
ATOM      8  C   UNL     1       6.778   8.341  17.329  0.00  0.00    +0.000 C 
BRANCH   8   9
ATOM      9  C   UNL     1       8.122   8.312  18.051  0.00  0.00    +0.000 C 
BRANCH   9  10
ATOM     10  C   UNL     1       8.759   9.696  18.098  0.00  0.00    +0.000 C 
BRANCH  10  11
ATOM     11  C   UNL     1       9.180  10.049  19.523  0.00  0.00    +0.000 C 
BRANCH  11  12
ATOM     12  C   UNL     1       9.483  11.539  19.657  0.00  0.00    +0.000 C 
ATOM     13  C   UNL     1      10.896  11.766  20.167  0.00  0.00    +0.000 C 
ENDBRANCH  11  12
ENDBRANCH  10  11
ENDBRANCH   9  10
ENDBRANCH   8   9
ENDBRANCH   7   8
ENDBRANCH   2   3
ENDBRANCH   1   2
BRANCH   1  14
ATOM     14  O   UNL     1       1.856   7.900  18.017  0.00  0.00    +0.000 OA
BRANCH  14  15
ATOM     15  C   UNL     1       1.592   9.209  18.287  0.00  0.00    +0.000 C 
ATOM     16  O   UNL     1       2.322  10.158  18.018  0.00  0.00    +0.000 OA
BRANCH  15  17
ATOM     17  C   UNL     1       0.255   9.370  18.996  0.00  0.00    +0.000 C 
BRANCH  17  18
ATOM     18  N   UNL     1       0.602   9.681  20.392  0.00  0.00    +0.000 N 
ATOM     19  C   UNL     1       0.098   9.000  21.475  0.00  0.00    +0.000 C 
ATOM     20  C   UNL     1       0.631   9.484  22.799  0.00  0.00    +0.000 C 
ATOM     21  O   UNL     1      -0.745   8.112  21.407  0.00  0.00    +0.000 OA
ATOM     22  H   UNL     1       1.347  10.358  20.535  0.00  0.00    +0.000 HD
ENDBRANCH  17  18
BRANCH  17  23
ATOM     23  C   UNL     1      -0.543  10.516  18.335  0.00  0.00    +0.000 C 
ATOM     24  C   UNL     1      -1.828  10.003  17.674  0.00  0.00    +0.000 C 
ATOM     25  C   UNL     1      -0.906  11.616  19.336  0.00  0.00    +0.000 C 
ENDBRANCH  17  23
ENDBRANCH  15  17
ENDBRANCH  14  15
ENDBRANCH   1  14
BRANCH   1  26
ATOM     26  C   UNL     1       2.726   6.881  20.014  0.00  0.00    +0.000 C 
BRANCH  26  27
ATOM     27  C   UNL     1       1.603   5.879  20.218  0.00  0.00    +0.000 C 
BRANCH  27  28
ATOM     28  C   UNL     1       1.930   4.745  21.183  0.00  0.00    +0.000 C 
BRANCH  28  29
ATOM     29  C   UNL     1       3.294   4.166  20.813  0.00  0.00    +0.000 C 
BRANCH  29  30
ATOM     30  C   UNL     1       3.352   2.661  21.022  0.00  0.00    +0.000 C 
BRANCH  30  31
ATOM     31  C   UNL     1       4.434   2.045  20.137  0.00  0.00    +0.000 C 
BRANCH  31  32
ATOM     32  C   UNL     1       3.826   1.535  18.838  0.00  0.00    +0.000 C 
BRANCH  32  33
ATOM     33  C   UNL     1       3.837   2.609  17.755  0.00  0.00    +0.000 C 
BRANCH  33  34
ATOM     34  C   UNL     1       2.486   2.648  17.047  0.00  0.00    +0.000 C 
BRANCH  34  36
ATOM     35  C   UNL     1       0.589   2.449  18.673  0.00  0.00    +0.000 C 
ATOM     36  C   UNL     1       1.447   3.408  17.865  0.00  0.00    +0.000 C 
ENDBRANCH  34  36
ENDBRANCH  33  34
ENDBRANCH  32  33
ENDBRANCH  31  32
ENDBRANCH  30  31
ENDBRANCH  29  30
ENDBRANCH  28  29
ENDBRANCH  27  28
ENDBRANCH  26  27
ENDBRANCH   1  26
TORSDOF 22
ENDMDL
MODEL 9
REMARK VINA RESULT:      -5.4      3.886      7.339
REMARK  Name = 
REMARK  27 active torsions:
REMARK  status: ('A' for Active; 'I' for Inactive)
REMARK    1  A    between atoms: C_1  and  C_2
REMARK    2  A    between atoms: C_2  and  C_3
REMARK    3  A    between atoms: C_3  and  C_4
REMARK    4  A    between atoms: C_4  and  C_5
REMARK    5  A    between atoms: C_5  and  C_6
REMARK    6  A    between atoms: C_6  and  C_7
REMARK    7  A    between atoms: C_7  and  C_8
REMARK    8  A    between atoms: C_8  and  C_9
REMARK    9  A    between atoms: C_9  and  C_10
REMARK   10  A    between atoms: C_10  and  C_11
REMARK   11  A    between atoms: C_11  and  C_12
REMARK   12  A    between atoms: C_12  and  C_13
REMARK   13  A    between atoms: C_12  and  O_25
REMARK   14  A    between atoms: C_13  and  C_14
REMARK   15  A    between atoms: C_18  and  C_19
REMARK   16  A    between atoms: C_19  and  C_20
REMARK   17  A    between atoms: C_20  and  C_21
REMARK   18  A    between atoms: C_21  and  C_22
REMARK   19  A    between atoms: C_22  and  C_23
REMARK   20  A    between atoms: C_23  and  C_24
REMARK   21  A    between atoms: O_25  and  C_26
REMARK   22  A    between atoms: C_26  and  C_28
REMARK   23  A    between atoms: C_28  and  N_29
REMARK   24  A    between atoms: C_28  and  C_33
REMARK   25  A    between atoms: C_30  and  C_31
REMARK   26  A    between atoms: C_33  and  C_34
REMARK   27  A    between atoms: C_33  and  C_35
REMARK                            x       y       z     vdW  Elec       q    Type
REMARK                         _______ _______ _______ _____ _____    ______ ____
ROOT
ATOM      1  C   UNL     1       0.973  10.670  18.460  0.00  0.00    +0.000 C 
ENDROOT
BRANCH   1   2
ATOM      2  C   UNL     1      -0.298  11.480  18.120  0.00  0.00    +0.000 C 
BRANCH   2   3
ATOM      3  C   UNL     1      -1.517  10.559  18.000  0.00  0.00    +0.000 C 
ATOM      4  O   UNL     1      -1.445   9.656  16.856  0.00  0.00    +0.000 OA
ATOM      5  C   UNL     1      -2.645  10.055  16.374  0.00  0.00    +0.000 C 
ATOM      6  O   UNL     1      -3.245   9.638  15.410  0.00  0.00    +0.000 OA
ATOM      7  C   UNL     1      -2.820  11.163  17.425  0.00  0.00    +0.000 C 
BRANCH   7   8
ATOM      8  C   UNL     1      -4.061  11.053  18.295  0.00  0.00    +0.000 C 
BRANCH   8   9
ATOM      9  C   UNL     1      -5.169  11.919  17.702  0.00  0.00    +0.000 C 
BRANCH   9  10
ATOM     10  C   UNL     1      -6.456  11.809  18.513  0.00  0.00    +0.000 C 
BRANCH  10  11
ATOM     11  C   UNL     1      -6.794  10.346  18.793  0.00  0.00    +0.000 C 
BRANCH  11  12
ATOM     12  C   UNL     1      -7.343  10.166  20.205  0.00  0.00    +0.000 C 
ATOM     13  C   UNL     1      -7.586   8.699  20.516  0.00  0.00    +0.000 C 
ENDBRANCH  11  12
ENDBRANCH  10  11
ENDBRANCH   9  10
ENDBRANCH   8   9
ENDBRANCH   7   8
ENDBRANCH   2   3
ENDBRANCH   1   2
BRANCH   1  14
ATOM     14  O   UNL     1       1.151  10.497  19.891  0.00  0.00    +0.000 OA
BRANCH  14  15
ATOM     15  C   UNL     1       0.983  11.574  20.709  0.00  0.00    +0.000 C 
ATOM     16  O   UNL     1       1.456  12.692  20.529  0.00  0.00    +0.000 OA
BRANCH  15  17
ATOM     17  C   UNL     1       0.127  11.224  21.918  0.00  0.00    +0.000 C 
BRANCH  17  18
ATOM     18  N   UNL     1      -1.250  11.553  21.514  0.00  0.00    +0.000 N 
ATOM     19  C   UNL     1      -2.063  12.420  22.205  0.00  0.00    +0.000 C 
ATOM     20  C   UNL     1      -3.416  12.620  21.573  0.00  0.00    +0.000 C 
ATOM     21  O   UNL     1      -1.764  12.957  23.267  0.00  0.00    +0.000 OA
ATOM     22  H   UNL     1      -1.553  11.205  20.609  0.00  0.00    +0.000 HD
ENDBRANCH  17  18
BRANCH  17  23
ATOM     23  C   UNL     1       0.285   9.722  22.244  0.00  0.00    +0.000 C 
ATOM     24  C   UNL     1      -0.018   9.429  23.718  0.00  0.00    +0.000 C 
ATOM     25  C   UNL     1      -0.616   8.847  21.369  0.00  0.00    +0.000 C 
ENDBRANCH  17  23
ENDBRANCH  15  17
ENDBRANCH  14  15
ENDBRANCH   1  14
BRANCH   1  26
ATOM     26  C   UNL     1       1.114   9.281  17.817  0.00  0.00    +0.000 C 
BRANCH  26  27
ATOM     27  C   UNL     1       2.411   8.525  18.050  0.00  0.00    +0.000 C 
BRANCH  27  28
ATOM     28  C   UNL     1       2.279   7.007  18.004  0.00  0.00    +0.000 C 
BRANCH  28  29
ATOM     29  C   UNL     1       3.575   6.388  18.525  0.00  0.00    +0.000 C 
BRANCH  29  30
ATOM     30  C   UNL     1       3.337   5.500  19.737  0.00  0.00    +0.000 C 
BRANCH  30  31
ATOM     31  C   UNL     1       2.005   5.851  20.397  0.00  0.00    +0.000 C 
BRANCH  31  32
ATOM     32  C   UNL     1       1.115   4.619  20.476  0.00  0.00    +0.000 C 
BRANCH  32  33
ATOM     33  C   UNL     1       1.866   3.421  21.048  0.00  0.00    +0.000 C 
BRANCH  33  34
ATOM     34  C   UNL     1       1.704   2.216  20.126  0.00  0.00    +0.000 C 
BRANCH  34  36
ATOM     35  C   UNL     1       2.336   2.475  17.715  0.00  0.00    +0.000 C 
ATOM     36  C   UNL     1       1.225   2.633  18.740  0.00  0.00    +0.000 C 
ENDBRANCH  34  36
ENDBRANCH  33  34
ENDBRANCH  32  33
ENDBRANCH  31  32
ENDBRANCH  30  31
ENDBRANCH  29  30
ENDBRANCH  28  29
ENDBRANCH  27  28
ENDBRANCH  26  27
ENDBRANCH   1  26
TORSDOF 22
ENDMDL
