MODEL 1
REMARK VINA RESULT:      -7.8      0.000      0.000
REMARK  Name = 
REMARK  6 active torsions:
REMARK  status: ('A' for Active; 'I' for Inactive)
REMARK    1  A    between atoms: C_1  and  O_2
REMARK    2  A    between atoms: O_2  and  C_3
REMARK    3  A    between atoms: C_6  and  C_7
REMARK    4  A    between atoms: C_16  and  N_17
REMARK    5  A    between atoms: N_17  and  C_18
REMARK    6  A    between atoms: C_21  and  C_22
REMARK                            x       y       z     vdW  Elec       q    Type
REMARK                         _______ _______ _______ _____ _____    ______ ____
ROOT
ATOM      1  C   UNL     1       2.490   6.372  19.780  0.00  0.00    +0.000 A 
ATOM      2  N   UNL     1       1.641   5.506  20.437  0.00  0.00    +0.000 NA
ATOM      3  C   UNL     1       2.286   4.366  20.502  0.00  0.00    +0.000 A 
ATOM      4  C   UNL     1       1.885   3.108  21.036  0.00  0.00    +0.000 A 
ATOM      5  C   UNL     1       2.735   2.062  20.999  0.00  0.00    +0.000 A 
ATOM      6  C   UNL     1       4.064   2.201  20.429  0.00  0.00    +0.000 A 
ATOM      7 CL   UNL     1       5.111   0.837  20.434  0.00  0.00    +0.000 Cl
ATOM      8  C   UNL     1       4.449   3.381  19.916  0.00  0.00    +0.000 A 
ATOM      9  N   UNL     1       3.559   4.458  19.942  0.00  0.00    +0.000 N 
ATOM     10  C   UNL     1       3.711   5.767  19.492  0.00  0.00    +0.000 A 
ENDROOT
BRANCH   1  14
ATOM     11  C   UNL     1       1.152  10.310  18.792  0.00  0.00    +0.000 A 
ATOM     12  C   UNL     1       0.926   9.774  20.059  0.00  0.00    +0.000 A 
ATOM     13  C   UNL     1       1.378   8.491  20.381  0.00  0.00    +0.000 A 
ATOM     14  C   UNL     1       2.052   7.717  19.429  0.00  0.00    +0.000 A 
ATOM     15  C   UNL     1       2.245   8.251  18.149  0.00  0.00    +0.000 A 
ATOM     16  C   UNL     1       1.814   9.544  17.835  0.00  0.00    +0.000 A 
BRANCH  11  18
ATOM     17  C   UNL     1       1.210  12.603  19.383  0.00  0.00    +0.000 C 
ATOM     18  O   UNL     1       0.644  11.565  18.593  0.00  0.00    +0.000 OA
ENDBRANCH  11  18
ENDBRANCH   1  14
BRANCH  10  19
ATOM     19  N   UNL     1       4.860   6.186  18.884  0.00  0.00    +0.000 N 
ATOM     20  H   UNL     1       5.272   7.080  19.134  0.00  0.00    +0.000 HD
BRANCH  19  21
ATOM     21  C   UNL     1       5.378   5.719  17.650  0.00  0.00    +0.000 A 
ATOM     22  C   UNL     1       6.500   4.888  17.548  0.00  0.00    +0.000 A 
ATOM     23  C   UNL     1       6.998   4.494  16.301  0.00  0.00    +0.000 A 
ATOM     24  C   UNL     1       6.388   4.929  15.123  0.00  0.00    +0.000 A 
ATOM     25  C   UNL     1       6.870   4.452  13.785  0.00  0.00    +0.000 C 
ATOM     26  C   UNL     1       5.286   5.785  15.211  0.00  0.00    +0.000 A 
ATOM     27  C   UNL     1       4.792   6.178  16.461  0.00  0.00    +0.000 A 
ENDBRANCH  19  21
ENDBRANCH  10  19
TORSDOF 4
ENDMDL
MODEL 2
REMARK VINA RESULT:      -7.8      0.448      1.043
REMARK  Name = 
REMARK  6 active torsions:
REMARK  status: ('A' for Active; 'I' for Inactive)
REMARK    1  A    between atoms: C_1  and  O_2
REMARK    2  A    between atoms: O_2  and  C_3
REMARK    3  A    between atoms: C_6  and  C_7
REMARK    4  A    between atoms: C_16  and  N_17
REMARK    5  A    between atoms: N_17  and  C_18
REMARK    6  A    between atoms: C_21  and  C_22
REMARK                            x       y       z     vdW  Elec       q    Type
REMARK                         _______ _______ _______ _____ _____    ______ ____
ROOT
ATOM      1  C   UNL     1       2.482   6.350  19.759  0.00  0.00    +0.000 A 
ATOM      2  N   UNL     1       1.616   5.469  20.374  0.00  0.00    +0.000 NA
ATOM      3  C   UNL     1       2.265   4.332  20.444  0.00  0.00    +0.000 A 
ATOM      4  C   UNL     1       1.853   3.064  20.946  0.00  0.00    +0.000 A 
ATOM      5  C   UNL     1       2.710   2.023  20.923  0.00  0.00    +0.000 A 
ATOM      6  C   UNL     1       4.057   2.178  20.402  0.00  0.00    +0.000 A 
ATOM      7 CL   UNL     1       5.111   0.820  20.423  0.00  0.00    +0.000 Cl
ATOM      8  C   UNL     1       4.453   3.367  19.919  0.00  0.00    +0.000 A 
ATOM      9  N   UNL     1       3.556   4.439  19.931  0.00  0.00    +0.000 N 
ATOM     10  C   UNL     1       3.716   5.755  19.506  0.00  0.00    +0.000 A 
ENDROOT
BRANCH   1  14
ATOM     11  C   UNL     1       1.158  10.296  18.786  0.00  0.00    +0.000 A 
ATOM     12  C   UNL     1       0.932   9.757  20.051  0.00  0.00    +0.000 A 
ATOM     13  C   UNL     1       1.380   8.471  20.368  0.00  0.00    +0.000 A 
ATOM     14  C   UNL     1       2.049   7.697  19.413  0.00  0.00    +0.000 A 
ATOM     15  C   UNL     1       2.242   8.234  18.134  0.00  0.00    +0.000 A 
ATOM     16  C   UNL     1       1.816   9.530  17.825  0.00  0.00    +0.000 A 
BRANCH  11  18
ATOM     17  C   UNL     1      -0.752  11.695  18.745  0.00  0.00    +0.000 C 
ATOM     18  O   UNL     1       0.655  11.553  18.591  0.00  0.00    +0.000 OA
ENDBRANCH  11  18
ENDBRANCH   1  14
BRANCH  10  19
ATOM     19  N   UNL     1       4.883   6.189  18.943  0.00  0.00    +0.000 N 
ATOM     20  H   UNL     1       5.334   7.031  19.290  0.00  0.00    +0.000 HD
BRANCH  19  21
ATOM     21  C   UNL     1       5.381   5.841  17.663  0.00  0.00    +0.000 A 
ATOM     22  C   UNL     1       4.758   6.210  16.465  0.00  0.00    +0.000 A 
ATOM     23  C   UNL     1       5.266   5.801  15.228  0.00  0.00    +0.000 A 
ATOM     24  C   UNL     1       6.411   5.003  15.159  0.00  0.00    +0.000 A 
ATOM     25  C   UNL     1       7.005   4.622  13.836  0.00  0.00    +0.000 C 
ATOM     26  C   UNL     1       7.024   4.602  16.350  0.00  0.00    +0.000 A 
ATOM     27  C   UNL     1       6.510   5.013  17.586  0.00  0.00    +0.000 A 
ENDBRANCH  19  21
ENDBRANCH  10  19
TORSDOF 4
ENDMDL
MODEL 3
REMARK VINA RESULT:      -7.6      0.271      1.360
REMARK  Name = 
REMARK  6 active torsions:
REMARK  status: ('A' for Active; 'I' for Inactive)
REMARK    1  A    between atoms: C_1  and  O_2
REMARK    2  A    between atoms: O_2  and  C_3
REMARK    3  A    between atoms: C_6  and  C_7
REMARK    4  A    between atoms: C_16  and  N_17
REMARK    5  A    between atoms: N_17  and  C_18
REMARK    6  A    between atoms: C_21  and  C_22
REMARK                            x       y       z     vdW  Elec       q    Type
REMARK                         _______ _______ _______ _____ _____    ______ ____
ROOT
ATOM      1  C   UNL     1       2.427   6.382  19.793  0.00  0.00    +0.000 A 
ATOM      2  N   UNL     1       1.563   5.482  20.381  0.00  0.00    +0.000 NA
ATOM      3  C   UNL     1       2.212   4.343  20.414  0.00  0.00    +0.000 A 
ATOM      4  C   UNL     1       1.801   3.059  20.875  0.00  0.00    +0.000 A 
ATOM      5  C   UNL     1       2.658   2.020  20.818  0.00  0.00    +0.000 A 
ATOM      6  C   UNL     1       4.004   2.192  20.301  0.00  0.00    +0.000 A 
ATOM      7 CL   UNL     1       5.059   0.834  20.278  0.00  0.00    +0.000 Cl
ATOM      8  C   UNL     1       4.399   3.395  19.856  0.00  0.00    +0.000 A 
ATOM      9  N   UNL     1       3.502   4.466  19.903  0.00  0.00    +0.000 N 
ATOM     10  C   UNL     1       3.662   5.795  19.520  0.00  0.00    +0.000 A 
ENDROOT
BRANCH   1  14
ATOM     11  C   UNL     1       1.206  10.371  18.863  0.00  0.00    +0.000 A 
ATOM     12  C   UNL     1       1.861   9.584  17.917  0.00  0.00    +0.000 A 
ATOM     13  C   UNL     1       2.245   8.275  18.222  0.00  0.00    +0.000 A 
ATOM     14  C   UNL     1       1.993   7.739  19.491  0.00  0.00    +0.000 A 
ATOM     15  C   UNL     1       1.366   8.549  20.446  0.00  0.00    +0.000 A 
ATOM     16  C   UNL     1       0.959   9.849  20.132  0.00  0.00    +0.000 A 
BRANCH  11  18
ATOM     17  C   UNL     1       1.954  12.592  18.523  0.00  0.00    +0.000 C 
ATOM     18  O   UNL     1       0.900  11.640  18.453  0.00  0.00    +0.000 OA
ENDBRANCH  11  18
ENDBRANCH   1  14
BRANCH  10  19
ATOM     19  N   UNL     1       4.827   6.248  18.970  0.00  0.00    +0.000 N 
ATOM     20  H   UNL     1       5.255   7.102  19.315  0.00  0.00    +0.000 HD
BRANCH  19  21
ATOM     21  C   UNL     1       5.353   5.896  17.702  0.00  0.00    +0.000 A 
ATOM     22  C   UNL     1       4.732   6.224  16.491  0.00  0.00    +0.000 A 
ATOM     23  C   UNL     1       5.269   5.812  15.266  0.00  0.00    +0.000 A 
ATOM     24  C   UNL     1       6.440   5.053  15.224  0.00  0.00    +0.000 A 
ATOM     25  C   UNL     1       7.063   4.670  13.915  0.00  0.00    +0.000 C 
ATOM     26  C   UNL     1       7.052   4.692  16.428  0.00  0.00    +0.000 A 
ATOM     27  C   UNL     1       6.510   5.105  17.652  0.00  0.00    +0.000 A 
ENDBRANCH  19  21
ENDBRANCH  10  19
TORSDOF 4
ENDMDL
MODEL 4
REMARK VINA RESULT:      -7.4      1.249      1.334
REMARK  Name = 
REMARK  6 active torsions:
REMARK  status: ('A' for Active; 'I' for Inactive)
REMARK    1  A    between atoms: C_1  and  O_2
REMARK    2  A    between atoms: O_2  and  C_3
REMARK    3  A    between atoms: C_6  and  C_7
REMARK    4  A    between atoms: C_16  and  N_17
REMARK    5  A    between atoms: N_17  and  C_18
REMARK    6  A    between atoms: C_21  and  C_22
REMARK                            x       y       z     vdW  Elec       q    Type
REMARK                         _______ _______ _______ _____ _____    ______ ____
ROOT
ATOM      1  C   UNL     1       1.928   6.429  20.075  0.00  0.00    +0.000 A 
ATOM      2  N   UNL     1       0.989   5.464  20.376  0.00  0.00    +0.000 NA
ATOM      3  C   UNL     1       1.530   4.325  20.017  0.00  0.00    +0.000 A 
ATOM      4  C   UNL     1       1.005   3.001  20.058  0.00  0.00    +0.000 A 
ATOM      5  C   UNL     1       1.761   1.967  19.638  0.00  0.00    +0.000 A 
ATOM      6  C   UNL     1       3.114   2.181  19.153  0.00  0.00    +0.000 A 
ATOM      7 CL   UNL     1       4.038   0.818  18.656  0.00  0.00    +0.000 Cl
ATOM      8  C   UNL     1       3.615   3.425  19.103  0.00  0.00    +0.000 A 
ATOM      9  N   UNL     1       2.821   4.496  19.524  0.00  0.00    +0.000 N 
ATOM     10  C   UNL     1       3.100   5.859  19.582  0.00  0.00    +0.000 A 
ENDROOT
BRANCH   1  14
ATOM     11  C   UNL     1       0.982  10.562  20.611  0.00  0.00    +0.000 A 
ATOM     12  C   UNL     1       1.002   9.686  21.696  0.00  0.00    +0.000 A 
ATOM     13  C   UNL     1       1.327   8.339  21.516  0.00  0.00    +0.000 A 
ATOM     14  C   UNL     1       1.619   7.843  20.240  0.00  0.00    +0.000 A 
ATOM     15  C   UNL     1       1.563   8.723  19.153  0.00  0.00    +0.000 A 
ATOM     16  C   UNL     1       1.263  10.076  19.336  0.00  0.00    +0.000 A 
BRANCH  11  18
ATOM     17  C   UNL     1      -0.395  12.010  21.883  0.00  0.00    +0.000 C 
ATOM     18  O   UNL     1       0.631  11.850  20.911  0.00  0.00    +0.000 OA
ENDBRANCH  11  18
ENDBRANCH   1  14
BRANCH  10  19
ATOM     19  N   UNL     1       4.298   6.363  19.163  0.00  0.00    +0.000 N 
ATOM     20  H   UNL     1       4.608   7.276  19.484  0.00  0.00    +0.000 HD
BRANCH  19  21
ATOM     21  C   UNL     1       5.029   5.957  18.018  0.00  0.00    +0.000 A 
ATOM     22  C   UNL     1       6.277   5.325  18.083  0.00  0.00    +0.000 A 
ATOM     23  C   UNL     1       6.978   4.987  16.920  0.00  0.00    +0.000 A 
ATOM     24  C   UNL     1       6.449   5.280  15.661  0.00  0.00    +0.000 A 
ATOM     25  C   UNL     1       7.159   4.855  14.410  0.00  0.00    +0.000 C 
ATOM     26  C   UNL     1       5.219   5.940  15.585  0.00  0.00    +0.000 A 
ATOM     27  C   UNL     1       4.522   6.278  16.751  0.00  0.00    +0.000 A 
ENDBRANCH  19  21
ENDBRANCH  10  19
TORSDOF 4
ENDMDL
MODEL 5
REMARK VINA RESULT:      -7.4      5.550      9.229
REMARK  Name = 
REMARK  6 active torsions:
REMARK  status: ('A' for Active; 'I' for Inactive)
REMARK    1  A    between atoms: C_1  and  O_2
REMARK    2  A    between atoms: O_2  and  C_3
REMARK    3  A    between atoms: C_6  and  C_7
REMARK    4  A    between atoms: C_16  and  N_17
REMARK    5  A    between atoms: N_17  and  C_18
REMARK    6  A    between atoms: C_21  and  C_22
REMARK                            x       y       z     vdW  Elec       q    Type
REMARK                         _______ _______ _______ _____ _____    ______ ____
ROOT
ATOM      1  C   UNL     1      -0.823  11.592  22.197  0.00  0.00    +0.000 A 
ATOM      2  N   UNL     1      -0.048  10.627  22.806  0.00  0.00    +0.000 NA
ATOM      3  C   UNL     1       0.460   9.917  21.827  0.00  0.00    +0.000 A 
ATOM      4  C   UNL     1       1.304   8.770  21.860  0.00  0.00    +0.000 A 
ATOM      5  C   UNL     1       1.715   8.206  20.707  0.00  0.00    +0.000 A 
ATOM      6  C   UNL     1       1.319   8.760  19.424  0.00  0.00    +0.000 A 
ATOM      7 CL   UNL     1       1.898   8.012  17.988  0.00  0.00    +0.000 Cl
ATOM      8  C   UNL     1       0.518   9.836  19.381  0.00  0.00    +0.000 A 
ATOM      9  N   UNL     1       0.081  10.408  20.579  0.00  0.00    +0.000 N 
ATOM     10  C   UNL     1      -0.733  11.514  20.808  0.00  0.00    +0.000 A 
ENDROOT
BRANCH   1  14
ATOM     11  C   UNL     1      -3.154  14.287  24.558  0.00  0.00    +0.000 A 
ATOM     12  C   UNL     1      -1.881  14.641  24.115  0.00  0.00    +0.000 A 
ATOM     13  C   UNL     1      -1.129  13.761  23.331  0.00  0.00    +0.000 A 
ATOM     14  C   UNL     1      -1.636  12.502  22.992  0.00  0.00    +0.000 A 
ATOM     15  C   UNL     1      -2.903  12.141  23.470  0.00  0.00    +0.000 A 
ATOM     16  C   UNL     1      -3.665  13.031  24.233  0.00  0.00    +0.000 A 
BRANCH  11  18
ATOM     17  C   UNL     1      -4.257  16.380  24.657  0.00  0.00    +0.000 C 
ATOM     18  O   UNL     1      -3.781  15.223  25.334  0.00  0.00    +0.000 OA
ENDBRANCH  11  18
ENDBRANCH   1  14
BRANCH  10  19
ATOM     19  N   UNL     1      -1.280  12.227  19.779  0.00  0.00    +0.000 N 
ATOM     20  H   UNL     1      -0.833  13.080  19.457  0.00  0.00    +0.000 HD
BRANCH  19  21
ATOM     21  C   UNL     1      -2.619  12.156  19.323  0.00  0.00    +0.000 A 
ATOM     22  C   UNL     1      -3.704  12.696  20.025  0.00  0.00    +0.000 A 
ATOM     23  C   UNL     1      -5.014  12.557  19.553  0.00  0.00    +0.000 A 
ATOM     24  C   UNL     1      -5.271  11.866  18.367  0.00  0.00    +0.000 A 
ATOM     25  C   UNL     1      -6.663  11.776  17.815  0.00  0.00    +0.000 C 
ATOM     26  C   UNL     1      -4.200  11.294  17.674  0.00  0.00    +0.000 A 
ATOM     27  C   UNL     1      -2.891  11.434  18.152  0.00  0.00    +0.000 A 
ENDBRANCH  19  21
ENDBRANCH  10  19
TORSDOF 4
ENDMDL
MODEL 6
REMARK VINA RESULT:      -7.3      1.235      1.657
REMARK  Name = 
REMARK  6 active torsions:
REMARK  status: ('A' for Active; 'I' for Inactive)
REMARK    1  A    between atoms: C_1  and  O_2
REMARK    2  A    between atoms: O_2  and  C_3
REMARK    3  A    between atoms: C_6  and  C_7
REMARK    4  A    between atoms: C_16  and  N_17
REMARK    5  A    between atoms: N_17  and  C_18
REMARK    6  A    between atoms: C_21  and  C_22
REMARK                            x       y       z     vdW  Elec       q    Type
REMARK                         _______ _______ _______ _____ _____    ______ ____
ROOT
ATOM      1  C   UNL     1       1.896   6.408  20.191  0.00  0.00    +0.000 A 
ATOM      2  N   UNL     1       0.935   5.447  20.426  0.00  0.00    +0.000 NA
ATOM      3  C   UNL     1       1.465   4.316  20.026  0.00  0.00    +0.000 A 
ATOM      4  C   UNL     1       0.919   3.001  19.994  0.00  0.00    +0.000 A 
ATOM      5  C   UNL     1       1.667   1.975  19.543  0.00  0.00    +0.000 A 
ATOM      6  C   UNL     1       3.033   2.188  19.097  0.00  0.00    +0.000 A 
ATOM      7 CL   UNL     1       3.946   0.834  18.557  0.00  0.00    +0.000 Cl
ATOM      8  C   UNL     1       3.555   3.425  19.116  0.00  0.00    +0.000 A 
ATOM      9  N   UNL     1       2.770   4.489  19.570  0.00  0.00    +0.000 N 
ATOM     10  C   UNL     1       3.070   5.842  19.697  0.00  0.00    +0.000 A 
ENDROOT
BRANCH   1  14
ATOM     11  C   UNL     1       1.010  10.529  20.903  0.00  0.00    +0.000 A 
ATOM     12  C   UNL     1       1.092   9.622  21.958  0.00  0.00    +0.000 A 
ATOM     13  C   UNL     1       1.397   8.278  21.721  0.00  0.00    +0.000 A 
ATOM     14  C   UNL     1       1.607   7.818  20.415  0.00  0.00    +0.000 A 
ATOM     15  C   UNL     1       1.489   8.730  19.359  0.00  0.00    +0.000 A 
ATOM     16  C   UNL     1       1.210  10.079  19.599  0.00  0.00    +0.000 A 
BRANCH  11  18
ATOM     17  C   UNL     1       1.427  12.844  20.626  0.00  0.00    +0.000 C 
ATOM     18  O   UNL     1       0.686  11.809  21.261  0.00  0.00    +0.000 OA
ENDBRANCH  11  18
ENDBRANCH   1  14
BRANCH  10  19
ATOM     19  N   UNL     1       4.285   6.345  19.327  0.00  0.00    +0.000 N 
ATOM     20  H   UNL     1       4.632   7.202  19.749  0.00  0.00    +0.000 HD
BRANCH  19  21
ATOM     21  C   UNL     1       4.993   6.046  18.137  0.00  0.00    +0.000 A 
ATOM     22  C   UNL     1       4.506   6.330  16.856  0.00  0.00    +0.000 A 
ATOM     23  C   UNL     1       5.225   5.971  15.711  0.00  0.00    +0.000 A 
ATOM     24  C   UNL     1       6.451   5.311  15.820  0.00  0.00    +0.000 A 
ATOM     25  C   UNL     1       7.264   4.989  14.602  0.00  0.00    +0.000 C 
ATOM     26  C   UNL     1       6.933   4.993  17.094  0.00  0.00    +0.000 A 
ATOM     27  C   UNL     1       6.209   5.353  18.237  0.00  0.00    +0.000 A 
ENDBRANCH  19  21
ENDBRANCH  10  19
TORSDOF 4
ENDMDL
MODEL 7
REMARK VINA RESULT:      -7.3      1.111      1.509
REMARK  Name = 
REMARK  6 active torsions:
REMARK  status: ('A' for Active; 'I' for Inactive)
REMARK    1  A    between atoms: C_1  and  O_2
REMARK    2  A    between atoms: O_2  and  C_3
REMARK    3  A    between atoms: C_6  and  C_7
REMARK    4  A    between atoms: C_16  and  N_17
REMARK    5  A    between atoms: N_17  and  C_18
REMARK    6  A    between atoms: C_21  and  C_22
REMARK                            x       y       z     vdW  Elec       q    Type
REMARK                         _______ _______ _______ _____ _____    ______ ____
ROOT
ATOM      1  C   UNL     1       1.907   6.395  20.072  0.00  0.00    +0.000 A 
ATOM      2  N   UNL     1       0.972   5.423  20.359  0.00  0.00    +0.000 NA
ATOM      3  C   UNL     1       1.519   4.290  19.991  0.00  0.00    +0.000 A 
ATOM      4  C   UNL     1       1.001   2.963  20.016  0.00  0.00    +0.000 A 
ATOM      5  C   UNL     1       1.764   1.937  19.588  0.00  0.00    +0.000 A 
ATOM      6  C   UNL     1       3.116   2.163  19.108  0.00  0.00    +0.000 A 
ATOM      7 CL   UNL     1       4.049   0.810  18.600  0.00  0.00    +0.000 Cl
ATOM      8  C   UNL     1       3.612   3.411  19.073  0.00  0.00    +0.000 A 
ATOM      9  N   UNL     1       2.812   4.473  19.503  0.00  0.00    +0.000 N 
ATOM     10  C   UNL     1       3.084   5.837  19.575  0.00  0.00    +0.000 A 
ENDROOT
BRANCH   1  14
ATOM     11  C   UNL     1       1.020  10.549  20.545  0.00  0.00    +0.000 A 
ATOM     12  C   UNL     1       1.317  10.019  19.291  0.00  0.00    +0.000 A 
ATOM     13  C   UNL     1       1.592   8.657  19.140  0.00  0.00    +0.000 A 
ATOM     14  C   UNL     1       1.591   7.806  20.251  0.00  0.00    +0.000 A 
ATOM     15  C   UNL     1       1.325   8.353  21.512  0.00  0.00    +0.000 A 
ATOM     16  C   UNL     1       1.025   9.711  21.659  0.00  0.00    +0.000 A 
BRANCH  11  18
ATOM     17  C   UNL     1      -0.034  12.409  19.526  0.00  0.00    +0.000 C 
ATOM     18  O   UNL     1       0.789  11.898  20.567  0.00  0.00    +0.000 OA
ENDBRANCH  11  18
ENDBRANCH   1  14
BRANCH  10  19
ATOM     19  N   UNL     1       4.280   6.351  19.165  0.00  0.00    +0.000 N 
ATOM     20  H   UNL     1       4.579   7.267  19.488  0.00  0.00    +0.000 HD
BRANCH  19  21
ATOM     21  C   UNL     1       5.023   5.951  18.026  0.00  0.00    +0.000 A 
ATOM     22  C   UNL     1       6.280   5.340  18.099  0.00  0.00    +0.000 A 
ATOM     23  C   UNL     1       6.992   5.007  16.942  0.00  0.00    +0.000 A 
ATOM     24  C   UNL     1       6.465   5.285  15.679  0.00  0.00    +0.000 A 
ATOM     25  C   UNL     1       7.187   4.865  14.433  0.00  0.00    +0.000 C 
ATOM     26  C   UNL     1       5.225   5.925  15.593  0.00  0.00    +0.000 A 
ATOM     27  C   UNL     1       4.516   6.257  16.754  0.00  0.00    +0.000 A 
ENDBRANCH  19  21
ENDBRANCH  10  19
TORSDOF 4
ENDMDL
MODEL 8
REMARK VINA RESULT:      -7.3      5.409      8.561
REMARK  Name = 
REMARK  6 active torsions:
REMARK  status: ('A' for Active; 'I' for Inactive)
REMARK    1  A    between atoms: C_1  and  O_2
REMARK    2  A    between atoms: O_2  and  C_3
REMARK    3  A    between atoms: C_6  and  C_7
REMARK    4  A    between atoms: C_16  and  N_17
REMARK    5  A    between atoms: N_17  and  C_18
REMARK    6  A    between atoms: C_21  and  C_22
REMARK                            x       y       z     vdW  Elec       q    Type
REMARK                         _______ _______ _______ _____ _____    ______ ____
ROOT
ATOM      1  C   UNL     1      -2.388  12.400  20.002  0.00  0.00    +0.000 A 
ATOM      2  N   UNL     1      -3.702  12.373  19.582  0.00  0.00    +0.000 NA
ATOM      3  C   UNL     1      -3.674  11.861  18.375  0.00  0.00    +0.000 A 
ATOM      4  C   UNL     1      -4.728  11.631  17.445  0.00  0.00    +0.000 A 
ATOM      5  C   UNL     1      -4.456  11.075  16.248  0.00  0.00    +0.000 A 
ATOM      6  C   UNL     1      -3.100  10.696  15.892  0.00  0.00    +0.000 A 
ATOM      7 CL   UNL     1      -2.822   9.967  14.360  0.00  0.00    +0.000 Cl
ATOM      8  C   UNL     1      -2.098  10.916  16.758  0.00  0.00    +0.000 A 
ATOM      9  N   UNL     1      -2.382  11.507  17.992  0.00  0.00    +0.000 N 
ATOM     10  C   UNL     1      -1.541  11.830  19.054  0.00  0.00    +0.000 A 
ENDROOT
BRANCH   1  14
ATOM     11  C   UNL     1      -1.270  14.230  23.699  0.00  0.00    +0.000 A 
ATOM     12  C   UNL     1      -0.869  14.776  22.480  0.00  0.00    +0.000 A 
ATOM     13  C   UNL     1      -1.250  14.181  21.274  0.00  0.00    +0.000 A 
ATOM     14  C   UNL     1      -2.027  13.017  21.271  0.00  0.00    +0.000 A 
ATOM     15  C   UNL     1      -2.396  12.457  22.501  0.00  0.00    +0.000 A 
ATOM     16  C   UNL     1      -2.036  13.066  23.707  0.00  0.00    +0.000 A 
BRANCH  11  18
ATOM     17  C   UNL     1      -1.804  15.555  25.588  0.00  0.00    +0.000 C 
ATOM     18  O   UNL     1      -0.817  14.891  24.809  0.00  0.00    +0.000 OA
ENDBRANCH  11  18
ENDBRANCH   1  14
BRANCH  10  19
ATOM     19  N   UNL     1      -0.194  11.608  18.994  0.00  0.00    +0.000 N 
ATOM     20  H   UNL     1       0.409  12.264  18.507  0.00  0.00    +0.000 HD
BRANCH  19  21
ATOM     21  C   UNL     1       0.465  10.369  19.194  0.00  0.00    +0.000 A 
ATOM     22  C   UNL     1       0.502   9.704  20.426  0.00  0.00    +0.000 A 
ATOM     23  C   UNL     1       1.208   8.506  20.581  0.00  0.00    +0.000 A 
ATOM     24  C   UNL     1       1.901   7.946  19.505  0.00  0.00    +0.000 A 
ATOM     25  C   UNL     1       2.598   6.625  19.643  0.00  0.00    +0.000 C 
ATOM     26  C   UNL     1       1.898   8.618  18.280  0.00  0.00    +0.000 A 
ATOM     27  C   UNL     1       1.192   9.818  18.130  0.00  0.00    +0.000 A 
ENDBRANCH  19  21
ENDBRANCH  10  19
TORSDOF 4
ENDMDL
MODEL 9
REMARK VINA RESULT:      -7.2      5.384      8.514
REMARK  Name = 
REMARK  6 active torsions:
REMARK  status: ('A' for Active; 'I' for Inactive)
REMARK    1  A    between atoms: C_1  and  O_2
REMARK    2  A    between atoms: O_2  and  C_3
REMARK    3  A    between atoms: C_6  and  C_7
REMARK    4  A    between atoms: C_16  and  N_17
REMARK    5  A    between atoms: N_17  and  C_18
REMARK    6  A    between atoms: C_21  and  C_22
REMARK                            x       y       z     vdW  Elec       q    Type
REMARK                         _______ _______ _______ _____ _____    ______ ____
ROOT
ATOM      1  C   UNL     1      -2.377  12.304  19.827  0.00  0.00    +0.000 A 
ATOM      2  N   UNL     1      -3.698  12.227  19.438  0.00  0.00    +0.000 NA
ATOM      3  C   UNL     1      -3.677  11.738  18.221  0.00  0.00    +0.000 A 
ATOM      4  C   UNL     1      -4.743  11.478  17.312  0.00  0.00    +0.000 A 
ATOM      5  C   UNL     1      -4.477  10.956  16.099  0.00  0.00    +0.000 A 
ATOM      6  C   UNL     1      -3.115  10.642  15.704  0.00  0.00    +0.000 A 
ATOM      7 CL   UNL     1      -2.842   9.953  14.152  0.00  0.00    +0.000 Cl
ATOM      8  C   UNL     1      -2.102  10.891  16.550  0.00  0.00    +0.000 A 
ATOM      9  N   UNL     1      -2.381  11.447  17.802  0.00  0.00    +0.000 N 
ATOM     10  C   UNL     1      -1.529  11.787  18.849  0.00  0.00    +0.000 A 
ENDROOT
BRANCH   1  14
ATOM     11  C   UNL     1      -1.279  14.143  23.526  0.00  0.00    +0.000 A 
ATOM     12  C   UNL     1      -1.608  14.915  22.413  0.00  0.00    +0.000 A 
ATOM     13  C   UNL     1      -1.981  14.308  21.210  0.00  0.00    +0.000 A 
ATOM     14  C   UNL     1      -2.012  12.913  21.099  0.00  0.00    +0.000 A 
ATOM     15  C   UNL     1      -1.646  12.146  22.212  0.00  0.00    +0.000 A 
ATOM     16  C   UNL     1      -1.298  12.753  23.422  0.00  0.00    +0.000 A 
BRANCH  11  18
ATOM     17  C   UNL     1      -1.970  15.441  25.381  0.00  0.00    +0.000 C 
ATOM     18  O   UNL     1      -0.912  14.852  24.637  0.00  0.00    +0.000 OA
ENDBRANCH  11  18
ENDBRANCH   1  14
BRANCH  10  19
ATOM     19  N   UNL     1      -0.176  11.626  18.753  0.00  0.00    +0.000 N 
ATOM     20  H   UNL     1       0.383  12.304  18.245  0.00  0.00    +0.000 HD
BRANCH  19  21
ATOM     21  C   UNL     1       0.544  10.420  18.944  0.00  0.00    +0.000 A 
ATOM     22  C   UNL     1       1.247   9.770  17.922  0.00  0.00    +0.000 A 
ATOM     23  C   UNL     1       1.903   8.556  18.153  0.00  0.00    +0.000 A 
ATOM     24  C   UNL     1       1.865   7.957  19.414  0.00  0.00    +0.000 A 
ATOM     25  C   UNL     1       2.626   6.694  19.690  0.00  0.00    +0.000 C 
ATOM     26  C   UNL     1       1.139   8.580  20.433  0.00  0.00    +0.000 A 
ATOM     27  C   UNL     1       0.482   9.794  20.197  0.00  0.00    +0.000 A 
ENDBRANCH  19  21
ENDBRANCH  10  19
TORSDOF 4
ENDMDL
